[H]c1nc([H])c(Cl)c(N([H])C(=O)N([H])c2c([H])c(-c3c([H])c([H])c([H])c(-c4c([H])c([H])c([H])c(C(=O)N([H])C([H])([H])C([H])([H])N5C([H])([H])C([H])([H])C([H])([H])C([H])([H])C5([H])[H])c4[H])c3[H])nn(C([H])([H])C([H])([H])[H])c2=O)c1Cl


 47 51  0  0  0  0  0  0  0  0999 V2000
    2.8254    2.6967   11.5581 C   0  0  0  0  0  0  0  0  0  0  0  0
    3.8835    2.9997   10.7697 C   0  0  0  0  0  0  0  0  0  0  0  0
    4.0007    2.3586    9.5313 C   0  0  0  0  0  0  0  0  0  0  0  0
    3.0465    1.4259    9.1135 C   0  0  0  0  0  0  0  0  0  0  0  0
    2.0013    1.1481    9.9223 C   0  0  0  0  0  0  0  0  0  0  0  0
    1.8774    1.7643   11.1376 C   0  0  0  0  0  0  0  0  0  0  0  0
    2.0075    5.3411   13.9843 N   0  0  0  0  0  0  0  0  0  0  0  0
    2.2084    4.6782   12.8578 N   0  0  0  0  0  0  0  0  0  0  0  0
    2.4874    3.3674   12.8349 C   0  0  0  0  0  0  0  0  0  0  0  0
    2.5625    2.7039   14.0443 C   0  0  0  0  0  0  0  0  0  0  0  0
    2.3629    3.3593   15.2653 C   0  0  0  0  0  0  0  0  0  0  0  0
    2.0735    4.7436   15.1650 C   0  0  0  0  0  0  0  0  0  0  0  0
    1.8801    5.3854   16.2398 O   0  0  0  0  0  0  0  0  0  0  0  0
    2.5411    2.8474   16.5305 N   0  0  0  0  0  0  0  0  0  0  0  0
    3.8036    2.8373   17.2585 C   0  0  0  0  0  0  0  0  0  0  0  0
    4.7598    3.3267   16.5911 O   0  0  0  0  0  0  0  0  0  0  0  0
    3.8799    2.3647   18.4934 N   0  0  0  0  0  0  0  0  0  0  0  0
    1.6970    2.4252   17.0428 H   0  0  0  0  0  0  0  0  0  0  0  0
    5.2187    2.7048   18.5554 H   0  0  0  0  0  0  0  0  0  0  0  0
    4.0440    1.8860   19.8008 C   0  0  0  0  0  0  0  0  0  0  0  0
    4.7445    2.6285   20.7347 C   0  0  0  0  0  0  0  0  0  0  0  0
    5.4869    4.1372   20.2185 Cl  0  0  0  0  0  0  0  0  0  0  0  0
    4.9008    2.2297   22.0250 C   0  0  0  0  0  0  0  0  0  0  0  0
    4.3505    1.0392   22.4398 N   0  0  0  0  0  0  0  0  0  0  0  0
    3.6563    0.2863   21.5386 C   0  0  0  0  0  0  0  0  0  0  0  0
    3.5012    0.6912   20.2476 C   0  0  0  0  0  0  0  0  0  0  0  0
    2.6078   -0.2909   19.1196 Cl  0  0  0  0  0  0  0  0  0  0  0  0
    0.2526    6.9864   13.5255 C   0  0  0  0  0  0  0  0  0  0  0  0
    1.6807    6.7793   13.9135 C   0  0  0  0  0  0  0  0  0  0  0  0
    0.9138    0.2765    9.4945 C   0  0  0  0  0  0  0  0  0  0  0  0
    1.1867   -1.0583    9.2259 C   0  0  0  0  0  0  0  0  0  0  0  0
    0.1783   -1.9246    8.8484 C   0  0  0  0  0  0  0  0  0  0  0  0
   -1.1071   -1.5111    8.7259 C   0  0  0  0  0  0  0  0  0  0  0  0
   -1.4182   -0.1504    8.9948 C   0  0  0  0  0  0  0  0  0  0  0  0
   -0.4021    0.6874    9.3661 C   0  0  0  0  0  0  0  0  0  0  0  0
   -2.8027    0.2578    8.8334 C   0  0  0  0  0  0  0  0  0  0  0  0
   -3.5318   -0.3016    7.9594 O   0  0  0  0  0  0  0  0  0  0  0  0
   -3.4191    1.2665    9.6247 N   0  0  0  0  0  0  0  0  0  0  0  0
   -2.8577    1.7481   10.3550 H   0  0  0  0  0  0  0  0  0  0  0  0
   -4.8018    1.6418    9.4636 C   0  0  0  0  0  0  0  0  0  0  0  0
   -5.0728    3.0965    9.3709 C   0  0  0  0  0  0  0  0  0  0  0  0
   -5.5153    3.6824   10.6091 N   0  0  0  0  0  0  0  0  0  0  0  0
   -6.8450    4.1075   10.7027 C   0  0  0  0  0  0  0  0  0  0  0  0
   -7.0664    5.5862   10.6243 C   0  0  0  0  0  0  0  0  0  0  0  0
   -5.8398    6.3980   10.9458 C   0  0  0  0  0  0  0  0  0  0  0  0
   -4.9305    5.6798   11.8800 C   0  0  0  0  0  0  0  0  0  0  0  0
   -4.5075    4.3821   11.3060 C   0  0  0  0  0  0  0  0  0  0  0  0
 28 29  1  0  0  0
 29  7  1  0  0  0
  7  8  1  0  0  0
  8  9  2  0  0  0
  9 10  1  0  0  0
 10 11  2  0  0  0
 11 14  1  0  0  0
 14 15  1  0  0  0
 15 16  2  0  0  0
 15 17  1  0  0  0
 17 20  1  0  0  0
 20 21  2  0  0  0
 21 22  1  0  0  0
 21 23  1  0  0  0
 23 24  2  0  0  0
 24 25  1  0  0  0
 25 26  2  0  0  0
 26 27  1  0  0  0
 11 12  1  0  0  0
 12 13  2  0  0  0
  9  1  1  0  0  0
  1  2  2  0  0  0
  2  3  1  0  0  0
  3  4  2  0  0  0
  4  5  1  0  0  0
  5  6  2  0  0  0
  5 30  1  0  0  0
 30 31  2  0  0  0
 31 32  1  0  0  0
 32 33  2  0  0  0
 33 34  1  0  0  0
 34 35  2  0  0  0
 34 36  1  0  0  0
 36 37  2  0  0  0
 36 38  1  0  0  0
 38 40  1  0  0  0
 40 41  1  0  0  0
 41 42  1  0  0  0
 42 43  1  0  0  0
 43 44  1  0  0  0
 44 45  1  0  0  0
 45 46  1  0  0  0
 46 47  1  0  0  0
 12  7  1  0  0  0
  6  1  1  0  0  0
 35 30  1  0  0  0
 47 42  1  0  0  0
 26 20  1  0  0  0
 14 18  1  0  0  0
 17 19  1  0  0  0
 38 39  1  0  0  0
M  END
> <minimizedAffinity>
-9.03118

> <CNNscore>
0.3168264925

> <CNNaffinity>
7.2911577225

> <CNN_VS>
2.3100318909

> <CNNaffinity_variance>
0.1273403317

$$$$
[H]c1nc([H])c(Cl)c(N([H])C(=O)N([H])c2c([H])c(-c3c([H])c([H])c([H])c(-c4c([H])c([H])c([H])c(C(=O)N([H])C([H])([H])C([H])([H])N5C([H])([H])C([H])([H])C([H])([H])C([H])([H])C5([H])[H])c4[H])c3[H])nn(C([H])([H])C([H])([H])[H])c2=O)c1Cl


 47 51  0  0  0  0  0  0  0  0999 V2000
    3.0150    1.4305   17.0076 C   0  0  0  0  0  0  0  0  0  0  0  0
    2.3526    0.2826   17.2845 C   0  0  0  0  0  0  0  0  0  0  0  0
    2.5335   -0.3081   18.5402 C   0  0  0  0  0  0  0  0  0  0  0  0
    3.3781    0.2728   19.4911 C   0  0  0  0  0  0  0  0  0  0  0  0
    4.0220    1.4196   19.1845 C   0  0  0  0  0  0  0  0  0  0  0  0
    3.8577    2.0049   17.9587 C   0  0  0  0  0  0  0  0  0  0  0  0
    3.0811    4.3026   14.7064 N   0  0  0  0  0  0  0  0  0  0  0  0
    3.3045    3.5029   15.7357 N   0  0  0  0  0  0  0  0  0  0  0  0
    2.8438    2.2450   15.7821 C   0  0  0  0  0  0  0  0  0  0  0  0
    2.1114    1.7873   14.7040 C   0  0  0  0  0  0  0  0  0  0  0  0
    1.8423    2.5942   13.5919 C   0  0  0  0  0  0  0  0  0  0  0  0
    2.3811    3.9042   13.6544 C   0  0  0  0  0  0  0  0  0  0  0  0
    2.1709    4.6762   12.6724 O   0  0  0  0  0  0  0  0  0  0  0  0
    1.0207    2.3059   12.5259 N   0  0  0  0  0  0  0  0  0  0  0  0
    1.4577    1.7068   11.2712 C   0  0  0  0  0  0  0  0  0  0  0  0
    2.7044    1.4983   11.2341 O   0  0  0  0  0  0  0  0  0  0  0  0
    0.5929    1.4199   10.3099 N   0  0  0  0  0  0  0  0  0  0  0  0
   -0.0279    2.5233   12.6056 H   0  0  0  0  0  0  0  0  0  0  0  0
    1.6063    0.8769    9.5417 H   0  0  0  0  0  0  0  0  0  0  0  0
   -0.2569    1.0839    9.2468 C   0  0  0  0  0  0  0  0  0  0  0  0
   -1.0322    2.0545    8.6376 C   0  0  0  0  0  0  0  0  0  0  0  0
   -0.9841    3.6905    9.2816 Cl  0  0  0  0  0  0  0  0  0  0  0  0
   -1.8439    1.7910    7.5792 C   0  0  0  0  0  0  0  0  0  0  0  0
   -1.9152    0.5115    7.0795 N   0  0  0  0  0  0  0  0  0  0  0  0
   -1.1626   -0.4653    7.6629 C   0  0  0  0  0  0  0  0  0  0  0  0
   -0.3498   -0.1957    8.7218 C   0  0  0  0  0  0  0  0  0  0  0  0
    0.6012   -1.4636    9.4452 Cl  0  0  0  0  0  0  0  0  0  0  0  0
    3.6594    6.2182   16.1180 C   0  0  0  0  0  0  0  0  0  0  0  0
    3.6482    5.6656   14.7297 C   0  0  0  0  0  0  0  0  0  0  0  0
    4.8210    2.1355   20.1716 C   0  0  0  0  0  0  0  0  0  0  0  0
    5.6962    1.4190   20.9772 C   0  0  0  0  0  0  0  0  0  0  0  0
    6.4941    2.0636   21.9033 C   0  0  0  0  0  0  0  0  0  0  0  0
    6.4559    3.4095   22.0621 C   0  0  0  0  0  0  0  0  0  0  0  0
    5.5705    4.1708   21.2515 C   0  0  0  0  0  0  0  0  0  0  0  0
    4.7905    3.5090   20.3426 C   0  0  0  0  0  0  0  0  0  0  0  0
    5.5447    5.6071   21.4654 C   0  0  0  0  0  0  0  0  0  0  0  0
    6.1047    6.1069   22.4877 O   0  0  0  0  0  0  0  0  0  0  0  0
    4.9248    6.5214   20.5691 N   0  0  0  0  0  0  0  0  0  0  0  0
    4.4570    6.1536   19.7169 H   0  0  0  0  0  0  0  0  0  0  0  0
    4.9295    7.9463   20.7884 C   0  0  0  0  0  0  0  0  0  0  0  0
    6.1357    8.6708   20.3210 C   0  0  0  0  0  0  0  0  0  0  0  0
    6.4098    9.8751   21.0604 N   0  0  0  0  0  0  0  0  0  0  0  0
    6.6468   11.0530   20.3434 C   0  0  0  0  0  0  0  0  0  0  0  0
    8.0749   11.4958   20.2657 C   0  0  0  0  0  0  0  0  0  0  0  0
    8.9478   10.9101   21.3437 C   0  0  0  0  0  0  0  0  0  0  0  0
    8.1734   10.6057   22.5778 C   0  0  0  0  0  0  0  0  0  0  0  0
    7.0738    9.6580   22.2864 C   0  0  0  0  0  0  0  0  0  0  0  0
 28 29  1  0  0  0
 29  7  1  0  0  0
  7  8  1  0  0  0
  8  9  2  0  0  0
  9 10  1  0  0  0
 10 11  2  0  0  0
 11 14  1  0  0  0
 14 15  1  0  0  0
 15 16  2  0  0  0
 15 17  1  0  0  0
 17 20  1  0  0  0
 20 21  2  0  0  0
 21 22  1  0  0  0
 21 23  1  0  0  0
 23 24  2  0  0  0
 24 25  1  0  0  0
 25 26  2  0  0  0
 26 27  1  0  0  0
 11 12  1  0  0  0
 12 13  2  0  0  0
  9  1  1  0  0  0
  1  2  2  0  0  0
  2  3  1  0  0  0
  3  4  2  0  0  0
  4  5  1  0  0  0
  5  6  2  0  0  0
  5 30  1  0  0  0
 30 31  2  0  0  0
 31 32  1  0  0  0
 32 33  2  0  0  0
 33 34  1  0  0  0
 34 35  2  0  0  0
 34 36  1  0  0  0
 36 37  2  0  0  0
 36 38  1  0  0  0
 38 40  1  0  0  0
 40 41  1  0  0  0
 41 42  1  0  0  0
 42 43  1  0  0  0
 43 44  1  0  0  0
 44 45  1  0  0  0
 45 46  1  0  0  0
 46 47  1  0  0  0
 12  7  1  0  0  0
  6  1  1  0  0  0
 35 30  1  0  0  0
 47 42  1  0  0  0
 26 20  1  0  0  0
 14 18  1  0  0  0
 17 19  1  0  0  0
 38 39  1  0  0  0
M  END
> <minimizedAffinity>
-9.06280

> <CNNscore>
0.2745244801

> <CNNaffinity>
7.1245756149

> <CNN_VS>
1.9558703899

> <CNNaffinity_variance>
0.1178382635

$$$$
[H]c1nc([H])c(Cl)c(N([H])C(=O)N([H])c2c([H])c(-c3c([H])c([H])c([H])c(-c4c([H])c([H])c([H])c(C(=O)N([H])C([H])([H])C([H])([H])N5C([H])([H])C([H])([H])C([H])([H])C([H])([H])C5([H])[H])c4[H])c3[H])nn(C([H])([H])C([H])([H])[H])c2=O)c1Cl


 47 51  0  0  0  0  0  0  0  0999 V2000
   -1.2737    6.2027   13.2388 C   0  0  0  0  0  0  0  0  0  0  0  0
   -2.0130    6.9449   14.0965 C   0  0  0  0  0  0  0  0  0  0  0  0
   -3.3691    7.1422   13.8132 C   0  0  0  0  0  0  0  0  0  0  0  0
   -3.9516    6.5850   12.6707 C   0  0  0  0  0  0  0  0  0  0  0  0
   -3.1872    5.8473   11.8368 C   0  0  0  0  0  0  0  0  0  0  0  0
   -1.8589    5.6507   12.0997 C   0  0  0  0  0  0  0  0  0  0  0  0
    1.8971    4.3599   12.9246 N   0  0  0  0  0  0  0  0  0  0  0  0
    0.6809    4.8288   12.7017 N   0  0  0  0  0  0  0  0  0  0  0  0
    0.1355    5.7977   13.4502 C   0  0  0  0  0  0  0  0  0  0  0  0
    0.8896    6.3116   14.4874 C   0  0  0  0  0  0  0  0  0  0  0  0
    2.1801    5.8474   14.7690 C   0  0  0  0  0  0  0  0  0  0  0  0
    2.6518    4.8226   13.9103 C   0  0  0  0  0  0  0  0  0  0  0  0
    3.8158    4.3681   14.1178 O   0  0  0  0  0  0  0  0  0  0  0  0
    2.9738    6.1775   15.8440 N   0  0  0  0  0  0  0  0  0  0  0  0
    2.8404    5.6209   17.1844 C   0  0  0  0  0  0  0  0  0  0  0  0
    1.8791    4.8055   17.2844 O   0  0  0  0  0  0  0  0  0  0  0  0
    3.6760    5.9599   18.1544 N   0  0  0  0  0  0  0  0  0  0  0  0
    3.7634    6.8921   15.7057 H   0  0  0  0  0  0  0  0  0  0  0  0
    3.0470    5.0847   19.0206 H   0  0  0  0  0  0  0  0  0  0  0  0
    4.5185    6.2640   19.2328 C   0  0  0  0  0  0  0  0  0  0  0  0
    5.3047    5.2798   19.8053 C   0  0  0  0  0  0  0  0  0  0  0  0
    5.1577    3.6344   19.2016 Cl  0  0  0  0  0  0  0  0  0  0  0  0
    6.1666    5.5279   20.8270 C   0  0  0  0  0  0  0  0  0  0  0  0
    6.2747    6.8035   21.3304 N   0  0  0  0  0  0  0  0  0  0  0  0
    5.5094    7.7926   20.7855 C   0  0  0  0  0  0  0  0  0  0  0  0
    4.6488    7.5391   19.7610 C   0  0  0  0  0  0  0  0  0  0  0  0
    3.6853    8.8231   19.0841 Cl  0  0  0  0  0  0  0  0  0  0  0  0
    1.6464    2.0423   12.1742 C   0  0  0  0  0  0  0  0  0  0  0  0
    2.4274    3.3086   12.0337 C   0  0  0  0  0  0  0  0  0  0  0  0
   -3.7599    5.1434   10.6959 C   0  0  0  0  0  0  0  0  0  0  0  0
   -4.3725    3.9142   10.9015 C   0  0  0  0  0  0  0  0  0  0  0  0
   -4.9552    3.2297    9.8518 C   0  0  0  0  0  0  0  0  0  0  0  0
   -4.9530    3.7251    8.5899 C   0  0  0  0  0  0  0  0  0  0  0  0
   -4.3340    4.9817    8.3476 C   0  0  0  0  0  0  0  0  0  0  0  0
   -3.7636    5.6393    9.4033 C   0  0  0  0  0  0  0  0  0  0  0  0
   -4.3354    5.4689    6.9794 C   0  0  0  0  0  0  0  0  0  0  0  0
   -4.9253    4.8092    6.0711 O   0  0  0  0  0  0  0  0  0  0  0  0
   -3.7103    6.6827    6.5797 N   0  0  0  0  0  0  0  0  0  0  0  0
   -3.2184    7.2558    7.2938 H   0  0  0  0  0  0  0  0  0  0  0  0
   -3.7421    7.1601    5.2197 C   0  0  0  0  0  0  0  0  0  0  0  0
   -2.4265    7.3035    4.5513 C   0  0  0  0  0  0  0  0  0  0  0  0
   -1.9062    8.6454    4.5802 N   0  0  0  0  0  0  0  0  0  0  0  0
   -1.8025    9.3417    3.3711 C   0  0  0  0  0  0  0  0  0  0  0  0
   -0.4227    9.4652    2.8033 C   0  0  0  0  0  0  0  0  0  0  0  0
    0.6688    9.2667    3.8212 C   0  0  0  0  0  0  0  0  0  0  0  0
    0.2278    9.6569    5.1882 C   0  0  0  0  0  0  0  0  0  0  0  0
   -0.9581    8.8721    5.6004 C   0  0  0  0  0  0  0  0  0  0  0  0
 28 29  1  0  0  0
 29  7  1  0  0  0
  7  8  1  0  0  0
  8  9  2  0  0  0
  9 10  1  0  0  0
 10 11  2  0  0  0
 11 14  1  0  0  0
 14 15  1  0  0  0
 15 16  2  0  0  0
 15 17  1  0  0  0
 17 20  1  0  0  0
 20 21  2  0  0  0
 21 22  1  0  0  0
 21 23  1  0  0  0
 23 24  2  0  0  0
 24 25  1  0  0  0
 25 26  2  0  0  0
 26 27  1  0  0  0
 11 12  1  0  0  0
 12 13  2  0  0  0
  9  1  1  0  0  0
  1  2  2  0  0  0
  2  3  1  0  0  0
  3  4  2  0  0  0
  4  5  1  0  0  0
  5  6  2  0  0  0
  5 30  1  0  0  0
 30 31  2  0  0  0
 31 32  1  0  0  0
 32 33  2  0  0  0
 33 34  1  0  0  0
 34 35  2  0  0  0
 34 36  1  0  0  0
 36 37  2  0  0  0
 36 38  1  0  0  0
 38 40  1  0  0  0
 40 41  1  0  0  0
 41 42  1  0  0  0
 42 43  1  0  0  0
 43 44  1  0  0  0
 44 45  1  0  0  0
 45 46  1  0  0  0
 46 47  1  0  0  0
 12  7  1  0  0  0
  6  1  1  0  0  0
 35 30  1  0  0  0
 47 42  1  0  0  0
 26 20  1  0  0  0
 14 18  1  0  0  0
 17 19  1  0  0  0
 38 39  1  0  0  0
M  END
> <minimizedAffinity>
-8.82321

> <CNNscore>
0.1887837797

> <CNNaffinity>
6.4005370140

> <CNN_VS>
1.2083175182

> <CNNaffinity_variance>
0.1488160193

$$$$
[H]c1nc([H])c(Cl)c(N([H])C(=O)N([H])c2c([H])c(-c3c([H])c([H])c([H])c(-c4c([H])c([H])c([H])c(C(=O)N([H])C([H])([H])C([H])([H])N5C([H])([H])C([H])([H])C([H])([H])C([H])([H])C5([H])[H])c4[H])c3[H])nn(C([H])([H])C([H])([H])[H])c2=O)c1Cl


 47 51  0  0  0  0  0  0  0  0999 V2000
   -1.4499    6.1244   13.0384 C   0  0  0  0  0  0  0  0  0  0  0  0
   -2.1280    7.0823   13.7133 C   0  0  0  0  0  0  0  0  0  0  0  0
   -3.5036    7.2111   13.4907 C   0  0  0  0  0  0  0  0  0  0  0  0
   -4.1667    6.3692   12.5926 C   0  0  0  0  0  0  0  0  0  0  0  0
   -3.4617    5.4218   11.9374 C   0  0  0  0  0  0  0  0  0  0  0  0
   -2.1155    5.2884   12.1423 C   0  0  0  0  0  0  0  0  0  0  0  0
    1.7962    4.4229   12.6968 N   0  0  0  0  0  0  0  0  0  0  0  0
    0.5614    4.8439   12.4802 N   0  0  0  0  0  0  0  0  0  0  0  0
   -0.0251    5.7755   13.2449 C   0  0  0  0  0  0  0  0  0  0  0  0
    0.7057    6.3022   14.2923 C   0  0  0  0  0  0  0  0  0  0  0  0
    2.0144    5.8881   14.5678 C   0  0  0  0  0  0  0  0  0  0  0  0
    2.5298    4.8995   13.6918 C   0  0  0  0  0  0  0  0  0  0  0  0
    3.7118    4.4909   13.8932 O   0  0  0  0  0  0  0  0  0  0  0  0
    2.7925    6.2322   15.6498 N   0  0  0  0  0  0  0  0  0  0  0  0
    2.7447    5.5842   16.9543 C   0  0  0  0  0  0  0  0  0  0  0  0
    1.8739    4.6693   17.0170 O   0  0  0  0  0  0  0  0  0  0  0  0
    3.5613    5.9479   17.9316 N   0  0  0  0  0  0  0  0  0  0  0  0
    3.5020    7.0316   15.5451 H   0  0  0  0  0  0  0  0  0  0  0  0
    3.0432    4.9613   18.7501 H   0  0  0  0  0  0  0  0  0  0  0  0
    4.3907    6.2711   19.0146 C   0  0  0  0  0  0  0  0  0  0  0  0
    5.2015    5.3069   19.5867 C   0  0  0  0  0  0  0  0  0  0  0  0
    5.1026    3.6604   18.9763 Cl  0  0  0  0  0  0  0  0  0  0  0  0
    6.0520    5.5749   20.6129 C   0  0  0  0  0  0  0  0  0  0  0  0
    6.1227    6.8509   21.1215 N   0  0  0  0  0  0  0  0  0  0  0  0
    5.3325    7.8205   20.5771 C   0  0  0  0  0  0  0  0  0  0  0  0
    4.4834    7.5473   19.5480 C   0  0  0  0  0  0  0  0  0  0  0  0
    3.4875    8.8067   18.8719 Cl  0  0  0  0  0  0  0  0  0  0  0  0
    1.7391    2.0743   12.0054 C   0  0  0  0  0  0  0  0  0  0  0  0
    2.3712    3.4109   11.7883 C   0  0  0  0  0  0  0  0  0  0  0  0
   -4.1137    4.4392   11.0803 C   0  0  0  0  0  0  0  0  0  0  0  0
   -5.4848    4.5266   10.8780 C   0  0  0  0  0  0  0  0  0  0  0  0
   -6.1358    3.6338   10.0479 C   0  0  0  0  0  0  0  0  0  0  0  0
   -5.4692    2.6452    9.4027 C   0  0  0  0  0  0  0  0  0  0  0  0
   -4.0647    2.5302    9.5892 C   0  0  0  0  0  0  0  0  0  0  0  0
   -3.4436    3.4258   10.4166 C   0  0  0  0  0  0  0  0  0  0  0  0
   -3.3901    1.4464    8.8965 C   0  0  0  0  0  0  0  0  0  0  0  0
   -3.9695    0.8451    7.9420 O   0  0  0  0  0  0  0  0  0  0  0  0
   -2.0754    1.0091    9.2189 N   0  0  0  0  0  0  0  0  0  0  0  0
   -1.5636    1.4774    9.9929 H   0  0  0  0  0  0  0  0  0  0  0  0
   -1.4147   -0.0544    8.5041 C   0  0  0  0  0  0  0  0  0  0  0  0
   -0.3825   -0.8020    9.2615 C   0  0  0  0  0  0  0  0  0  0  0  0
   -0.1023   -2.1075    8.7235 N   0  0  0  0  0  0  0  0  0  0  0  0
   -1.1818   -2.9171    8.3536 C   0  0  0  0  0  0  0  0  0  0  0  0
   -1.5102   -4.0380    9.2903 C   0  0  0  0  0  0  0  0  0  0  0  0
   -0.3705   -4.4205   10.1968 C   0  0  0  0  0  0  0  0  0  0  0  0
    0.9510   -4.1357    9.5740 C   0  0  0  0  0  0  0  0  0  0  0  0
    1.0721   -2.6996    9.2347 C   0  0  0  0  0  0  0  0  0  0  0  0
 28 29  1  0  0  0
 29  7  1  0  0  0
  7  8  1  0  0  0
  8  9  2  0  0  0
  9 10  1  0  0  0
 10 11  2  0  0  0
 11 14  1  0  0  0
 14 15  1  0  0  0
 15 16  2  0  0  0
 15 17  1  0  0  0
 17 20  1  0  0  0
 20 21  2  0  0  0
 21 22  1  0  0  0
 21 23  1  0  0  0
 23 24  2  0  0  0
 24 25  1  0  0  0
 25 26  2  0  0  0
 26 27  1  0  0  0
 11 12  1  0  0  0
 12 13  2  0  0  0
  9  1  1  0  0  0
  1  2  2  0  0  0
  2  3  1  0  0  0
  3  4  2  0  0  0
  4  5  1  0  0  0
  5  6  2  0  0  0
  5 30  1  0  0  0
 30 31  2  0  0  0
 31 32  1  0  0  0
 32 33  2  0  0  0
 33 34  1  0  0  0
 34 35  2  0  0  0
 34 36  1  0  0  0
 36 37  2  0  0  0
 36 38  1  0  0  0
 38 40  1  0  0  0
 40 41  1  0  0  0
 41 42  1  0  0  0
 42 43  1  0  0  0
 43 44  1  0  0  0
 44 45  1  0  0  0
 45 46  1  0  0  0
 46 47  1  0  0  0
 12  7  1  0  0  0
  6  1  1  0  0  0
 35 30  1  0  0  0
 47 42  1  0  0  0
 26 20  1  0  0  0
 14 18  1  0  0  0
 17 19  1  0  0  0
 38 39  1  0  0  0
M  END
> <minimizedAffinity>
-9.03134

> <CNNscore>
0.1480851620

> <CNNaffinity>
6.5669569969

> <CNN_VS>
0.9724689126

> <CNNaffinity_variance>
0.1941691190

$$$$
[H]c1nc([H])c(Cl)c(N([H])C(=O)N([H])c2c([H])c(-c3c([H])c([H])c([H])c(-c4c([H])c([H])c([H])c(C(=O)N([H])C([H])([H])C([H])([H])N5C([H])([H])C([H])([H])C([H])([H])C([H])([H])C5([H])[H])c4[H])c3[H])nn(C([H])([H])C([H])([H])[H])c2=O)c1Cl


 47 51  0  0  0  0  0  0  0  0999 V2000
    3.0585    2.9647   11.9941 C   0  0  0  0  0  0  0  0  0  0  0  0
    3.5272    4.2342   11.9520 C   0  0  0  0  0  0  0  0  0  0  0  0
    3.8875    4.8547   13.1535 C   0  0  0  0  0  0  0  0  0  0  0  0
    3.7689    4.1806   14.3726 C   0  0  0  0  0  0  0  0  0  0  0  0
    3.3006    2.9139   14.3800 C   0  0  0  0  0  0  0  0  0  0  0  0
    2.9403    2.2973   13.2129 C   0  0  0  0  0  0  0  0  0  0  0  0
    3.4143    1.2695    8.7463 N   0  0  0  0  0  0  0  0  0  0  0  0
    3.6766    1.9202    9.8673 N   0  0  0  0  0  0  0  0  0  0  0  0
    2.7496    2.1250   10.8135 C   0  0  0  0  0  0  0  0  0  0  0  0
    1.4800    1.6289   10.5891 C   0  0  0  0  0  0  0  0  0  0  0  0
    1.1485    0.9372    9.4178 C   0  0  0  0  0  0  0  0  0  0  0  0
    2.2097    0.7807    8.4906 C   0  0  0  0  0  0  0  0  0  0  0  0
    1.9660    0.1588    7.4143 O   0  0  0  0  0  0  0  0  0  0  0  0
   -0.0990    0.5151    9.0179 N   0  0  0  0  0  0  0  0  0  0  0  0
   -0.6111   -0.8411    9.1680 C   0  0  0  0  0  0  0  0  0  0  0  0
    0.2311   -1.6299    9.6854 O   0  0  0  0  0  0  0  0  0  0  0  0
   -1.8430   -1.1546    8.7962 N   0  0  0  0  0  0  0  0  0  0  0  0
   -0.7662    1.2245    8.5652 H   0  0  0  0  0  0  0  0  0  0  0  0
   -1.6658   -2.4481    9.2514 H   0  0  0  0  0  0  0  0  0  0  0  0
   -3.1323   -1.5663    8.4312 C   0  0  0  0  0  0  0  0  0  0  0  0
   -4.2243   -0.7566    8.6887 C   0  0  0  0  0  0  0  0  0  0  0  0
   -3.9619    0.7527    9.5529 Cl  0  0  0  0  0  0  0  0  0  0  0  0
   -5.4904   -1.0897    8.3222 C   0  0  0  0  0  0  0  0  0  0  0  0
   -5.7184   -2.2790    7.6699 N   0  0  0  0  0  0  0  0  0  0  0  0
   -4.6596   -3.0974    7.4051 C   0  0  0  0  0  0  0  0  0  0  0  0
   -3.3929   -2.7582    7.7730 C   0  0  0  0  0  0  0  0  0  0  0  0
   -2.0601   -3.8230    7.4198 Cl  0  0  0  0  0  0  0  0  0  0  0  0
    5.0643    2.3772    7.3155 C   0  0  0  0  0  0  0  0  0  0  0  0
    4.5037    1.0688    7.7700 C   0  0  0  0  0  0  0  0  0  0  0  0
    3.2653    2.1186   15.6013 C   0  0  0  0  0  0  0  0  0  0  0  0
    2.5052    0.9567   15.6264 C   0  0  0  0  0  0  0  0  0  0  0  0
    2.4701    0.1584   16.7539 C   0  0  0  0  0  0  0  0  0  0  0  0
    3.1699    0.4734   17.8716 C   0  0  0  0  0  0  0  0  0  0  0  0
    3.9580    1.6564   17.8765 C   0  0  0  0  0  0  0  0  0  0  0  0
    3.9755    2.4302   16.7481 C   0  0  0  0  0  0  0  0  0  0  0  0
    4.6770    1.9693   19.0990 C   0  0  0  0  0  0  0  0  0  0  0  0
    5.2456    3.0952   19.2307 O   0  0  0  0  0  0  0  0  0  0  0  0
    4.7780    1.0734   20.1994 N   0  0  0  0  0  0  0  0  0  0  0  0
    4.3234    0.1409   20.1341 H   0  0  0  0  0  0  0  0  0  0  0  0
    5.4780    1.4119   21.4134 C   0  0  0  0  0  0  0  0  0  0  0  0
    4.6346    1.8761   22.5410 C   0  0  0  0  0  0  0  0  0  0  0  0
    4.9939    3.1801   23.0335 N   0  0  0  0  0  0  0  0  0  0  0  0
    3.9658    4.0652   23.3757 C   0  0  0  0  0  0  0  0  0  0  0  0
    3.7026    5.1709   22.4012 C   0  0  0  0  0  0  0  0  0  0  0  0
    4.8608    5.4530   21.4813 C   0  0  0  0  0  0  0  0  0  0  0  0
    6.1646    5.1111   22.1128 C   0  0  0  0  0  0  0  0  0  0  0  0
    6.2003    3.6828   22.5015 C   0  0  0  0  0  0  0  0  0  0  0  0
 28 29  1  0  0  0
 29  7  1  0  0  0
  7  8  1  0  0  0
  8  9  2  0  0  0
  9 10  1  0  0  0
 10 11  2  0  0  0
 11 14  1  0  0  0
 14 15  1  0  0  0
 15 16  2  0  0  0
 15 17  1  0  0  0
 17 20  1  0  0  0
 20 21  2  0  0  0
 21 22  1  0  0  0
 21 23  1  0  0  0
 23 24  2  0  0  0
 24 25  1  0  0  0
 25 26  2  0  0  0
 26 27  1  0  0  0
 11 12  1  0  0  0
 12 13  2  0  0  0
  9  1  1  0  0  0
  1  2  2  0  0  0
  2  3  1  0  0  0
  3  4  2  0  0  0
  4  5  1  0  0  0
  5  6  2  0  0  0
  5 30  1  0  0  0
 30 31  2  0  0  0
 31 32  1  0  0  0
 32 33  2  0  0  0
 33 34  1  0  0  0
 34 35  2  0  0  0
 34 36  1  0  0  0
 36 37  2  0  0  0
 36 38  1  0  0  0
 38 40  1  0  0  0
 40 41  1  0  0  0
 41 42  1  0  0  0
 42 43  1  0  0  0
 43 44  1  0  0  0
 44 45  1  0  0  0
 45 46  1  0  0  0
 46 47  1  0  0  0
 12  7  1  0  0  0
  6  1  1  0  0  0
 35 30  1  0  0  0
 47 42  1  0  0  0
 26 20  1  0  0  0
 14 18  1  0  0  0
 17 19  1  0  0  0
 38 39  1  0  0  0
M  END
> <minimizedAffinity>
-8.80632

> <CNNscore>
0.1435671747

> <CNNaffinity>
6.4517965317

> <CNN_VS>
0.9262661934

> <CNNaffinity_variance>
0.2835147977

$$$$
[H]c1nc([H])c(Cl)c(N([H])C(=O)N([H])c2c([H])c(-c3c([H])c([H])c([H])c(-c4c([H])c([H])c([H])c(C(=O)N([H])C([H])([H])C([H])([H])N5C([H])([H])C([H])([H])C([H])([H])C([H])([H])C5([H])[H])c4[H])c3[H])nn(C([H])([H])C([H])([H])[H])c2=O)c1Cl


 47 51  0  0  0  0  0  0  0  0999 V2000
    3.3550    3.7134   12.1130 C   0  0  0  0  0  0  0  0  0  0  0  0
    2.3598    2.9897   11.5484 C   0  0  0  0  0  0  0  0  0  0  0  0
    1.6943    2.0409   12.3328 C   0  0  0  0  0  0  0  0  0  0  0  0
    2.0461    1.8431   13.6715 C   0  0  0  0  0  0  0  0  0  0  0  0
    3.0415    2.5834   14.2054 C   0  0  0  0  0  0  0  0  0  0  0  0
    3.7034    3.5110   13.4481 C   0  0  0  0  0  0  0  0  0  0  0  0
    3.9959    6.7470   10.1293 N   0  0  0  0  0  0  0  0  0  0  0  0
    3.3942    5.7883   10.8131 N   0  0  0  0  0  0  0  0  0  0  0  0
    4.0742    4.8345   11.4647 C   0  0  0  0  0  0  0  0  0  0  0  0
    5.4539    4.8739   11.4069 C   0  0  0  0  0  0  0  0  0  0  0  0
    6.1400    5.8640   10.6934 C   0  0  0  0  0  0  0  0  0  0  0  0
    5.3162    6.8192   10.0459 C   0  0  0  0  0  0  0  0  0  0  0  0
    5.8853    7.7403    9.3885 O   0  0  0  0  0  0  0  0  0  0  0  0
    7.4925    5.9359   10.4486 N   0  0  0  0  0  0  0  0  0  0  0  0
    8.4197    6.8294   11.1314 C   0  0  0  0  0  0  0  0  0  0  0  0
    7.8485    7.5805   11.9733 O   0  0  0  0  0  0  0  0  0  0  0  0
    9.7173    6.8042   10.8670 N   0  0  0  0  0  0  0  0  0  0  0  0
    7.9206    5.2875    9.7073 H   0  0  0  0  0  0  0  0  0  0  0  0
    9.9466    7.7665   11.8331 H   0  0  0  0  0  0  0  0  0  0  0  0
   11.1014    6.8382   10.6474 C   0  0  0  0  0  0  0  0  0  0  0  0
   11.9405    7.4449   11.5651 C   0  0  0  0  0  0  0  0  0  0  0  0
   11.2213    8.2372   12.9610 Cl  0  0  0  0  0  0  0  0  0  0  0  0
   13.2921    7.4730   11.4205 C   0  0  0  0  0  0  0  0  0  0  0  0
   13.8703    6.8824   10.3210 N   0  0  0  0  0  0  0  0  0  0  0  0
   13.0658    6.2787    9.3994 C   0  0  0  0  0  0  0  0  0  0  0  0
   11.7125    6.2519    9.5498 C   0  0  0  0  0  0  0  0  0  0  0  0
   10.7107    5.4718    8.3570 Cl  0  0  0  0  0  0  0  0  0  0  0  0
    1.8202    7.8705   10.1016 C   0  0  0  0  0  0  0  0  0  0  0  0
    3.1673    7.7712    9.4626 C   0  0  0  0  0  0  0  0  0  0  0  0
    3.3747    2.5084   15.6226 C   0  0  0  0  0  0  0  0  0  0  0  0
    3.5152    1.2609   16.2162 C   0  0  0  0  0  0  0  0  0  0  0  0
    3.8611    1.1466   17.5493 C   0  0  0  0  0  0  0  0  0  0  0  0
    4.0757    2.2372   18.3254 C   0  0  0  0  0  0  0  0  0  0  0  0
    3.9400    3.5283   17.7464 C   0  0  0  0  0  0  0  0  0  0  0  0
    3.5961    3.6149   16.4248 C   0  0  0  0  0  0  0  0  0  0  0  0
    4.1588    4.6713   18.6154 C   0  0  0  0  0  0  0  0  0  0  0  0
    3.1745    5.2363   19.1813 O   0  0  0  0  0  0  0  0  0  0  0  0
    5.4464    5.2085   18.8935 N   0  0  0  0  0  0  0  0  0  0  0  0
    6.2807    4.7730   18.4525 H   0  0  0  0  0  0  0  0  0  0  0  0
    5.6442    6.3305   19.7770 C   0  0  0  0  0  0  0  0  0  0  0  0
    6.6793    6.1572   20.8243 C   0  0  0  0  0  0  0  0  0  0  0  0
    6.2010    5.4864   22.0048 N   0  0  0  0  0  0  0  0  0  0  0  0
    6.7467    4.2383   22.3243 C   0  0  0  0  0  0  0  0  0  0  0  0
    5.8809    3.0518   22.0341 C   0  0  0  0  0  0  0  0  0  0  0  0
    4.4182    3.3874   21.9124 C   0  0  0  0  0  0  0  0  0  0  0  0
    4.0549    4.5800   22.7255 C   0  0  0  0  0  0  0  0  0  0  0  0
    4.8511    5.7582   22.3129 C   0  0  0  0  0  0  0  0  0  0  0  0
 28 29  1  0  0  0
 29  7  1  0  0  0
  7  8  1  0  0  0
  8  9  2  0  0  0
  9 10  1  0  0  0
 10 11  2  0  0  0
 11 14  1  0  0  0
 14 15  1  0  0  0
 15 16  2  0  0  0
 15 17  1  0  0  0
 17 20  1  0  0  0
 20 21  2  0  0  0
 21 22  1  0  0  0
 21 23  1  0  0  0
 23 24  2  0  0  0
 24 25  1  0  0  0
 25 26  2  0  0  0
 26 27  1  0  0  0
 11 12  1  0  0  0
 12 13  2  0  0  0
  9  1  1  0  0  0
  1  2  2  0  0  0
  2  3  1  0  0  0
  3  4  2  0  0  0
  4  5  1  0  0  0
  5  6  2  0  0  0
  5 30  1  0  0  0
 30 31  2  0  0  0
 31 32  1  0  0  0
 32 33  2  0  0  0
 33 34  1  0  0  0
 34 35  2  0  0  0
 34 36  1  0  0  0
 36 37  2  0  0  0
 36 38  1  0  0  0
 38 40  1  0  0  0
 40 41  1  0  0  0
 41 42  1  0  0  0
 42 43  1  0  0  0
 43 44  1  0  0  0
 44 45  1  0  0  0
 45 46  1  0  0  0
 46 47  1  0  0  0
 12  7  1  0  0  0
  6  1  1  0  0  0
 35 30  1  0  0  0
 47 42  1  0  0  0
 26 20  1  0  0  0
 14 18  1  0  0  0
 17 19  1  0  0  0
 38 39  1  0  0  0
M  END
> <minimizedAffinity>
-9.61059

> <CNNscore>
0.1196613163

> <CNNaffinity>
6.5624527931

> <CNN_VS>
0.7852717638

> <CNNaffinity_variance>
0.2460375130

$$$$
[H]c1nc([H])c(Cl)c(N([H])C(=O)N([H])c2c([H])c(-c3c([H])c([H])c([H])c(-c4c([H])c([H])c([H])c(C(=O)N([H])C([H])([H])C([H])([H])N5C([H])([H])C([H])([H])C([H])([H])C([H])([H])C5([H])[H])c4[H])c3[H])nn(C([H])([H])C([H])([H])[H])c2=O)c1Cl


 47 51  0  0  0  0  0  0  0  0999 V2000
    3.1176    2.4072   15.2479 C   0  0  0  0  0  0  0  0  0  0  0  0
    2.9117    1.0871   15.4671 C   0  0  0  0  0  0  0  0  0  0  0  0
    3.2436    0.5569   16.7189 C   0  0  0  0  0  0  0  0  0  0  0  0
    3.7750    1.3704   17.7243 C   0  0  0  0  0  0  0  0  0  0  0  0
    3.9655    2.6839   17.4745 C   0  0  0  0  0  0  0  0  0  0  0  0
    3.6497    3.2140   16.2533 C   0  0  0  0  0  0  0  0  0  0  0  0
    3.1813    4.8040   12.4550 N   0  0  0  0  0  0  0  0  0  0  0  0
    3.5402    4.0426   13.4749 N   0  0  0  0  0  0  0  0  0  0  0  0
    2.7114    3.1480   14.0311 C   0  0  0  0  0  0  0  0  0  0  0  0
    1.4399    3.0333   13.5033 C   0  0  0  0  0  0  0  0  0  0  0  0
    1.0081    3.8184   12.4275 C   0  0  0  0  0  0  0  0  0  0  0  0
    1.9709    4.7279   11.9215 C   0  0  0  0  0  0  0  0  0  0  0  0
    1.6343    5.4609   10.9449 O   0  0  0  0  0  0  0  0  0  0  0  0
   -0.2619    3.8954   11.9023 N   0  0  0  0  0  0  0  0  0  0  0  0
   -1.2922    4.8294   12.3385 C   0  0  0  0  0  0  0  0  0  0  0  0
   -0.9152    5.5652   13.2954 O   0  0  0  0  0  0  0  0  0  0  0  0
   -2.4773    4.8684   11.7484 N   0  0  0  0  0  0  0  0  0  0  0  0
   -0.5339    3.2312   11.1035 H   0  0  0  0  0  0  0  0  0  0  0  0
   -2.8606    5.9221   12.5576 H   0  0  0  0  0  0  0  0  0  0  0  0
   -3.7527    4.9747   11.1765 C   0  0  0  0  0  0  0  0  0  0  0  0
   -4.6663    5.8896   11.6691 C   0  0  0  0  0  0  0  0  0  0  0  0
   -4.2160    6.8492   13.0727 Cl  0  0  0  0  0  0  0  0  0  0  0  0
   -5.9018    6.0604   11.1282 C   0  0  0  0  0  0  0  0  0  0  0  0
   -6.2815    5.2993   10.0472 N   0  0  0  0  0  0  0  0  0  0  0  0
   -5.4007    4.3880    9.5426 C   0  0  0  0  0  0  0  0  0  0  0  0
   -4.1635    4.2220   10.0872 C   0  0  0  0  0  0  0  0  0  0  0  0
   -3.0592    3.0513    9.4200 Cl  0  0  0  0  0  0  0  0  0  0  0  0
    4.2719    6.9800   12.7246 C   0  0  0  0  0  0  0  0  0  0  0  0
    4.1683    5.7452   11.8893 C   0  0  0  0  0  0  0  0  0  0  0  0
    4.4035    3.6049   18.5162 C   0  0  0  0  0  0  0  0  0  0  0  0
    4.9664    3.0902   19.6767 C   0  0  0  0  0  0  0  0  0  0  0  0
    5.4229    3.9304   20.6745 C   0  0  0  0  0  0  0  0  0  0  0  0
    5.3410    5.2791   20.5627 C   0  0  0  0  0  0  0  0  0  0  0  0
    4.7701    5.8362   19.3861 C   0  0  0  0  0  0  0  0  0  0  0  0
    4.3249    4.9832   18.4132 C   0  0  0  0  0  0  0  0  0  0  0  0
    4.6824    7.2841   19.3129 C   0  0  0  0  0  0  0  0  0  0  0  0
    5.7274    7.9909   19.4425 O   0  0  0  0  0  0  0  0  0  0  0  0
    3.4653    7.9845   19.0850 N   0  0  0  0  0  0  0  0  0  0  0  0
    2.5856    7.4429   18.9700 H   0  0  0  0  0  0  0  0  0  0  0  0
    3.4031    9.4219   18.9937 C   0  0  0  0  0  0  0  0  0  0  0  0
    3.5083    9.9906   17.6284 C   0  0  0  0  0  0  0  0  0  0  0  0
    3.4175   11.4267   17.5915 N   0  0  0  0  0  0  0  0  0  0  0  0
    4.5871   12.1585   17.3592 C   0  0  0  0  0  0  0  0  0  0  0  0
    5.1866   12.8311   18.5549 C   0  0  0  0  0  0  0  0  0  0  0  0
    4.2139   13.0291   19.6869 C   0  0  0  0  0  0  0  0  0  0  0  0
    2.8145   13.1604   19.1970 C   0  0  0  0  0  0  0  0  0  0  0  0
    2.4138   11.9606   18.4274 C   0  0  0  0  0  0  0  0  0  0  0  0
 28 29  1  0  0  0
 29  7  1  0  0  0
  7  8  1  0  0  0
  8  9  2  0  0  0
  9 10  1  0  0  0
 10 11  2  0  0  0
 11 14  1  0  0  0
 14 15  1  0  0  0
 15 16  2  0  0  0
 15 17  1  0  0  0
 17 20  1  0  0  0
 20 21  2  0  0  0
 21 22  1  0  0  0
 21 23  1  0  0  0
 23 24  2  0  0  0
 24 25  1  0  0  0
 25 26  2  0  0  0
 26 27  1  0  0  0
 11 12  1  0  0  0
 12 13  2  0  0  0
  9  1  1  0  0  0
  1  2  2  0  0  0
  2  3  1  0  0  0
  3  4  2  0  0  0
  4  5  1  0  0  0
  5  6  2  0  0  0
  5 30  1  0  0  0
 30 31  2  0  0  0
 31 32  1  0  0  0
 32 33  2  0  0  0
 33 34  1  0  0  0
 34 35  2  0  0  0
 34 36  1  0  0  0
 36 37  2  0  0  0
 36 38  1  0  0  0
 38 40  1  0  0  0
 40 41  1  0  0  0
 41 42  1  0  0  0
 42 43  1  0  0  0
 43 44  1  0  0  0
 44 45  1  0  0  0
 45 46  1  0  0  0
 46 47  1  0  0  0
 12  7  1  0  0  0
  6  1  1  0  0  0
 35 30  1  0  0  0
 47 42  1  0  0  0
 26 20  1  0  0  0
 14 18  1  0  0  0
 17 19  1  0  0  0
 38 39  1  0  0  0
M  END
> <minimizedAffinity>
-10.52515

> <CNNscore>
0.1007976234

> <CNNaffinity>
6.7096643448

> <CNN_VS>
0.6763182282

> <CNNaffinity_variance>
0.3347691894

$$$$
[H]c1nc([H])c(Cl)c(N([H])C(=O)N([H])c2c([H])c(-c3c([H])c([H])c([H])c(-c4c([H])c([H])c([H])c(C(=O)N([H])C([H])([H])C([H])([H])N5C([H])([H])C([H])([H])C([H])([H])C([H])([H])C5([H])[H])c4[H])c3[H])nn(C([H])([H])C([H])([H])[H])c2=O)c1Cl


 47 51  0  0  0  0  0  0  0  0999 V2000
    1.9361    1.7462   11.0478 C   0  0  0  0  0  0  0  0  0  0  0  0
    3.1504    1.5226   10.4924 C   0  0  0  0  0  0  0  0  0  0  0  0
    3.2653    0.5315    9.5111 C   0  0  0  0  0  0  0  0  0  0  0  0
    2.1517   -0.2125    9.1094 C   0  0  0  0  0  0  0  0  0  0  0  0
    0.9539    0.0372    9.6811 C   0  0  0  0  0  0  0  0  0  0  0  0
    0.8289    1.0001   10.6451 C   0  0  0  0  0  0  0  0  0  0  0  0
    0.5448    4.8593   12.4338 N   0  0  0  0  0  0  0  0  0  0  0  0
    0.7756    3.8148   11.6562 N   0  0  0  0  0  0  0  0  0  0  0  0
    1.6173    2.8314   12.0043 C   0  0  0  0  0  0  0  0  0  0  0  0
    2.2561    2.9327   13.2250 C   0  0  0  0  0  0  0  0  0  0  0  0
    2.0509    4.0195   14.0834 C   0  0  0  0  0  0  0  0  0  0  0  0
    1.1389    4.9965   13.6100 C   0  0  0  0  0  0  0  0  0  0  0  0
    0.9130    6.0001   14.3491 O   0  0  0  0  0  0  0  0  0  0  0  0
    2.7203    4.3028   15.2522 N   0  0  0  0  0  0  0  0  0  0  0  0
    2.6883    3.4802   16.4549 C   0  0  0  0  0  0  0  0  0  0  0  0
    1.9410    2.4668   16.3375 O   0  0  0  0  0  0  0  0  0  0  0  0
    3.3989    3.8018   17.5254 N   0  0  0  0  0  0  0  0  0  0  0  0
    3.3250    5.1889   15.3019 H   0  0  0  0  0  0  0  0  0  0  0  0
    2.9704    2.6565   18.1706 H   0  0  0  0  0  0  0  0  0  0  0  0
    4.1217    4.0706   18.6960 C   0  0  0  0  0  0  0  0  0  0  0  0
    4.5805    3.0332   19.4884 C   0  0  0  0  0  0  0  0  0  0  0  0
    4.1648    1.3858   19.0340 Cl  0  0  0  0  0  0  0  0  0  0  0  0
    5.3181    3.2362   20.6123 C   0  0  0  0  0  0  0  0  0  0  0  0
    5.6296    4.5192   20.9983 N   0  0  0  0  0  0  0  0  0  0  0  0
    5.1880    5.5608   20.2360 C   0  0  0  0  0  0  0  0  0  0  0  0
    4.4509    5.3519   19.1101 C   0  0  0  0  0  0  0  0  0  0  0  0
    3.9022    6.7021   18.1556 Cl  0  0  0  0  0  0  0  0  0  0  0  0
    0.0735    6.5732   10.7493 C   0  0  0  0  0  0  0  0  0  0  0  0
   -0.4176    5.8833   11.9805 C   0  0  0  0  0  0  0  0  0  0  0  0
   -0.2640   -0.6200    9.2229 C   0  0  0  0  0  0  0  0  0  0  0  0
   -0.2526   -1.9939    9.0211 C   0  0  0  0  0  0  0  0  0  0  0  0
   -1.3947   -2.6592    8.6175 C   0  0  0  0  0  0  0  0  0  0  0  0
   -2.5625   -2.0045    8.4039 C   0  0  0  0  0  0  0  0  0  0  0  0
   -2.6061   -0.5976    8.6027 C   0  0  0  0  0  0  0  0  0  0  0  0
   -1.4619    0.0380    9.0017 C   0  0  0  0  0  0  0  0  0  0  0  0
   -3.8699    0.0699    8.3447 C   0  0  0  0  0  0  0  0  0  0  0  0
   -4.8113   -0.5541    7.7677 O   0  0  0  0  0  0  0  0  0  0  0  0
   -4.1355    1.4161    8.7198 N   0  0  0  0  0  0  0  0  0  0  0  0
   -3.3919    1.9626    9.1981 H   0  0  0  0  0  0  0  0  0  0  0  0
   -5.4051    2.0535    8.4743 C   0  0  0  0  0  0  0  0  0  0  0  0
   -5.9138    2.9262    9.5596 C   0  0  0  0  0  0  0  0  0  0  0  0
   -5.1643    4.1445    9.7214 N   0  0  0  0  0  0  0  0  0  0  0  0
   -4.6191    4.4247   10.9791 C   0  0  0  0  0  0  0  0  0  0  0  0
   -5.3310    5.4677   11.7835 C   0  0  0  0  0  0  0  0  0  0  0  0
   -6.1961    6.3813   10.9565 C   0  0  0  0  0  0  0  0  0  0  0  0
   -5.6811    6.5228    9.5672 C   0  0  0  0  0  0  0  0  0  0  0  0
   -5.6048    5.2035    8.8994 C   0  0  0  0  0  0  0  0  0  0  0  0
 28 29  1  0  0  0
 29  7  1  0  0  0
  7  8  1  0  0  0
  8  9  2  0  0  0
  9 10  1  0  0  0
 10 11  2  0  0  0
 11 14  1  0  0  0
 14 15  1  0  0  0
 15 16  2  0  0  0
 15 17  1  0  0  0
 17 20  1  0  0  0
 20 21  2  0  0  0
 21 22  1  0  0  0
 21 23  1  0  0  0
 23 24  2  0  0  0
 24 25  1  0  0  0
 25 26  2  0  0  0
 26 27  1  0  0  0
 11 12  1  0  0  0
 12 13  2  0  0  0
  9  1  1  0  0  0
  1  2  2  0  0  0
  2  3  1  0  0  0
  3  4  2  0  0  0
  4  5  1  0  0  0
  5  6  2  0  0  0
  5 30  1  0  0  0
 30 31  2  0  0  0
 31 32  1  0  0  0
 32 33  2  0  0  0
 33 34  1  0  0  0
 34 35  2  0  0  0
 34 36  1  0  0  0
 36 37  2  0  0  0
 36 38  1  0  0  0
 38 40  1  0  0  0
 40 41  1  0  0  0
 41 42  1  0  0  0
 42 43  1  0  0  0
 43 44  1  0  0  0
 44 45  1  0  0  0
 45 46  1  0  0  0
 46 47  1  0  0  0
 12  7  1  0  0  0
  6  1  1  0  0  0
 35 30  1  0  0  0
 47 42  1  0  0  0
 26 20  1  0  0  0
 14 18  1  0  0  0
 17 19  1  0  0  0
 38 39  1  0  0  0
M  END
> <minimizedAffinity>
-8.46253

> <CNNscore>
0.0910030156

> <CNNaffinity>
6.6736855507

> <CNN_VS>
0.6073254943

> <CNNaffinity_variance>
0.0910192505

$$$$
[H]c1nc([H])c(Cl)c(N([H])C(=O)N([H])c2c([H])c(-c3c([H])c([H])c([H])c(-c4c([H])c([H])c([H])c(C(=O)N([H])C([H])([H])C([H])([H])N5C([H])([H])C([H])([H])C([H])([H])C([H])([H])C5([H])[H])c4[H])c3[H])nn(C([H])([H])C([H])([H])[H])c2=O)c1Cl


 47 51  0  0  0  0  0  0  0  0999 V2000
    2.0864    3.4535   12.3131 C   0  0  0  0  0  0  0  0  0  0  0  0
    2.9877    4.4297   12.0531 C   0  0  0  0  0  0  0  0  0  0  0  0
    3.9583    4.7190   13.0189 C   0  0  0  0  0  0  0  0  0  0  0  0
    4.0001    4.0157   14.2267 C   0  0  0  0  0  0  0  0  0  0  0  0
    3.0884    3.0458   14.4540 C   0  0  0  0  0  0  0  0  0  0  0  0
    2.1312    2.7563   13.5201 C   0  0  0  0  0  0  0  0  0  0  0  0
    0.3353    1.2134    9.9755 N   0  0  0  0  0  0  0  0  0  0  0  0
    1.1476    1.6809   10.9086 N   0  0  0  0  0  0  0  0  0  0  0  0
    1.0768    2.9418   11.3575 C   0  0  0  0  0  0  0  0  0  0  0  0
    0.1118    3.7663   10.8120 C   0  0  0  0  0  0  0  0  0  0  0  0
   -0.7696    3.3228    9.8187 C   0  0  0  0  0  0  0  0  0  0  0  0
   -0.6011    1.9714    9.4243 C   0  0  0  0  0  0  0  0  0  0  0  0
   -1.3752    1.5165    8.5307 O   0  0  0  0  0  0  0  0  0  0  0  0
   -1.6761    4.0742    9.1058 N   0  0  0  0  0  0  0  0  0  0  0  0
   -3.0138    4.4273    9.5640 C   0  0  0  0  0  0  0  0  0  0  0  0
   -3.2898    3.9394   10.6975 O   0  0  0  0  0  0  0  0  0  0  0  0
   -3.8093    5.1938    8.8333 N   0  0  0  0  0  0  0  0  0  0  0  0
   -1.3946    4.4460    8.1384 H   0  0  0  0  0  0  0  0  0  0  0  0
   -4.7738    5.1600    9.8236 H   0  0  0  0  0  0  0  0  0  0  0  0
   -4.7097    6.0002    8.1232 C   0  0  0  0  0  0  0  0  0  0  0  0
   -6.0518    5.6684    8.0673 C   0  0  0  0  0  0  0  0  0  0  0  0
   -6.5779    4.1763    8.8357 Cl  0  0  0  0  0  0  0  0  0  0  0  0
   -6.9733    6.4347    7.4255 C   0  0  0  0  0  0  0  0  0  0  0  0
   -6.5756    7.5910    6.7954 N   0  0  0  0  0  0  0  0  0  0  0  0
   -5.2576    7.9406    6.8334 C   0  0  0  0  0  0  0  0  0  0  0  0
   -4.3387    7.1703    7.4791 C   0  0  0  0  0  0  0  0  0  0  0  0
   -2.6624    7.6434    7.5121 Cl  0  0  0  0  0  0  0  0  0  0  0  0
    1.8852   -0.5207    9.2089 C   0  0  0  0  0  0  0  0  0  0  0  0
    0.4690   -0.1968    9.5590 C   0  0  0  0  0  0  0  0  0  0  0  0
    3.1519    2.1990   15.6389 C   0  0  0  0  0  0  0  0  0  0  0  0
    2.4616    0.9940   15.6431 C   0  0  0  0  0  0  0  0  0  0  0  0
    2.5215    0.1481   16.7343 C   0  0  0  0  0  0  0  0  0  0  0  0
    3.2498    0.4565   17.8354 C   0  0  0  0  0  0  0  0  0  0  0  0
    3.9680    1.6830   17.8611 C   0  0  0  0  0  0  0  0  0  0  0  0
    3.8920    2.5035   16.7686 C   0  0  0  0  0  0  0  0  0  0  0  0
    4.7201    1.9861   19.0660 C   0  0  0  0  0  0  0  0  0  0  0  0
    5.3585    3.0781   19.1581 O   0  0  0  0  0  0  0  0  0  0  0  0
    4.7797    1.1179   20.1912 N   0  0  0  0  0  0  0  0  0  0  0  0
    4.2679    0.2138   20.1585 H   0  0  0  0  0  0  0  0  0  0  0  0
    5.5144    1.4476   21.3871 C   0  0  0  0  0  0  0  0  0  0  0  0
    4.7030    1.8952   22.5445 C   0  0  0  0  0  0  0  0  0  0  0  0
    5.0472    3.2102   23.0182 N   0  0  0  0  0  0  0  0  0  0  0  0
    4.0091    4.1003   23.3141 C   0  0  0  0  0  0  0  0  0  0  0  0
    3.7700    5.1843   22.3094 C   0  0  0  0  0  0  0  0  0  0  0  0
    4.9516    5.4489   21.4145 C   0  0  0  0  0  0  0  0  0  0  0  0
    6.2388    5.1234   22.0873 C   0  0  0  0  0  0  0  0  0  0  0  0
    6.2664    3.7039   22.5075 C   0  0  0  0  0  0  0  0  0  0  0  0
 28 29  1  0  0  0
 29  7  1  0  0  0
  7  8  1  0  0  0
  8  9  2  0  0  0
  9 10  1  0  0  0
 10 11  2  0  0  0
 11 14  1  0  0  0
 14 15  1  0  0  0
 15 16  2  0  0  0
 15 17  1  0  0  0
 17 20  1  0  0  0
 20 21  2  0  0  0
 21 22  1  0  0  0
 21 23  1  0  0  0
 23 24  2  0  0  0
 24 25  1  0  0  0
 25 26  2  0  0  0
 26 27  1  0  0  0
 11 12  1  0  0  0
 12 13  2  0  0  0
  9  1  1  0  0  0
  1  2  2  0  0  0
  2  3  1  0  0  0
  3  4  2  0  0  0
  4  5  1  0  0  0
  5  6  2  0  0  0
  5 30  1  0  0  0
 30 31  2  0  0  0
 31 32  1  0  0  0
 32 33  2  0  0  0
 33 34  1  0  0  0
 34 35  2  0  0  0
 34 36  1  0  0  0
 36 37  2  0  0  0
 36 38  1  0  0  0
 38 40  1  0  0  0
 40 41  1  0  0  0
 41 42  1  0  0  0
 42 43  1  0  0  0
 43 44  1  0  0  0
 44 45  1  0  0  0
 45 46  1  0  0  0
 46 47  1  0  0  0
 12  7  1  0  0  0
  6  1  1  0  0  0
 35 30  1  0  0  0
 47 42  1  0  0  0
 26 20  1  0  0  0
 14 18  1  0  0  0
 17 19  1  0  0  0
 38 39  1  0  0  0
M  END
> <minimizedAffinity>
-9.04536

> <CNNscore>
0.0839369744

> <CNNaffinity>
6.4721689224

> <CNN_VS>
0.5432542562

> <CNNaffinity_variance>
0.2143868208

$$$$
[H]OC(=O)c1c([H])c([H])c(-c2c([H])nc(C([H])([H])[H])nc2OC([H])([H])[C@@]2([H])C([H])([H])[C@]2([H])c2nc([H])c(OC([H])([H])[H])c([H])c2[H])c([H])c1[H]


 30 33  0  0  0  0  0  0  0  0999 V2000
    3.6427    2.9832   17.7752 C   0  0  0  0  0  0  0  0  0  0  0  0
    3.2443    2.8555   16.4881 N   0  0  0  0  0  0  0  0  0  0  0  0
    3.0803    1.6871   15.8583 C   0  0  0  0  0  0  0  0  0  0  0  0
    2.6411    1.5804   14.4424 C   0  0  0  0  0  0  0  0  0  0  0  0
    3.3223    0.5338   16.5307 N   0  0  0  0  0  0  0  0  0  0  0  0
    3.7230    0.5448   17.8152 C   0  0  0  0  0  0  0  0  0  0  0  0
    3.8840    1.7619   18.4394 C   0  0  0  0  0  0  0  0  0  0  0  0
    4.3090    1.8405   19.8270 C   0  0  0  0  0  0  0  0  0  0  0  0
    5.5215    2.2886   20.2667 C   0  0  0  0  0  0  0  0  0  0  0  0
    5.7825    2.2988   21.6270 C   0  0  0  0  0  0  0  0  0  0  0  0
    4.8561    1.8699   22.5649 C   0  0  0  0  0  0  0  0  0  0  0  0
    3.6377    1.4197   22.1229 C   0  0  0  0  0  0  0  0  0  0  0  0
    3.3752    1.4078   20.7778 C   0  0  0  0  0  0  0  0  0  0  0  0
    5.1709    1.8969   23.9896 C   0  0  0  0  0  0  0  0  0  0  0  0
    6.3537    2.4542   24.4134 O   0  0  0  0  0  0  0  0  0  0  0  0
    4.3621    1.4135   24.8073 O   0  0  0  0  0  0  0  0  0  0  0  0
    6.4170    2.9560   25.2946 H   0  0  0  0  0  0  0  0  0  0  0  0
    3.8275    4.0961   18.4590 O   0  0  0  0  0  0  0  0  0  0  0  0
    3.4474    5.3512   18.6947 C   0  0  0  0  0  0  0  0  0  0  0  0
    5.0672    5.8085   20.6846 C   0  0  0  0  0  0  0  0  0  0  0  0
    3.7006    5.3369   21.2253 C   0  0  0  0  0  0  0  0  0  0  0  0
    3.8669    6.0862   19.9129 C   0  0  0  0  0  0  0  0  0  0  0  0
    6.6884    8.8640   23.1658 C   0  0  0  0  0  0  0  0  0  0  0  0
    5.7391    9.1727   22.2185 C   0  0  0  0  0  0  0  0  0  0  0  0
    5.2559    8.1351   21.4485 C   0  0  0  0  0  0  0  0  0  0  0  0
    5.6704    6.8321   21.5805 C   0  0  0  0  0  0  0  0  0  0  0  0
    6.5930    6.5589   22.5075 N   0  0  0  0  0  0  0  0  0  0  0  0
    7.0892    7.5601   23.2829 C   0  0  0  0  0  0  0  0  0  0  0  0
    8.3178    9.6190   24.8387 C   0  0  0  0  0  0  0  0  0  0  0  0
    7.2344    9.8374   23.9883 O   0  0  0  0  0  0  0  0  0  0  0  0
 29 30  1  0  0  0
 30 23  1  0  0  0
 23 24  2  0  0  0
 24 25  1  0  0  0
 25 26  2  0  0  0
 26 27  1  0  0  0
 27 28  2  0  0  0
 26 20  1  0  0  0
 20 21  1  0  0  0
 21 22  1  0  0  0
 22 19  1  0  0  0
 19 18  1  0  0  0
 18  1  1  0  0  0
  1  2  2  0  0  0
  2  3  1  0  0  0
  3  4  1  0  0  0
  3  5  2  0  0  0
  5  6  1  0  0  0
  6  7  2  0  0  0
  7  8  1  0  0  0
  8  9  2  0  0  0
  9 10  1  0  0  0
 10 11  2  0  0  0
 11 12  1  0  0  0
 12 13  2  0  0  0
 11 14  1  0  0  0
 14 15  1  0  0  0
 14 16  2  0  0  0
 28 23  1  0  0  0
 22 20  1  0  0  0
  7  1  1  0  0  0
 13  8  1  0  0  0
 15 17  1  0  0  0
M  END
> <minimizedAffinity>
-8.17085

> <CNNscore>
0.3649143577

> <CNNaffinity>
6.3050160408

> <CNN_VS>
2.3007907867

> <CNNaffinity_variance>
0.1850577742

$$$$
[H]OC(=O)c1c([H])c([H])c(-c2c([H])nc(C([H])([H])[H])nc2OC([H])([H])[C@@]2([H])C([H])([H])[C@]2([H])c2nc([H])c(OC([H])([H])[H])c([H])c2[H])c([H])c1[H]


 30 33  0  0  0  0  0  0  0  0999 V2000
    3.5267    2.4827   10.1665 C   0  0  0  0  0  0  0  0  0  0  0  0
    3.4271    1.1352   10.2436 N   0  0  0  0  0  0  0  0  0  0  0  0
    3.9483    0.2849    9.3525 C   0  0  0  0  0  0  0  0  0  0  0  0
    3.8214   -1.1916    9.4657 C   0  0  0  0  0  0  0  0  0  0  0  0
    4.6293    0.7781    8.2877 N   0  0  0  0  0  0  0  0  0  0  0  0
    4.7887    2.1028    8.1130 C   0  0  0  0  0  0  0  0  0  0  0  0
    4.2417    2.9557    9.0458 C   0  0  0  0  0  0  0  0  0  0  0  0
    4.3841    4.3963    8.9164 C   0  0  0  0  0  0  0  0  0  0  0  0
    5.3768    5.1536    9.4690 C   0  0  0  0  0  0  0  0  0  0  0  0
    5.3748    6.5228    9.2597 C   0  0  0  0  0  0  0  0  0  0  0  0
    4.3995    7.1582    8.5069 C   0  0  0  0  0  0  0  0  0  0  0  0
    3.4021    6.3972    7.9515 C   0  0  0  0  0  0  0  0  0  0  0  0
    3.4001    5.0420    8.1561 C   0  0  0  0  0  0  0  0  0  0  0  0
    4.4339    8.6039    8.3104 C   0  0  0  0  0  0  0  0  0  0  0  0
    5.5270    9.3211    8.7346 O   0  0  0  0  0  0  0  0  0  0  0  0
    3.4700    9.1726    7.7592 O   0  0  0  0  0  0  0  0  0  0  0  0
    5.8566   10.1356    8.2242 H   0  0  0  0  0  0  0  0  0  0  0  0
    3.0392    3.3798   11.0018 O   0  0  0  0  0  0  0  0  0  0  0  0
    2.0803    3.7137   11.8646 C   0  0  0  0  0  0  0  0  0  0  0  0
    2.7258    2.0263   13.7432 C   0  0  0  0  0  0  0  0  0  0  0  0
    1.1917    2.0545   13.5751 C   0  0  0  0  0  0  0  0  0  0  0  0
    2.0879    3.2447   13.2718 C   0  0  0  0  0  0  0  0  0  0  0  0
    3.8910    1.6763   17.8224 C   0  0  0  0  0  0  0  0  0  0  0  0
    4.2652    2.7783   17.0878 C   0  0  0  0  0  0  0  0  0  0  0  0
    3.8539    2.8284   15.7720 C   0  0  0  0  0  0  0  0  0  0  0  0
    3.1023    1.8477   15.1716 C   0  0  0  0  0  0  0  0  0  0  0  0
    2.7523    0.7883   15.9066 N   0  0  0  0  0  0  0  0  0  0  0  0
    3.1421    0.7094   17.2073 C   0  0  0  0  0  0  0  0  0  0  0  0
    3.6152    0.6776   20.0473 C   0  0  0  0  0  0  0  0  0  0  0  0
    4.2553    1.5346   19.1526 O   0  0  0  0  0  0  0  0  0  0  0  0
 29 30  1  0  0  0
 30 23  1  0  0  0
 23 24  2  0  0  0
 24 25  1  0  0  0
 25 26  2  0  0  0
 26 27  1  0  0  0
 27 28  2  0  0  0
 26 20  1  0  0  0
 20 21  1  0  0  0
 21 22  1  0  0  0
 22 19  1  0  0  0
 19 18  1  0  0  0
 18  1  1  0  0  0
  1  2  2  0  0  0
  2  3  1  0  0  0
  3  4  1  0  0  0
  3  5  2  0  0  0
  5  6  1  0  0  0
  6  7  2  0  0  0
  7  8  1  0  0  0
  8  9  2  0  0  0
  9 10  1  0  0  0
 10 11  2  0  0  0
 11 12  1  0  0  0
 12 13  2  0  0  0
 11 14  1  0  0  0
 14 15  1  0  0  0
 14 16  2  0  0  0
 28 23  1  0  0  0
 22 20  1  0  0  0
  7  1  1  0  0  0
 13  8  1  0  0  0
 15 17  1  0  0  0
M  END
> <minimizedAffinity>
-6.12469

> <CNNscore>
0.3010701835

> <CNNaffinity>
5.5479621887

> <CNN_VS>
1.6703259945

> <CNNaffinity_variance>
0.1232755557

$$$$
[H]OC(=O)c1c([H])c([H])c(-c2c([H])nc(C([H])([H])[H])nc2OC([H])([H])[C@@]2([H])C([H])([H])[C@]2([H])c2nc([H])c(OC([H])([H])[H])c([H])c2[H])c([H])c1[H]


 30 33  0  0  0  0  0  0  0  0999 V2000
    3.8873    1.8161   18.5088 C   0  0  0  0  0  0  0  0  0  0  0  0
    3.6301    0.7160   19.2539 N   0  0  0  0  0  0  0  0  0  0  0  0
    3.7158    0.6675   20.5878 C   0  0  0  0  0  0  0  0  0  0  0  0
    3.4264   -0.5576   21.3779 C   0  0  0  0  0  0  0  0  0  0  0  0
    4.0834    1.7825   21.2678 N   0  0  0  0  0  0  0  0  0  0  0  0
    4.3623    2.9320   20.6262 C   0  0  0  0  0  0  0  0  0  0  0  0
    4.2661    2.9539   19.2525 C   0  0  0  0  0  0  0  0  0  0  0  0
    4.5487    4.1660   18.5021 C   0  0  0  0  0  0  0  0  0  0  0  0
    5.7591    4.5158   17.9760 C   0  0  0  0  0  0  0  0  0  0  0  0
    5.8736    5.7119   17.2869 C   0  0  0  0  0  0  0  0  0  0  0  0
    4.8016    6.5726   17.1091 C   0  0  0  0  0  0  0  0  0  0  0  0
    3.5852    6.2211   17.6376 C   0  0  0  0  0  0  0  0  0  0  0  0
    3.4675    5.0385   18.3203 C   0  0  0  0  0  0  0  0  0  0  0  0
    4.9644    7.8241   16.3761 C   0  0  0  0  0  0  0  0  0  0  0  0
    5.9860    7.9496   15.4652 O   0  0  0  0  0  0  0  0  0  0  0  0
    4.1738    8.7663   16.5851 O   0  0  0  0  0  0  0  0  0  0  0  0
    5.8744    8.4972   14.6165 H   0  0  0  0  0  0  0  0  0  0  0  0
    3.8263    1.9378   17.1967 O   0  0  0  0  0  0  0  0  0  0  0  0
    3.1471    1.7098   16.0734 C   0  0  0  0  0  0  0  0  0  0  0  0
    3.0937    2.9133   13.7622 C   0  0  0  0  0  0  0  0  0  0  0  0
    3.8206    3.8020   14.7939 C   0  0  0  0  0  0  0  0  0  0  0  0
    2.7323    2.8078   15.1664 C   0  0  0  0  0  0  0  0  0  0  0  0
    0.6685    5.2416   11.1512 C   0  0  0  0  0  0  0  0  0  0  0  0
    0.1116    4.6288   12.2504 C   0  0  0  0  0  0  0  0  0  0  0  0
    0.9540    3.8895   13.0545 C   0  0  0  0  0  0  0  0  0  0  0  0
    2.2982    3.7391   12.8139 C   0  0  0  0  0  0  0  0  0  0  0  0
    2.8140    4.3441   11.7403 N   0  0  0  0  0  0  0  0  0  0  0  0
    2.0095    5.0805   10.9275 C   0  0  0  0  0  0  0  0  0  0  0  0
   -1.4564    5.8000   10.0573 C   0  0  0  0  0  0  0  0  0  0  0  0
   -0.0958    6.0061   10.2831 O   0  0  0  0  0  0  0  0  0  0  0  0
 29 30  1  0  0  0
 30 23  1  0  0  0
 23 24  2  0  0  0
 24 25  1  0  0  0
 25 26  2  0  0  0
 26 27  1  0  0  0
 27 28  2  0  0  0
 26 20  1  0  0  0
 20 21  1  0  0  0
 21 22  1  0  0  0
 22 19  1  0  0  0
 19 18  1  0  0  0
 18  1  1  0  0  0
  1  2  2  0  0  0
  2  3  1  0  0  0
  3  4  1  0  0  0
  3  5  2  0  0  0
  5  6  1  0  0  0
  6  7  2  0  0  0
  7  8  1  0  0  0
  8  9  2  0  0  0
  9 10  1  0  0  0
 10 11  2  0  0  0
 11 12  1  0  0  0
 12 13  2  0  0  0
 11 14  1  0  0  0
 14 15  1  0  0  0
 14 16  2  0  0  0
 28 23  1  0  0  0
 22 20  1  0  0  0
  7  1  1  0  0  0
 13  8  1  0  0  0
 15 17  1  0  0  0
M  END
> <minimizedAffinity>
-7.11894

> <CNNscore>
0.2630867660

> <CNNaffinity>
5.9473524094

> <CNN_VS>
1.5646697283

> <CNNaffinity_variance>
0.2694835365

$$$$
[H]OC(=O)c1c([H])c([H])c(-c2c([H])nc(C([H])([H])[H])nc2OC([H])([H])[C@@]2([H])C([H])([H])[C@]2([H])c2nc([H])c(OC([H])([H])[H])c([H])c2[H])c([H])c1[H]


 30 33  0  0  0  0  0  0  0  0999 V2000
    4.7337    2.7460   20.1597 C   0  0  0  0  0  0  0  0  0  0  0  0
    4.3204    1.4592   20.0898 N   0  0  0  0  0  0  0  0  0  0  0  0
    3.7964    0.7753   21.1127 C   0  0  0  0  0  0  0  0  0  0  0  0
    3.3515   -0.6386   21.0036 C   0  0  0  0  0  0  0  0  0  0  0  0
    3.6572    1.3876   22.3154 N   0  0  0  0  0  0  0  0  0  0  0  0
    4.0357    2.6661   22.4964 C   0  0  0  0  0  0  0  0  0  0  0  0
    4.5722    3.3469   21.4261 C   0  0  0  0  0  0  0  0  0  0  0  0
    4.9949    4.7314   21.5560 C   0  0  0  0  0  0  0  0  0  0  0  0
    4.2684    5.8264   21.1855 C   0  0  0  0  0  0  0  0  0  0  0  0
    4.8108    7.0877   21.3683 C   0  0  0  0  0  0  0  0  0  0  0  0
    6.0693    7.2833   21.9158 C   0  0  0  0  0  0  0  0  0  0  0  0
    6.7993    6.1829   22.2882 C   0  0  0  0  0  0  0  0  0  0  0  0
    6.2664    4.9330   22.1091 C   0  0  0  0  0  0  0  0  0  0  0  0
    6.6044    8.6296   22.0916 C   0  0  0  0  0  0  0  0  0  0  0  0
    6.0763    9.4492   23.0603 O   0  0  0  0  0  0  0  0  0  0  0  0
    7.5358    9.0214   21.3598 O   0  0  0  0  0  0  0  0  0  0  0  0
    6.6571   10.1094   23.5697 H   0  0  0  0  0  0  0  0  0  0  0  0
    5.2595    3.4809   19.1987 O   0  0  0  0  0  0  0  0  0  0  0  0
    5.2567    3.8235   17.9111 C   0  0  0  0  0  0  0  0  0  0  0  0
    3.6404    4.9474   16.2030 C   0  0  0  0  0  0  0  0  0  0  0  0
    2.9606    4.8680   17.5865 C   0  0  0  0  0  0  0  0  0  0  0  0
    4.0082    3.8737   17.1116 C   0  0  0  0  0  0  0  0  0  0  0  0
    0.7634    4.5246   13.0942 C   0  0  0  0  0  0  0  0  0  0  0  0
    0.9291    5.7372   13.7237 C   0  0  0  0  0  0  0  0  0  0  0  0
    1.8785    5.8048   14.7222 C   0  0  0  0  0  0  0  0  0  0  0  0
    2.6520    4.7380   15.1107 C   0  0  0  0  0  0  0  0  0  0  0  0
    2.4716    3.5720   14.4838 N   0  0  0  0  0  0  0  0  0  0  0  0
    1.5432    3.4730   13.4947 C   0  0  0  0  0  0  0  0  0  0  0  0
   -1.4605    4.8717   12.1160 C   0  0  0  0  0  0  0  0  0  0  0  0
   -0.1652    4.3565   12.0786 O   0  0  0  0  0  0  0  0  0  0  0  0
 29 30  1  0  0  0
 30 23  1  0  0  0
 23 24  2  0  0  0
 24 25  1  0  0  0
 25 26  2  0  0  0
 26 27  1  0  0  0
 27 28  2  0  0  0
 26 20  1  0  0  0
 20 21  1  0  0  0
 21 22  1  0  0  0
 22 19  1  0  0  0
 19 18  1  0  0  0
 18  1  1  0  0  0
  1  2  2  0  0  0
  2  3  1  0  0  0
  3  4  1  0  0  0
  3  5  2  0  0  0
  5  6  1  0  0  0
  6  7  2  0  0  0
  7  8  1  0  0  0
  8  9  2  0  0  0
  9 10  1  0  0  0
 10 11  2  0  0  0
 11 12  1  0  0  0
 12 13  2  0  0  0
 11 14  1  0  0  0
 14 15  1  0  0  0
 14 16  2  0  0  0
 28 23  1  0  0  0
 22 20  1  0  0  0
  7  1  1  0  0  0
 13  8  1  0  0  0
 15 17  1  0  0  0
M  END
> <minimizedAffinity>
-7.50200

> <CNNscore>
0.2601712644

> <CNNaffinity>
6.2467689514

> <CNN_VS>
1.6252298355

> <CNNaffinity_variance>
0.8269451857

$$$$
[H]OC(=O)c1c([H])c([H])c(-c2c([H])nc(C([H])([H])[H])nc2OC([H])([H])[C@@]2([H])C([H])([H])[C@]2([H])c2nc([H])c(OC([H])([H])[H])c([H])c2[H])c([H])c1[H]


 30 33  0  0  0  0  0  0  0  0999 V2000
    4.8931    2.6255   19.2193 C   0  0  0  0  0  0  0  0  0  0  0  0
    5.2321    1.4481   19.7941 N   0  0  0  0  0  0  0  0  0  0  0  0
    5.7859    1.3283   21.0055 C   0  0  0  0  0  0  0  0  0  0  0  0
    6.1469    0.0190   21.6095 C   0  0  0  0  0  0  0  0  0  0  0  0
    6.0367    2.4466   21.7316 N   0  0  0  0  0  0  0  0  0  0  0  0
    5.7392    3.6697   21.2559 C   0  0  0  0  0  0  0  0  0  0  0  0
    5.1696    3.7641   20.0055 C   0  0  0  0  0  0  0  0  0  0  0  0
    4.8199    5.0558   19.4384 C   0  0  0  0  0  0  0  0  0  0  0  0
    3.5862    5.6392   19.4809 C   0  0  0  0  0  0  0  0  0  0  0  0
    3.4064    6.8779   18.8878 C   0  0  0  0  0  0  0  0  0  0  0  0
    4.4354    7.5526   18.2493 C   0  0  0  0  0  0  0  0  0  0  0  0
    5.6752    6.9663   18.2067 C   0  0  0  0  0  0  0  0  0  0  0  0
    5.8576    5.7407   18.7922 C   0  0  0  0  0  0  0  0  0  0  0  0
    4.2040    8.8568   17.6366 C   0  0  0  0  0  0  0  0  0  0  0  0
    4.3977    9.0163   16.2852 O   0  0  0  0  0  0  0  0  0  0  0  0
    3.8327    9.8127   18.3471 O   0  0  0  0  0  0  0  0  0  0  0  0
    3.8162    9.6442   15.7374 H   0  0  0  0  0  0  0  0  0  0  0  0
    4.3484    2.8207   18.0339 O   0  0  0  0  0  0  0  0  0  0  0  0
    4.5228    2.9389   16.7182 C   0  0  0  0  0  0  0  0  0  0  0  0
    3.7919    4.0287   14.4663 C   0  0  0  0  0  0  0  0  0  0  0  0
    3.9422    5.1205   15.5471 C   0  0  0  0  0  0  0  0  0  0  0  0
    3.5672    3.6807   15.8599 C   0  0  0  0  0  0  0  0  0  0  0  0
    0.6659    5.0362   11.7584 C   0  0  0  0  0  0  0  0  0  0  0  0
    1.8909    5.6561   11.6629 C   0  0  0  0  0  0  0  0  0  0  0  0
    2.8591    5.2826   12.5717 C   0  0  0  0  0  0  0  0  0  0  0  0
    2.6615    4.3382   13.5496 C   0  0  0  0  0  0  0  0  0  0  0  0
    1.4634    3.7513   13.6209 N   0  0  0  0  0  0  0  0  0  0  0  0
    0.4875    4.0977   12.7391 C   0  0  0  0  0  0  0  0  0  0  0  0
   -0.2001    5.5798    9.5272 C   0  0  0  0  0  0  0  0  0  0  0  0
   -0.3710    5.3433   10.8909 O   0  0  0  0  0  0  0  0  0  0  0  0
 29 30  1  0  0  0
 30 23  1  0  0  0
 23 24  2  0  0  0
 24 25  1  0  0  0
 25 26  2  0  0  0
 26 27  1  0  0  0
 27 28  2  0  0  0
 26 20  1  0  0  0
 20 21  1  0  0  0
 21 22  1  0  0  0
 22 19  1  0  0  0
 19 18  1  0  0  0
 18  1  1  0  0  0
  1  2  2  0  0  0
  2  3  1  0  0  0
  3  4  1  0  0  0
  3  5  2  0  0  0
  5  6  1  0  0  0
  6  7  2  0  0  0
  7  8  1  0  0  0
  8  9  2  0  0  0
  9 10  1  0  0  0
 10 11  2  0  0  0
 11 12  1  0  0  0
 12 13  2  0  0  0
 11 14  1  0  0  0
 14 15  1  0  0  0
 14 16  2  0  0  0
 28 23  1  0  0  0
 22 20  1  0  0  0
  7  1  1  0  0  0
 13  8  1  0  0  0
 15 17  1  0  0  0
M  END
> <minimizedAffinity>
-6.11731

> <CNNscore>
0.2438651025

> <CNNaffinity>
5.7078814507

> <CNN_VS>
1.3919531107

> <CNNaffinity_variance>
0.4149305224

$$$$
[H]OC(=O)c1c([H])c([H])c(-c2c([H])nc(C([H])([H])[H])nc2OC([H])([H])[C@@]2([H])C([H])([H])[C@]2([H])c2nc([H])c(OC([H])([H])[H])c([H])c2[H])c([H])c1[H]


 30 33  0  0  0  0  0  0  0  0999 V2000
    4.6716    2.7073   20.6036 C   0  0  0  0  0  0  0  0  0  0  0  0
    4.8717    2.1096   21.8012 N   0  0  0  0  0  0  0  0  0  0  0  0
    4.9932    2.7619   22.9625 C   0  0  0  0  0  0  0  0  0  0  0  0
    5.2125    2.0755   24.2624 C   0  0  0  0  0  0  0  0  0  0  0  0
    4.9146    4.1163   22.9715 N   0  0  0  0  0  0  0  0  0  0  0  0
    4.7174    4.8123   21.8369 C   0  0  0  0  0  0  0  0  0  0  0  0
    4.5957    4.1153   20.6552 C   0  0  0  0  0  0  0  0  0  0  0  0
    4.3758    4.8088   19.3970 C   0  0  0  0  0  0  0  0  0  0  0  0
    3.1671    5.0023   18.7923 C   0  0  0  0  0  0  0  0  0  0  0  0
    3.1187    5.6815   17.5861 C   0  0  0  0  0  0  0  0  0  0  0  0
    4.2555    6.1755   16.9652 C   0  0  0  0  0  0  0  0  0  0  0  0
    5.4701    5.9811   17.5730 C   0  0  0  0  0  0  0  0  0  0  0  0
    5.5226    5.3095   18.7665 C   0  0  0  0  0  0  0  0  0  0  0  0
    4.1611    6.8860   15.6940 C   0  0  0  0  0  0  0  0  0  0  0  0
    5.2819    7.4771   15.1615 O   0  0  0  0  0  0  0  0  0  0  0  0
    3.0632    6.9488   15.1047 O   0  0  0  0  0  0  0  0  0  0  0  0
    5.4342    7.5154   14.1575 H   0  0  0  0  0  0  0  0  0  0  0  0
    4.5451    2.1327   19.4230 O   0  0  0  0  0  0  0  0  0  0  0  0
    3.9767    1.1769   18.6890 C   0  0  0  0  0  0  0  0  0  0  0  0
    2.5699    1.8647   16.6056 C   0  0  0  0  0  0  0  0  0  0  0  0
    2.7972    0.3380   16.5978 C   0  0  0  0  0  0  0  0  0  0  0  0
    3.7675    1.3244   17.2280 C   0  0  0  0  0  0  0  0  0  0  0  0
    2.7915    3.5183   12.6895 C   0  0  0  0  0  0  0  0  0  0  0  0
    3.7857    3.7742   13.6061 C   0  0  0  0  0  0  0  0  0  0  0  0
    3.6516    3.2072   14.8565 C   0  0  0  0  0  0  0  0  0  0  0  0
    2.5916    2.4139   15.2229 C   0  0  0  0  0  0  0  0  0  0  0  0
    1.6399    2.1810   14.3146 N   0  0  0  0  0  0  0  0  0  0  0  0
    1.7431    2.7256   13.0725 C   0  0  0  0  0  0  0  0  0  0  0  0
    2.0423    5.1034   10.9720 C   0  0  0  0  0  0  0  0  0  0  0  0
    2.8363    4.0427   11.4068 O   0  0  0  0  0  0  0  0  0  0  0  0
 29 30  1  0  0  0
 30 23  1  0  0  0
 23 24  2  0  0  0
 24 25  1  0  0  0
 25 26  2  0  0  0
 26 27  1  0  0  0
 27 28  2  0  0  0
 26 20  1  0  0  0
 20 21  1  0  0  0
 21 22  1  0  0  0
 22 19  1  0  0  0
 19 18  1  0  0  0
 18  1  1  0  0  0
  1  2  2  0  0  0
  2  3  1  0  0  0
  3  4  1  0  0  0
  3  5  2  0  0  0
  5  6  1  0  0  0
  6  7  2  0  0  0
  7  8  1  0  0  0
  8  9  2  0  0  0
  9 10  1  0  0  0
 10 11  2  0  0  0
 11 12  1  0  0  0
 12 13  2  0  0  0
 11 14  1  0  0  0
 14 15  1  0  0  0
 14 16  2  0  0  0
 28 23  1  0  0  0
 22 20  1  0  0  0
  7  1  1  0  0  0
 13  8  1  0  0  0
 15 17  1  0  0  0
M  END
> <minimizedAffinity>
-7.59216

> <CNNscore>
0.2350397259

> <CNNaffinity>
5.7873721123

> <CNN_VS>
1.3602623940

> <CNNaffinity_variance>
0.6333925128

$$$$
[H]OC(=O)c1c([H])c([H])c(-c2c([H])nc(C([H])([H])[H])nc2OC([H])([H])[C@@]2([H])C([H])([H])[C@]2([H])c2nc([H])c(OC([H])([H])[H])c([H])c2[H])c([H])c1[H]


 30 33  0  0  0  0  0  0  0  0999 V2000
    4.6759    2.7541   20.1568 C   0  0  0  0  0  0  0  0  0  0  0  0
    4.1004    1.5365   20.0231 N   0  0  0  0  0  0  0  0  0  0  0  0
    3.5456    0.8467   21.0257 C   0  0  0  0  0  0  0  0  0  0  0  0
    2.9208   -0.4899   20.8459 C   0  0  0  0  0  0  0  0  0  0  0  0
    3.5447    1.3790   22.2736 N   0  0  0  0  0  0  0  0  0  0  0  0
    4.0902    2.5842   22.5195 C   0  0  0  0  0  0  0  0  0  0  0  0
    4.6547    3.2730   21.4688 C   0  0  0  0  0  0  0  0  0  0  0  0
    5.2548    4.5815   21.6684 C   0  0  0  0  0  0  0  0  0  0  0  0
    6.5409    4.8190   22.0603 C   0  0  0  0  0  0  0  0  0  0  0  0
    6.9675    6.1279   22.2131 C   0  0  0  0  0  0  0  0  0  0  0  0
    6.1355    7.2125   21.9823 C   0  0  0  0  0  0  0  0  0  0  0  0
    4.8431    6.9738   21.5884 C   0  0  0  0  0  0  0  0  0  0  0  0
    4.4168    5.6802   21.4360 C   0  0  0  0  0  0  0  0  0  0  0  0
    6.6243    8.5767   22.1548 C   0  0  0  0  0  0  0  0  0  0  0  0
    5.9960    9.4159   23.0437 O   0  0  0  0  0  0  0  0  0  0  0  0
    7.6077    8.9658   21.4929 O   0  0  0  0  0  0  0  0  0  0  0  0
    6.5157   10.1072   23.5772 H   0  0  0  0  0  0  0  0  0  0  0  0
    5.2420    3.4894   19.2193 O   0  0  0  0  0  0  0  0  0  0  0  0
    5.3713    3.7571   17.9205 C   0  0  0  0  0  0  0  0  0  0  0  0
    3.8846    4.4187   15.8846 C   0  0  0  0  0  0  0  0  0  0  0  0
    3.0160    4.3403   17.1583 C   0  0  0  0  0  0  0  0  0  0  0  0
    4.2745    3.5123   16.9523 C   0  0  0  0  0  0  0  0  0  0  0  0
    1.7902    2.8812   12.5127 C   0  0  0  0  0  0  0  0  0  0  0  0
    2.5588    2.0453   13.2902 C   0  0  0  0  0  0  0  0  0  0  0  0
    3.2106    2.6086   14.3676 C   0  0  0  0  0  0  0  0  0  0  0  0
    3.1301    3.9404   14.6947 C   0  0  0  0  0  0  0  0  0  0  0  0
    2.3774    4.7305   13.9238 N   0  0  0  0  0  0  0  0  0  0  0  0
    1.7218    4.2053   12.8540 C   0  0  0  0  0  0  0  0  0  0  0  0
    0.5478    3.2318   10.4253 C   0  0  0  0  0  0  0  0  0  0  0  0
    1.0968    2.4095   11.4087 O   0  0  0  0  0  0  0  0  0  0  0  0
 29 30  1  0  0  0
 30 23  1  0  0  0
 23 24  2  0  0  0
 24 25  1  0  0  0
 25 26  2  0  0  0
 26 27  1  0  0  0
 27 28  2  0  0  0
 26 20  1  0  0  0
 20 21  1  0  0  0
 21 22  1  0  0  0
 22 19  1  0  0  0
 19 18  1  0  0  0
 18  1  1  0  0  0
  1  2  2  0  0  0
  2  3  1  0  0  0
  3  4  1  0  0  0
  3  5  2  0  0  0
  5  6  1  0  0  0
  6  7  2  0  0  0
  7  8  1  0  0  0
  8  9  2  0  0  0
  9 10  1  0  0  0
 10 11  2  0  0  0
 11 12  1  0  0  0
 12 13  2  0  0  0
 11 14  1  0  0  0
 14 15  1  0  0  0
 14 16  2  0  0  0
 28 23  1  0  0  0
 22 20  1  0  0  0
  7  1  1  0  0  0
 13  8  1  0  0  0
 15 17  1  0  0  0
M  END
> <minimizedAffinity>
-7.68372

> <CNNscore>
0.2244290859

> <CNNaffinity>
6.1989855766

> <CNN_VS>
1.3912326097

> <CNNaffinity_variance>
0.5230107903

$$$$
[H]OC(=O)c1c([H])c([H])c(-c2c([H])nc(C([H])([H])[H])nc2OC([H])([H])[C@@]2([H])C([H])([H])[C@]2([H])c2nc([H])c(OC([H])([H])[H])c([H])c2[H])c([H])c1[H]


 30 33  0  0  0  0  0  0  0  0999 V2000
    4.8181    3.6227   18.8239 C   0  0  0  0  0  0  0  0  0  0  0  0
    5.2609    2.8742   19.8609 N   0  0  0  0  0  0  0  0  0  0  0  0
    4.9639    1.5832   20.0445 C   0  0  0  0  0  0  0  0  0  0  0  0
    5.4667    0.7880   21.1951 C   0  0  0  0  0  0  0  0  0  0  0  0
    4.1660    0.9539   19.1455 N   0  0  0  0  0  0  0  0  0  0  0  0
    3.6701    1.6035   18.0765 C   0  0  0  0  0  0  0  0  0  0  0  0
    3.9919    2.9324   17.9118 C   0  0  0  0  0  0  0  0  0  0  0  0
    3.4925    3.6877   16.7750 C   0  0  0  0  0  0  0  0  0  0  0  0
    2.4844    4.6079   16.8082 C   0  0  0  0  0  0  0  0  0  0  0  0
    2.1154    5.2450   15.6349 C   0  0  0  0  0  0  0  0  0  0  0  0
    2.7329    4.9840   14.4215 C   0  0  0  0  0  0  0  0  0  0  0  0
    3.7461    4.0593   14.3883 C   0  0  0  0  0  0  0  0  0  0  0  0
    4.1143    3.4265   15.5468 C   0  0  0  0  0  0  0  0  0  0  0  0
    2.3140    5.6775   13.2077 C   0  0  0  0  0  0  0  0  0  0  0  0
    1.9505    7.0014   13.2731 O   0  0  0  0  0  0  0  0  0  0  0  0
    2.2904    5.0601   12.1238 O   0  0  0  0  0  0  0  0  0  0  0  0
    2.1467    7.6428   12.5098 H   0  0  0  0  0  0  0  0  0  0  0  0
    5.0662    4.8950   18.5796 O   0  0  0  0  0  0  0  0  0  0  0  0
    5.1624    6.1365   19.0537 C   0  0  0  0  0  0  0  0  0  0  0  0
    6.0973    6.9478   21.3473 C   0  0  0  0  0  0  0  0  0  0  0  0
    6.3280    8.0368   20.2779 C   0  0  0  0  0  0  0  0  0  0  0  0
    6.2622    6.5518   19.9583 C   0  0  0  0  0  0  0  0  0  0  0  0
    9.4025    6.6575   24.0140 C   0  0  0  0  0  0  0  0  0  0  0  0
    9.2569    5.7488   22.9907 C   0  0  0  0  0  0  0  0  0  0  0  0
    8.1636    5.9007   22.1634 C   0  0  0  0  0  0  0  0  0  0  0  0
    7.2304    6.8981   22.3104 C   0  0  0  0  0  0  0  0  0  0  0  0
    7.3948    7.7672   23.3117 N   0  0  0  0  0  0  0  0  0  0  0  0
    8.4628    7.6445   24.1449 C   0  0  0  0  0  0  0  0  0  0  0  0
   10.8520    7.6341   25.7370 C   0  0  0  0  0  0  0  0  0  0  0  0
   10.4684    6.5884   24.8979 O   0  0  0  0  0  0  0  0  0  0  0  0
 29 30  1  0  0  0
 30 23  1  0  0  0
 23 24  2  0  0  0
 24 25  1  0  0  0
 25 26  2  0  0  0
 26 27  1  0  0  0
 27 28  2  0  0  0
 26 20  1  0  0  0
 20 21  1  0  0  0
 21 22  1  0  0  0
 22 19  1  0  0  0
 19 18  1  0  0  0
 18  1  1  0  0  0
  1  2  2  0  0  0
  2  3  1  0  0  0
  3  4  1  0  0  0
  3  5  2  0  0  0
  5  6  1  0  0  0
  6  7  2  0  0  0
  7  8  1  0  0  0
  8  9  2  0  0  0
  9 10  1  0  0  0
 10 11  2  0  0  0
 11 12  1  0  0  0
 12 13  2  0  0  0
 11 14  1  0  0  0
 14 15  1  0  0  0
 14 16  2  0  0  0
 28 23  1  0  0  0
 22 20  1  0  0  0
  7  1  1  0  0  0
 13  8  1  0  0  0
 15 17  1  0  0  0
M  END
> <minimizedAffinity>
-6.92813

> <CNNscore>
0.1950194836

> <CNNaffinity>
5.8630361557

> <CNN_VS>
1.1434062719

> <CNNaffinity_variance>
0.2299393713

$$$$
[H]OC(=O)c1c([H])c([H])c(-c2c([H])nc(C([H])([H])[H])nc2OC([H])([H])[C@@]2([H])C([H])([H])[C@]2([H])c2nc([H])c(OC([H])([H])[H])c([H])c2[H])c([H])c1[H]


 30 33  0  0  0  0  0  0  0  0999 V2000
    4.7458    2.8057   20.0972 C   0  0  0  0  0  0  0  0  0  0  0  0
    4.1660    1.5953   19.9230 N   0  0  0  0  0  0  0  0  0  0  0  0
    3.5518    0.9035   20.8889 C   0  0  0  0  0  0  0  0  0  0  0  0
    2.9241   -0.4250   20.6652 C   0  0  0  0  0  0  0  0  0  0  0  0
    3.4899    1.4261   22.1394 N   0  0  0  0  0  0  0  0  0  0  0  0
    4.0337    2.6236   22.4239 C   0  0  0  0  0  0  0  0  0  0  0  0
    4.6601    3.3146   21.4104 C   0  0  0  0  0  0  0  0  0  0  0  0
    5.2618    4.6152   21.6525 C   0  0  0  0  0  0  0  0  0  0  0  0
    6.5494    4.8383   22.0481 C   0  0  0  0  0  0  0  0  0  0  0  0
    6.9774    6.1411   22.2439 C   0  0  0  0  0  0  0  0  0  0  0  0
    6.1455    7.2334   22.0528 C   0  0  0  0  0  0  0  0  0  0  0  0
    4.8516    7.0090   21.6552 C   0  0  0  0  0  0  0  0  0  0  0  0
    4.4239    5.7217   21.4604 C   0  0  0  0  0  0  0  0  0  0  0  0
    6.6360    8.5906   22.2701 C   0  0  0  0  0  0  0  0  0  0  0  0
    6.0497    9.3788   23.2314 O   0  0  0  0  0  0  0  0  0  0  0  0
    7.5825    9.0202   21.5801 O   0  0  0  0  0  0  0  0  0  0  0  0
    6.5925   10.0459   23.7727 H   0  0  0  0  0  0  0  0  0  0  0  0
    5.3683    3.5424   19.1972 O   0  0  0  0  0  0  0  0  0  0  0  0
    5.4055    4.0041   17.9480 C   0  0  0  0  0  0  0  0  0  0  0  0
    4.3561    5.8207   16.4014 C   0  0  0  0  0  0  0  0  0  0  0  0
    3.9742    6.1050   17.8697 C   0  0  0  0  0  0  0  0  0  0  0  0
    4.2545    4.7100   17.3339 C   0  0  0  0  0  0  0  0  0  0  0  0
    1.2477    6.9771   13.7330 C   0  0  0  0  0  0  0  0  0  0  0  0
    2.3389    7.7946   13.9203 C   0  0  0  0  0  0  0  0  0  0  0  0
    3.3094    7.3595   14.7987 C   0  0  0  0  0  0  0  0  0  0  0  0
    3.2390    6.1703   15.4829 C   0  0  0  0  0  0  0  0  0  0  0  0
    2.1693    5.3950   15.2833 N   0  0  0  0  0  0  0  0  0  0  0  0
    1.1949    5.7959   14.4231 C   0  0  0  0  0  0  0  0  0  0  0  0
    0.1830    6.9750   11.5217 C   0  0  0  0  0  0  0  0  0  0  0  0
    0.2201    7.3268   12.8706 O   0  0  0  0  0  0  0  0  0  0  0  0
 29 30  1  0  0  0
 30 23  1  0  0  0
 23 24  2  0  0  0
 24 25  1  0  0  0
 25 26  2  0  0  0
 26 27  1  0  0  0
 27 28  2  0  0  0
 26 20  1  0  0  0
 20 21  1  0  0  0
 21 22  1  0  0  0
 22 19  1  0  0  0
 19 18  1  0  0  0
 18  1  1  0  0  0
  1  2  2  0  0  0
  2  3  1  0  0  0
  3  4  1  0  0  0
  3  5  2  0  0  0
  5  6  1  0  0  0
  6  7  2  0  0  0
  7  8  1  0  0  0
  8  9  2  0  0  0
  9 10  1  0  0  0
 10 11  2  0  0  0
 11 12  1  0  0  0
 12 13  2  0  0  0
 11 14  1  0  0  0
 14 15  1  0  0  0
 14 16  2  0  0  0
 28 23  1  0  0  0
 22 20  1  0  0  0
  7  1  1  0  0  0
 13  8  1  0  0  0
 15 17  1  0  0  0
M  END
> <minimizedAffinity>
-7.49219

> <CNNscore>
0.1847550273

> <CNNaffinity>
6.1036882401

> <CNN_VS>
1.1276870966

> <CNNaffinity_variance>
0.7900362611

$$$$
[H]C1=C([H])C([H])(F)C([H])([H])C([H])=C1N([H])C(=O)C1(C(=O)N([H])c2c([H])c([H])c(Oc3c([H])c([H])nc4c([H])c(OC([H])([H])C([H])([H])C([H])([H])N5C([H])([H])C([H])([H])OC([H])([H])C5([H])[H])c(OC([H])([H])[H])c([H])c34)c(F)c2[H])C([H])([H])C1([H])[H]


 48 53  0  0  0  0  0  0  0  0999 V2000
    2.6668    2.7807   14.4808 C   0  0  0  0  0  0  0  0  0  0  0  0
    1.7888    2.0073   13.7342 C   0  0  0  0  0  0  0  0  0  0  0  0
    0.7478    2.5029   13.0069 C   0  0  0  0  0  0  0  0  0  0  0  0
    0.5258    3.8847   12.9950 C   0  0  0  0  0  0  0  0  0  0  0  0
    1.3694    4.6842   13.7173 C   0  0  0  0  0  0  0  0  0  0  0  0
    2.4343    4.1449   14.4573 C   0  0  0  0  0  0  0  0  0  0  0  0
    3.2405    5.0033   15.1242 F   0  0  0  0  0  0  0  0  0  0  0  0
   -0.5506    4.3988   12.1883 N   0  0  0  0  0  0  0  0  0  0  0  0
   -0.4861    4.4791   10.8160 C   0  0  0  0  0  0  0  0  0  0  0  0
    0.6294    4.0939   10.2763 O   0  0  0  0  0  0  0  0  0  0  0  0
   -1.3615    4.7239   12.7365 H   0  0  0  0  0  0  0  0  0  0  0  0
   -1.4799    4.9398    9.8165 C   0  0  0  0  0  0  0  0  0  0  0  0
   -0.9347    5.0821    8.4055 C   0  0  0  0  0  0  0  0  0  0  0  0
   -1.0811    6.3217    9.1628 C   0  0  0  0  0  0  0  0  0  0  0  0
   -2.9273    4.7747    9.9537 C   0  0  0  0  0  0  0  0  0  0  0  0
   -3.2815    4.2145   11.0891 O   0  0  0  0  0  0  0  0  0  0  0  0
   -4.0073    5.0907    9.1384 N   0  0  0  0  0  0  0  0  0  0  0  0
   -3.9281    5.5592    8.2210 H   0  0  0  0  0  0  0  0  0  0  0  0
   -5.3763    4.7958    9.5624 C   0  0  0  0  0  0  0  0  0  0  0  0
   -5.8440    3.5976    9.2953 C   0  0  0  0  0  0  0  0  0  0  0  0
   -7.1754    3.1022    9.6315 C   0  0  0  0  0  0  0  0  0  0  0  0
   -8.0677    4.0788   10.2928 C   0  0  0  0  0  0  0  0  0  0  0  0
   -8.4880    3.5689   11.5479 F   0  0  0  0  0  0  0  0  0  0  0  0
   -7.4506    5.3823   10.5455 C   0  0  0  0  0  0  0  0  0  0  0  0
   -6.2234    5.7362   10.2221 C   0  0  0  0  0  0  0  0  0  0  0  0
    3.7031    2.2178   15.1927 O   0  0  0  0  0  0  0  0  0  0  0  0
    5.1845    3.9155   18.6121 C   0  0  0  0  0  0  0  0  0  0  0  0
    4.6971    3.3617   17.4603 C   0  0  0  0  0  0  0  0  0  0  0  0
    4.0134    2.1673   17.5336 C   0  0  0  0  0  0  0  0  0  0  0  0
    3.4947    1.5563   16.3715 C   0  0  0  0  0  0  0  0  0  0  0  0
    2.8199    0.3620   16.4659 C   0  0  0  0  0  0  0  0  0  0  0  0
    2.6364   -0.2552   17.6837 C   0  0  0  0  0  0  0  0  0  0  0  0
    3.1298    0.3286   18.7871 N   0  0  0  0  0  0  0  0  0  0  0  0
    3.8025    1.5109   18.7185 C   0  0  0  0  0  0  0  0  0  0  0  0
    4.2989    2.0767   19.8830 C   0  0  0  0  0  0  0  0  0  0  0  0
    4.9837    3.2674   19.8421 C   0  0  0  0  0  0  0  0  0  0  0  0
    6.2283    5.7574   17.4536 C   0  0  0  0  0  0  0  0  0  0  0  0
    5.8838    5.1063   18.6550 O   0  0  0  0  0  0  0  0  0  0  0  0
    5.4664    3.8335   20.9765 O   0  0  0  0  0  0  0  0  0  0  0  0
    4.7017    4.3875   21.9846 C   0  0  0  0  0  0  0  0  0  0  0  0
    5.4683    5.4254   22.7924 C   0  0  0  0  0  0  0  0  0  0  0  0
    6.5581    6.0242   21.8931 C   0  0  0  0  0  0  0  0  0  0  0  0
    6.3395    7.4470   21.8162 N   0  0  0  0  0  0  0  0  0  0  0  0
    7.6176    8.1354   21.5207 C   0  0  0  0  0  0  0  0  0  0  0  0
    7.2211    9.6033   21.3377 C   0  0  0  0  0  0  0  0  0  0  0  0
    5.9596    9.8782   21.8657 O   0  0  0  0  0  0  0  0  0  0  0  0
    4.9366    9.2297   21.1459 C   0  0  0  0  0  0  0  0  0  0  0  0
    5.4279    7.8337   20.7408 C   0  0  0  0  0  0  0  0  0  0  0  0
 37 38  1  0  0  0
 38 27  1  0  0  0
 27 28  2  0  0  0
 28 29  1  0  0  0
 29 30  2  0  0  0
 30 26  1  0  0  0
 26  1  1  0  0  0
  1  2  2  0  0  0
  2  3  1  0  0  0
  3  4  2  0  0  0
  4  8  1  0  0  0
  8  9  1  0  0  0
  9 10  2  0  0  0
  9 12  1  0  0  0
 12 13  1  0  0  0
 13 14  1  0  0  0
 12 15  1  0  0  0
 15 16  2  0  0  0
 15 17  1  0  0  0
 17 19  1  0  0  0
 19 20  2  0  0  0
 20 21  1  0  0  0
 21 22  1  0  0  0
 22 23  1  0  0  0
 22 24  1  0  0  0
 24 25  2  0  0  0
  4  5  1  0  0  0
  5  6  2  0  0  0
  6  7  1  0  0  0
 30 31  1  0  0  0
 31 32  2  0  0  0
 32 33  1  0  0  0
 33 34  2  0  0  0
 34 35  1  0  0  0
 35 36  2  0  0  0
 36 39  1  0  0  0
 39 40  1  0  0  0
 40 41  1  0  0  0
 41 42  1  0  0  0
 42 43  1  0  0  0
 43 44  1  0  0  0
 44 45  1  0  0  0
 45 46  1  0  0  0
 46 47  1  0  0  0
 47 48  1  0  0  0
 36 27  1  0  0  0
 48 43  1  0  0  0
 34 29  1  0  0  0
  6  1  1  0  0  0
 14 12  1  0  0  0
 25 19  1  0  0  0
  8 11  1  0  0  0
 17 18  1  0  0  0
M  END
> <minimizedAffinity>
-8.71259

> <CNNscore>
0.2296081334

> <CNNaffinity>
6.6891264915

> <CNN_VS>
1.5358778238

> <CNNaffinity_variance>
0.1948491633

$$$$
[H]C1=C([H])C([H])(F)C([H])([H])C([H])=C1N([H])C(=O)C1(C(=O)N([H])c2c([H])c([H])c(Oc3c([H])c([H])nc4c([H])c(OC([H])([H])C([H])([H])C([H])([H])N5C([H])([H])C([H])([H])OC([H])([H])C5([H])[H])c(OC([H])([H])[H])c([H])c34)c(F)c2[H])C([H])([H])C1([H])[H]


 48 53  0  0  0  0  0  0  0  0999 V2000
    3.7655    2.4103   15.9639 C   0  0  0  0  0  0  0  0  0  0  0  0
    3.8389    3.6886   15.4283 C   0  0  0  0  0  0  0  0  0  0  0  0
    2.9837    4.1844   14.4897 C   0  0  0  0  0  0  0  0  0  0  0  0
    1.9503    3.3685   14.0153 C   0  0  0  0  0  0  0  0  0  0  0  0
    1.8411    2.1005   14.5181 C   0  0  0  0  0  0  0  0  0  0  0  0
    2.7374    1.6168   15.4853 C   0  0  0  0  0  0  0  0  0  0  0  0
    2.5474    0.3611   15.9527 F   0  0  0  0  0  0  0  0  0  0  0  0
    1.0281    3.9190   13.0561 N   0  0  0  0  0  0  0  0  0  0  0  0
    1.0146    3.5476   11.7311 C   0  0  0  0  0  0  0  0  0  0  0  0
    1.9159    2.6851   11.3738 O   0  0  0  0  0  0  0  0  0  0  0  0
    0.3980    4.6346   13.4495 H   0  0  0  0  0  0  0  0  0  0  0  0
    0.1403    3.9648   10.6084 C   0  0  0  0  0  0  0  0  0  0  0  0
    0.5851    3.4649    9.2443 C   0  0  0  0  0  0  0  0  0  0  0  0
    0.9025    4.8566    9.5503 C   0  0  0  0  0  0  0  0  0  0  0  0
   -1.2682    4.3345   10.7512 C   0  0  0  0  0  0  0  0  0  0  0  0
   -1.4818    5.2092   11.7092 O   0  0  0  0  0  0  0  0  0  0  0  0
   -2.4277    3.9596   10.0835 N   0  0  0  0  0  0  0  0  0  0  0  0
   -2.4552    3.3034    9.2859 H   0  0  0  0  0  0  0  0  0  0  0  0
   -3.7249    4.5187   10.4650 C   0  0  0  0  0  0  0  0  0  0  0  0
   -4.0964    5.6329    9.8767 C   0  0  0  0  0  0  0  0  0  0  0  0
   -5.3459    6.3508   10.1104 C   0  0  0  0  0  0  0  0  0  0  0  0
   -6.2302    5.7664   11.1417 C   0  0  0  0  0  0  0  0  0  0  0  0
   -7.4954    5.4686   10.5737 F   0  0  0  0  0  0  0  0  0  0  0  0
   -5.7251    4.5268   11.7349 C   0  0  0  0  0  0  0  0  0  0  0  0
   -4.5842    3.9355   11.4441 C   0  0  0  0  0  0  0  0  0  0  0  0
    4.6604    1.9700   16.9141 O   0  0  0  0  0  0  0  0  0  0  0  0
    5.3684    5.1903   19.3425 C   0  0  0  0  0  0  0  0  0  0  0  0
    5.1396    4.1235   18.5177 C   0  0  0  0  0  0  0  0  0  0  0  0
    4.5695    2.9848   19.0449 C   0  0  0  0  0  0  0  0  0  0  0  0
    4.3173    1.8577   18.2332 C   0  0  0  0  0  0  0  0  0  0  0  0
    3.7523    0.7297   18.7801 C   0  0  0  0  0  0  0  0  0  0  0  0
    3.4226    0.6776   20.1166 C   0  0  0  0  0  0  0  0  0  0  0  0
    3.6628    1.7512   20.8857 N   0  0  0  0  0  0  0  0  0  0  0  0
    4.2224    2.8793   20.3669 C   0  0  0  0  0  0  0  0  0  0  0  0
    4.4567    3.9638   21.1986 C   0  0  0  0  0  0  0  0  0  0  0  0
    5.0226    5.1132   20.7019 C   0  0  0  0  0  0  0  0  0  0  0  0
    6.5921    6.4360   17.6766 C   0  0  0  0  0  0  0  0  0  0  0  0
    5.9343    6.3784   18.9216 O   0  0  0  0  0  0  0  0  0  0  0  0
    5.2486    6.1827   21.5053 O   0  0  0  0  0  0  0  0  0  0  0  0
    6.1420    6.2205   22.5580 C   0  0  0  0  0  0  0  0  0  0  0  0
    7.5202    5.7034   22.1700 C   0  0  0  0  0  0  0  0  0  0  0  0
    8.5247    6.8534   22.3226 C   0  0  0  0  0  0  0  0  0  0  0  0
    7.8700    7.9253   23.0300 N   0  0  0  0  0  0  0  0  0  0  0  0
    8.3895    8.0028   24.4153 C   0  0  0  0  0  0  0  0  0  0  0  0
    7.7158    9.2472   25.0009 C   0  0  0  0  0  0  0  0  0  0  0  0
    6.6078    9.6473   24.2542 O   0  0  0  0  0  0  0  0  0  0  0  0
    6.9764   10.1148   22.9772 C   0  0  0  0  0  0  0  0  0  0  0  0
    8.1191    9.2409   22.4434 C   0  0  0  0  0  0  0  0  0  0  0  0
 37 38  1  0  0  0
 38 27  1  0  0  0
 27 28  2  0  0  0
 28 29  1  0  0  0
 29 30  2  0  0  0
 30 26  1  0  0  0
 26  1  1  0  0  0
  1  2  2  0  0  0
  2  3  1  0  0  0
  3  4  2  0  0  0
  4  8  1  0  0  0
  8  9  1  0  0  0
  9 10  2  0  0  0
  9 12  1  0  0  0
 12 13  1  0  0  0
 13 14  1  0  0  0
 12 15  1  0  0  0
 15 16  2  0  0  0
 15 17  1  0  0  0
 17 19  1  0  0  0
 19 20  2  0  0  0
 20 21  1  0  0  0
 21 22  1  0  0  0
 22 23  1  0  0  0
 22 24  1  0  0  0
 24 25  2  0  0  0
  4  5  1  0  0  0
  5  6  2  0  0  0
  6  7  1  0  0  0
 30 31  1  0  0  0
 31 32  2  0  0  0
 32 33  1  0  0  0
 33 34  2  0  0  0
 34 35  1  0  0  0
 35 36  2  0  0  0
 36 39  1  0  0  0
 39 40  1  0  0  0
 40 41  1  0  0  0
 41 42  1  0  0  0
 42 43  1  0  0  0
 43 44  1  0  0  0
 44 45  1  0  0  0
 45 46  1  0  0  0
 46 47  1  0  0  0
 47 48  1  0  0  0
 36 27  1  0  0  0
 48 43  1  0  0  0
 34 29  1  0  0  0
  6  1  1  0  0  0
 14 12  1  0  0  0
 25 19  1  0  0  0
  8 11  1  0  0  0
 17 18  1  0  0  0
M  END
> <minimizedAffinity>
-9.08721

> <CNNscore>
0.1672569513

> <CNNaffinity>
6.5816869736

> <CNN_VS>
1.1008329391

> <CNNaffinity_variance>
0.3323383331

$$$$
[H]C1=C([H])C([H])(F)C([H])([H])C([H])=C1N([H])C(=O)C1(C(=O)N([H])c2c([H])c([H])c(Oc3c([H])c([H])nc4c([H])c(OC([H])([H])C([H])([H])C([H])([H])N5C([H])([H])C([H])([H])OC([H])([H])C5([H])[H])c(OC([H])([H])[H])c([H])c34)c(F)c2[H])C([H])([H])C1([H])[H]


 48 53  0  0  0  0  0  0  0  0999 V2000
    3.2241    2.4124   15.0339 C   0  0  0  0  0  0  0  0  0  0  0  0
    2.9436    1.7931   16.2439 C   0  0  0  0  0  0  0  0  0  0  0  0
    3.4378    2.1922   17.4500 C   0  0  0  0  0  0  0  0  0  0  0  0
    4.2903    3.3009   17.5004 C   0  0  0  0  0  0  0  0  0  0  0  0
    4.5920    3.9419   16.3297 C   0  0  0  0  0  0  0  0  0  0  0  0
    4.0675    3.5079   15.1012 C   0  0  0  0  0  0  0  0  0  0  0  0
    4.3915    4.2103   13.9908 F   0  0  0  0  0  0  0  0  0  0  0  0
    4.7705    3.7381   18.7857 N   0  0  0  0  0  0  0  0  0  0  0  0
    4.2352    4.8116   19.4600 C   0  0  0  0  0  0  0  0  0  0  0  0
    3.2801    5.4454   18.8518 O   0  0  0  0  0  0  0  0  0  0  0  0
    5.5680    3.1881   19.1398 H   0  0  0  0  0  0  0  0  0  0  0  0
    4.5597    5.3937   20.7847 C   0  0  0  0  0  0  0  0  0  0  0  0
    4.8449    4.3694   21.8700 C   0  0  0  0  0  0  0  0  0  0  0  0
    3.5180    4.9777   21.8973 C   0  0  0  0  0  0  0  0  0  0  0  0
    5.0971    6.7397   20.9866 C   0  0  0  0  0  0  0  0  0  0  0  0
    6.3508    6.8610   20.6100 O   0  0  0  0  0  0  0  0  0  0  0  0
    4.5591    7.9188   21.4877 N   0  0  0  0  0  0  0  0  0  0  0  0
    3.5825    8.0246   21.8076 H   0  0  0  0  0  0  0  0  0  0  0  0
    5.3670    9.1363   21.5649 C   0  0  0  0  0  0  0  0  0  0  0  0
    5.2553    9.9962   20.5780 C   0  0  0  0  0  0  0  0  0  0  0  0
    5.9666   11.2658   20.4622 C   0  0  0  0  0  0  0  0  0  0  0  0
    6.9248   11.5579   21.5501 C   0  0  0  0  0  0  0  0  0  0  0  0
    6.5774   12.7819   22.1772 F   0  0  0  0  0  0  0  0  0  0  0  0
    6.9727   10.5380   22.5994 C   0  0  0  0  0  0  0  0  0  0  0  0
    6.2720    9.4227   22.6307 C   0  0  0  0  0  0  0  0  0  0  0  0
    2.6891    1.9612   13.8474 O   0  0  0  0  0  0  0  0  0  0  0  0
    2.2769    1.0133    9.8850 C   0  0  0  0  0  0  0  0  0  0  0  0
    2.4269    1.3168   11.2102 C   0  0  0  0  0  0  0  0  0  0  0  0
    1.7223    2.3795   11.7335 C   0  0  0  0  0  0  0  0  0  0  0  0
    1.8470    2.7323   13.0946 C   0  0  0  0  0  0  0  0  0  0  0  0
    1.1389    3.7992   13.5956 C   0  0  0  0  0  0  0  0  0  0  0  0
    0.3007    4.5365   12.7886 C   0  0  0  0  0  0  0  0  0  0  0  0
    0.1833    4.1981   11.4949 N   0  0  0  0  0  0  0  0  0  0  0  0
    0.8752    3.1461   10.9757 C   0  0  0  0  0  0  0  0  0  0  0  0
    0.7270    2.8340    9.6328 C   0  0  0  0  0  0  0  0  0  0  0  0
    1.4153    1.7796    9.0826 C   0  0  0  0  0  0  0  0  0  0  0  0
    4.3258    0.0481    9.0514 C   0  0  0  0  0  0  0  0  0  0  0  0
    2.9336   -0.0275    9.2569 O   0  0  0  0  0  0  0  0  0  0  0  0
    1.2714    1.4609    7.7719 O   0  0  0  0  0  0  0  0  0  0  0  0
    0.1799    1.7740    6.9855 C   0  0  0  0  0  0  0  0  0  0  0  0
   -0.3053    0.5872    6.1648 C   0  0  0  0  0  0  0  0  0  0  0  0
   -0.9668   -0.4171    7.1181 C   0  0  0  0  0  0  0  0  0  0  0  0
   -2.2063    0.1568    7.5789 N   0  0  0  0  0  0  0  0  0  0  0  0
   -3.2226    0.0850    6.5033 C   0  0  0  0  0  0  0  0  0  0  0  0
   -4.5057    0.5990    7.1628 C   0  0  0  0  0  0  0  0  0  0  0  0
   -4.2484    1.2998    8.3410 O   0  0  0  0  0  0  0  0  0  0  0  0
   -3.7425    0.4590    9.3521 C   0  0  0  0  0  0  0  0  0  0  0  0
   -2.7862   -0.5576    8.7148 C   0  0  0  0  0  0  0  0  0  0  0  0
 37 38  1  0  0  0
 38 27  1  0  0  0
 27 28  2  0  0  0
 28 29  1  0  0  0
 29 30  2  0  0  0
 30 26  1  0  0  0
 26  1  1  0  0  0
  1  2  2  0  0  0
  2  3  1  0  0  0
  3  4  2  0  0  0
  4  8  1  0  0  0
  8  9  1  0  0  0
  9 10  2  0  0  0
  9 12  1  0  0  0
 12 13  1  0  0  0
 13 14  1  0  0  0
 12 15  1  0  0  0
 15 16  2  0  0  0
 15 17  1  0  0  0
 17 19  1  0  0  0
 19 20  2  0  0  0
 20 21  1  0  0  0
 21 22  1  0  0  0
 22 23  1  0  0  0
 22 24  1  0  0  0
 24 25  2  0  0  0
  4  5  1  0  0  0
  5  6  2  0  0  0
  6  7  1  0  0  0
 30 31  1  0  0  0
 31 32  2  0  0  0
 32 33  1  0  0  0
 33 34  2  0  0  0
 34 35  1  0  0  0
 35 36  2  0  0  0
 36 39  1  0  0  0
 39 40  1  0  0  0
 40 41  1  0  0  0
 41 42  1  0  0  0
 42 43  1  0  0  0
 43 44  1  0  0  0
 44 45  1  0  0  0
 45 46  1  0  0  0
 46 47  1  0  0  0
 47 48  1  0  0  0
 36 27  1  0  0  0
 48 43  1  0  0  0
 34 29  1  0  0  0
  6  1  1  0  0  0
 14 12  1  0  0  0
 25 19  1  0  0  0
  8 11  1  0  0  0
 17 18  1  0  0  0
M  END
> <minimizedAffinity>
-7.47899

> <CNNscore>
0.1565794200

> <CNNaffinity>
6.4127225876

> <CNN_VS>
1.0041004419

> <CNNaffinity_variance>
0.3706519306

$$$$
[H]C1=C([H])C([H])(F)C([H])([H])C([H])=C1N([H])C(=O)C1(C(=O)N([H])c2c([H])c([H])c(Oc3c([H])c([H])nc4c([H])c(OC([H])([H])C([H])([H])C([H])([H])N5C([H])([H])C([H])([H])OC([H])([H])C5([H])[H])c(OC([H])([H])[H])c([H])c34)c(F)c2[H])C([H])([H])C1([H])[H]


 48 53  0  0  0  0  0  0  0  0999 V2000
    3.2929    3.0559   14.3363 C   0  0  0  0  0  0  0  0  0  0  0  0
    2.0791    2.3947   14.4620 C   0  0  0  0  0  0  0  0  0  0  0  0
    1.1916    2.2067   13.4446 C   0  0  0  0  0  0  0  0  0  0  0  0
    1.5007    2.7055   12.1741 C   0  0  0  0  0  0  0  0  0  0  0  0
    2.6888    3.3634   12.0061 C   0  0  0  0  0  0  0  0  0  0  0  0
    3.5841    3.5418   13.0735 C   0  0  0  0  0  0  0  0  0  0  0  0
    4.7506    4.1798   12.8214 F   0  0  0  0  0  0  0  0  0  0  0  0
    0.5746    2.4624   11.0985 N   0  0  0  0  0  0  0  0  0  0  0  0
   -0.3459    3.3945   10.6773 C   0  0  0  0  0  0  0  0  0  0  0  0
   -0.3623    4.5136   11.3341 O   0  0  0  0  0  0  0  0  0  0  0  0
    0.6490    1.5172   10.6925 H   0  0  0  0  0  0  0  0  0  0  0  0
   -1.3495    3.3529    9.5865 C   0  0  0  0  0  0  0  0  0  0  0  0
   -1.0133    2.3932    8.4575 C   0  0  0  0  0  0  0  0  0  0  0  0
   -0.7487    3.8052    8.1971 C   0  0  0  0  0  0  0  0  0  0  0  0
   -2.7562    3.7241    9.7433 C   0  0  0  0  0  0  0  0  0  0  0  0
   -3.5881    2.8175    9.2803 O   0  0  0  0  0  0  0  0  0  0  0  0
   -3.3983    4.8315   10.2838 N   0  0  0  0  0  0  0  0  0  0  0  0
   -2.9124    5.6329   10.7187 H   0  0  0  0  0  0  0  0  0  0  0  0
   -4.8590    4.9163   10.2983 C   0  0  0  0  0  0  0  0  0  0  0  0
   -5.4311    5.6076    9.3388 C   0  0  0  0  0  0  0  0  0  0  0  0
   -6.8663    5.8140    9.1692 C   0  0  0  0  0  0  0  0  0  0  0  0
   -7.7219    5.2134   10.2153 C   0  0  0  0  0  0  0  0  0  0  0  0
   -8.6413    4.3113    9.6213 F   0  0  0  0  0  0  0  0  0  0  0  0
   -6.9871    4.4647   11.2367 C   0  0  0  0  0  0  0  0  0  0  0  0
   -5.6797    4.3134   11.2982 C   0  0  0  0  0  0  0  0  0  0  0  0
    4.1485    3.2099   15.4049 O   0  0  0  0  0  0  0  0  0  0  0  0
    4.3615    2.5145   19.4348 C   0  0  0  0  0  0  0  0  0  0  0  0
    4.2909    2.7290   18.0858 C   0  0  0  0  0  0  0  0  0  0  0  0
    4.1545    4.0202   17.6234 C   0  0  0  0  0  0  0  0  0  0  0  0
    4.0746    4.2903   16.2402 C   0  0  0  0  0  0  0  0  0  0  0  0
    3.9337    5.5854   15.8000 C   0  0  0  0  0  0  0  0  0  0  0  0
    3.8703    6.6347   16.6902 C   0  0  0  0  0  0  0  0  0  0  0  0
    3.9476    6.3748   18.0049 N   0  0  0  0  0  0  0  0  0  0  0  0
    4.0864    5.1004   18.4648 C   0  0  0  0  0  0  0  0  0  0  0  0
    4.1582    4.8772   19.8314 C   0  0  0  0  0  0  0  0  0  0  0  0
    4.2955    3.6011   20.3226 C   0  0  0  0  0  0  0  0  0  0  0  0
    3.3845    0.4022   20.0736 C   0  0  0  0  0  0  0  0  0  0  0  0
    4.4973    1.2643   20.0070 O   0  0  0  0  0  0  0  0  0  0  0  0
    4.3748    3.3726   21.6574 O   0  0  0  0  0  0  0  0  0  0  0  0
    5.1052    4.1235   22.5577 C   0  0  0  0  0  0  0  0  0  0  0  0
    6.5079    4.4333   22.0536 C   0  0  0  0  0  0  0  0  0  0  0  0
    6.7547    5.9391   22.2165 C   0  0  0  0  0  0  0  0  0  0  0  0
    7.6835    6.3510   21.1940 N   0  0  0  0  0  0  0  0  0  0  0  0
    7.0763    7.4188   20.3656 C   0  0  0  0  0  0  0  0  0  0  0  0
    8.2020    7.8477   19.4200 C   0  0  0  0  0  0  0  0  0  0  0  0
    9.2266    6.9033   19.3579 O   0  0  0  0  0  0  0  0  0  0  0  0
    9.9225    6.8028   20.5790 C   0  0  0  0  0  0  0  0  0  0  0  0
    8.9163    6.9244   21.7310 C   0  0  0  0  0  0  0  0  0  0  0  0
 37 38  1  0  0  0
 38 27  1  0  0  0
 27 28  2  0  0  0
 28 29  1  0  0  0
 29 30  2  0  0  0
 30 26  1  0  0  0
 26  1  1  0  0  0
  1  2  2  0  0  0
  2  3  1  0  0  0
  3  4  2  0  0  0
  4  8  1  0  0  0
  8  9  1  0  0  0
  9 10  2  0  0  0
  9 12  1  0  0  0
 12 13  1  0  0  0
 13 14  1  0  0  0
 12 15  1  0  0  0
 15 16  2  0  0  0
 15 17  1  0  0  0
 17 19  1  0  0  0
 19 20  2  0  0  0
 20 21  1  0  0  0
 21 22  1  0  0  0
 22 23  1  0  0  0
 22 24  1  0  0  0
 24 25  2  0  0  0
  4  5  1  0  0  0
  5  6  2  0  0  0
  6  7  1  0  0  0
 30 31  1  0  0  0
 31 32  2  0  0  0
 32 33  1  0  0  0
 33 34  2  0  0  0
 34 35  1  0  0  0
 35 36  2  0  0  0
 36 39  1  0  0  0
 39 40  1  0  0  0
 40 41  1  0  0  0
 41 42  1  0  0  0
 42 43  1  0  0  0
 43 44  1  0  0  0
 44 45  1  0  0  0
 45 46  1  0  0  0
 46 47  1  0  0  0
 47 48  1  0  0  0
 36 27  1  0  0  0
 48 43  1  0  0  0
 34 29  1  0  0  0
  6  1  1  0  0  0
 14 12  1  0  0  0
 25 19  1  0  0  0
  8 11  1  0  0  0
 17 18  1  0  0  0
M  END
> <minimizedAffinity>
-8.17640

> <CNNscore>
0.1456361264

> <CNNaffinity>
6.4738869667

> <CNN_VS>
0.9428318143

> <CNNaffinity_variance>
0.1585608274

$$$$
[H]C1=C([H])C([H])(F)C([H])([H])C([H])=C1N([H])C(=O)C1(C(=O)N([H])c2c([H])c([H])c(Oc3c([H])c([H])nc4c([H])c(OC([H])([H])C([H])([H])C([H])([H])N5C([H])([H])C([H])([H])OC([H])([H])C5([H])[H])c(OC([H])([H])[H])c([H])c34)c(F)c2[H])C([H])([H])C1([H])[H]


 48 53  0  0  0  0  0  0  0  0999 V2000
    3.9555    2.8386   15.9496 C   0  0  0  0  0  0  0  0  0  0  0  0
    3.7795    4.0920   15.3801 C   0  0  0  0  0  0  0  0  0  0  0  0
    2.8326    4.3915   14.4464 C   0  0  0  0  0  0  0  0  0  0  0  0
    1.9641    3.3831   14.0135 C   0  0  0  0  0  0  0  0  0  0  0  0
    2.1025    2.1321   14.5506 C   0  0  0  0  0  0  0  0  0  0  0  0
    3.0878    1.8530   15.5118 C   0  0  0  0  0  0  0  0  0  0  0  0
    3.1441    0.5979   16.0148 F   0  0  0  0  0  0  0  0  0  0  0  0
    0.9408    3.7232   13.0592 N   0  0  0  0  0  0  0  0  0  0  0  0
    1.0972    3.5576   11.7020 C   0  0  0  0  0  0  0  0  0  0  0  0
    2.2493    3.1037   11.3142 O   0  0  0  0  0  0  0  0  0  0  0  0
    0.0924    4.1254   13.4860 H   0  0  0  0  0  0  0  0  0  0  0  0
    0.1696    3.8122   10.5734 C   0  0  0  0  0  0  0  0  0  0  0  0
    0.5457    3.1117    9.2787 C   0  0  0  0  0  0  0  0  0  0  0  0
    0.8808    4.5304    9.3592 C   0  0  0  0  0  0  0  0  0  0  0  0
   -1.2294    4.2122   10.7278 C   0  0  0  0  0  0  0  0  0  0  0  0
   -1.4474    4.9375   11.8024 O   0  0  0  0  0  0  0  0  0  0  0  0
   -2.3758    3.9913    9.9742 N   0  0  0  0  0  0  0  0  0  0  0  0
   -2.3968    3.4670    9.0843 H   0  0  0  0  0  0  0  0  0  0  0  0
   -3.6658    4.5372   10.3971 C   0  0  0  0  0  0  0  0  0  0  0  0
   -4.0137    5.7062    9.9089 C   0  0  0  0  0  0  0  0  0  0  0  0
   -5.2522    6.4225   10.1990 C   0  0  0  0  0  0  0  0  0  0  0  0
   -6.1538    5.7641   11.1688 C   0  0  0  0  0  0  0  0  0  0  0  0
   -7.4199    5.5411   10.5693 F   0  0  0  0  0  0  0  0  0  0  0  0
   -5.6746    4.4676   11.6514 C   0  0  0  0  0  0  0  0  0  0  0  0
   -4.5421    3.8843   11.3151 C   0  0  0  0  0  0  0  0  0  0  0  0
    4.9311    2.6013   16.8927 O   0  0  0  0  0  0  0  0  0  0  0  0
    5.9086    6.0929   18.7960 C   0  0  0  0  0  0  0  0  0  0  0  0
    5.5891    4.9332   18.1450 C   0  0  0  0  0  0  0  0  0  0  0  0
    5.0200    3.9026   18.8617 C   0  0  0  0  0  0  0  0  0  0  0  0
    4.6760    2.6861   18.2336 C   0  0  0  0  0  0  0  0  0  0  0  0
    4.1137    1.6686   18.9680 C   0  0  0  0  0  0  0  0  0  0  0  0
    3.8753    1.8147   20.3168 C   0  0  0  0  0  0  0  0  0  0  0  0
    4.2025    2.9730   20.9111 N   0  0  0  0  0  0  0  0  0  0  0  0
    4.7614    3.9947   20.2048 C   0  0  0  0  0  0  0  0  0  0  0  0
    5.0874    5.1725   20.8598 C   0  0  0  0  0  0  0  0  0  0  0  0
    5.6548    6.2181   20.1719 C   0  0  0  0  0  0  0  0  0  0  0  0
    6.0009    7.6124   16.9234 C   0  0  0  0  0  0  0  0  0  0  0  0
    6.4824    7.1870   18.1777 O   0  0  0  0  0  0  0  0  0  0  0  0
    5.9701    7.3776   20.8016 O   0  0  0  0  0  0  0  0  0  0  0  0
    5.0637    8.2720   21.3366 C   0  0  0  0  0  0  0  0  0  0  0  0
    5.0007    9.5753   20.5525 C   0  0  0  0  0  0  0  0  0  0  0  0
    3.9236    9.4317   19.4688 C   0  0  0  0  0  0  0  0  0  0  0  0
    3.8851   10.6594   18.7142 N   0  0  0  0  0  0  0  0  0  0  0  0
    2.4814   11.0044   18.3893 C   0  0  0  0  0  0  0  0  0  0  0  0
    2.5774   12.3755   17.7139 C   0  0  0  0  0  0  0  0  0  0  0  0
    3.8726   12.6604   17.2814 O   0  0  0  0  0  0  0  0  0  0  0  0
    4.7617   12.8279   18.3615 C   0  0  0  0  0  0  0  0  0  0  0  0
    4.4104   11.8070   19.4518 C   0  0  0  0  0  0  0  0  0  0  0  0
 37 38  1  0  0  0
 38 27  1  0  0  0
 27 28  2  0  0  0
 28 29  1  0  0  0
 29 30  2  0  0  0
 30 26  1  0  0  0
 26  1  1  0  0  0
  1  2  2  0  0  0
  2  3  1  0  0  0
  3  4  2  0  0  0
  4  8  1  0  0  0
  8  9  1  0  0  0
  9 10  2  0  0  0
  9 12  1  0  0  0
 12 13  1  0  0  0
 13 14  1  0  0  0
 12 15  1  0  0  0
 15 16  2  0  0  0
 15 17  1  0  0  0
 17 19  1  0  0  0
 19 20  2  0  0  0
 20 21  1  0  0  0
 21 22  1  0  0  0
 22 23  1  0  0  0
 22 24  1  0  0  0
 24 25  2  0  0  0
  4  5  1  0  0  0
  5  6  2  0  0  0
  6  7  1  0  0  0
 30 31  1  0  0  0
 31 32  2  0  0  0
 32 33  1  0  0  0
 33 34  2  0  0  0
 34 35  1  0  0  0
 35 36  2  0  0  0
 36 39  1  0  0  0
 39 40  1  0  0  0
 40 41  1  0  0  0
 41 42  1  0  0  0
 42 43  1  0  0  0
 43 44  1  0  0  0
 44 45  1  0  0  0
 45 46  1  0  0  0
 46 47  1  0  0  0
 47 48  1  0  0  0
 36 27  1  0  0  0
 48 43  1  0  0  0
 34 29  1  0  0  0
  6  1  1  0  0  0
 14 12  1  0  0  0
 25 19  1  0  0  0
  8 11  1  0  0  0
 17 18  1  0  0  0
M  END
> <minimizedAffinity>
-9.19172

> <CNNscore>
0.1393375993

> <CNNaffinity>
6.4969038963

> <CNN_VS>
0.9052630067

> <CNNaffinity_variance>
0.3726086020

$$$$
[H]C1=C([H])C([H])(F)C([H])([H])C([H])=C1N([H])C(=O)C1(C(=O)N([H])c2c([H])c([H])c(Oc3c([H])c([H])nc4c([H])c(OC([H])([H])C([H])([H])C([H])([H])N5C([H])([H])C([H])([H])OC([H])([H])C5([H])[H])c(OC([H])([H])[H])c([H])c34)c(F)c2[H])C([H])([H])C1([H])[H]


 48 53  0  0  0  0  0  0  0  0999 V2000
    3.0486    2.4969   14.8551 C   0  0  0  0  0  0  0  0  0  0  0  0
    2.7155    1.8863   16.0562 C   0  0  0  0  0  0  0  0  0  0  0  0
    3.2295    2.2346   17.2697 C   0  0  0  0  0  0  0  0  0  0  0  0
    4.1605    3.2772   17.3380 C   0  0  0  0  0  0  0  0  0  0  0  0
    4.5161    3.9074   16.1766 C   0  0  0  0  0  0  0  0  0  0  0  0
    3.9694    3.5268   14.9402 C   0  0  0  0  0  0  0  0  0  0  0  0
    4.3514    4.2160   13.8399 F   0  0  0  0  0  0  0  0  0  0  0  0
    4.6628    3.6636   18.6311 N   0  0  0  0  0  0  0  0  0  0  0  0
    4.2230    4.7816   19.3023 C   0  0  0  0  0  0  0  0  0  0  0  0
    3.3408    5.5049   18.6840 O   0  0  0  0  0  0  0  0  0  0  0  0
    5.3996    3.0394   18.9936 H   0  0  0  0  0  0  0  0  0  0  0  0
    4.5836    5.3270   20.6332 C   0  0  0  0  0  0  0  0  0  0  0  0
    4.9239    4.2740   21.6744 C   0  0  0  0  0  0  0  0  0  0  0  0
    3.5886    4.8570   21.7668 C   0  0  0  0  0  0  0  0  0  0  0  0
    5.1048    6.6753   20.8601 C   0  0  0  0  0  0  0  0  0  0  0  0
    6.3674    6.8090   20.5192 O   0  0  0  0  0  0  0  0  0  0  0  0
    4.5441    7.8464   21.3552 N   0  0  0  0  0  0  0  0  0  0  0  0
    3.5582    7.9423   21.6489 H   0  0  0  0  0  0  0  0  0  0  0  0
    5.3401    9.0693   21.4639 C   0  0  0  0  0  0  0  0  0  0  0  0
    5.2094    9.9594   20.5067 C   0  0  0  0  0  0  0  0  0  0  0  0
    5.9063   11.2396   20.4252 C   0  0  0  0  0  0  0  0  0  0  0  0
    6.8725   11.5066   21.5125 C   0  0  0  0  0  0  0  0  0  0  0  0
    6.5190   12.7058   22.1824 F   0  0  0  0  0  0  0  0  0  0  0  0
    6.9417   10.4538   22.5276 C   0  0  0  0  0  0  0  0  0  0  0  0
    6.2530    9.3307   22.5295 C   0  0  0  0  0  0  0  0  0  0  0  0
    2.4899    2.0994   13.6604 O   0  0  0  0  0  0  0  0  0  0  0  0
    3.7232    2.6276    9.7914 C   0  0  0  0  0  0  0  0  0  0  0  0
    3.3254    2.4404   11.0866 C   0  0  0  0  0  0  0  0  0  0  0  0
    2.2175    3.1185   11.5472 C   0  0  0  0  0  0  0  0  0  0  0  0
    1.7711    2.9595   12.8769 C   0  0  0  0  0  0  0  0  0  0  0  0
    0.6663    3.6492   13.3179 C   0  0  0  0  0  0  0  0  0  0  0  0
   -0.0213    4.4989   12.4796 C   0  0  0  0  0  0  0  0  0  0  0  0
    0.4049    4.6472   11.2155 N   0  0  0  0  0  0  0  0  0  0  0  0
    1.4971    3.9756   10.7561 C   0  0  0  0  0  0  0  0  0  0  0  0
    1.9049    4.1617    9.4440 C   0  0  0  0  0  0  0  0  0  0  0  0
    3.0049    3.4987    8.9556 C   0  0  0  0  0  0  0  0  0  0  0  0
    4.8043    0.6038    9.0430 C   0  0  0  0  0  0  0  0  0  0  0  0
    4.8173    2.0011    9.2264 O   0  0  0  0  0  0  0  0  0  0  0  0
    3.4075    3.6676    7.6712 O   0  0  0  0  0  0  0  0  0  0  0  0
    4.1795    4.7130    7.2034 C   0  0  0  0  0  0  0  0  0  0  0  0
    3.5569    5.4013    5.9968 C   0  0  0  0  0  0  0  0  0  0  0  0
    2.3711    6.2446    6.4843 C   0  0  0  0  0  0  0  0  0  0  0  0
    2.8770    7.5327    6.8877 N   0  0  0  0  0  0  0  0  0  0  0  0
    3.8209    8.0430    5.8661 C   0  0  0  0  0  0  0  0  0  0  0  0
    4.1728    9.4529    6.3496 C   0  0  0  0  0  0  0  0  0  0  0  0
    3.8492    9.6455    7.6927 O   0  0  0  0  0  0  0  0  0  0  0  0
    2.4564    9.6264    7.9050 C   0  0  0  0  0  0  0  0  0  0  0  0
    1.8352    8.5517    7.0031 C   0  0  0  0  0  0  0  0  0  0  0  0
 37 38  1  0  0  0
 38 27  1  0  0  0
 27 28  2  0  0  0
 28 29  1  0  0  0
 29 30  2  0  0  0
 30 26  1  0  0  0
 26  1  1  0  0  0
  1  2  2  0  0  0
  2  3  1  0  0  0
  3  4  2  0  0  0
  4  8  1  0  0  0
  8  9  1  0  0  0
  9 10  2  0  0  0
  9 12  1  0  0  0
 12 13  1  0  0  0
 13 14  1  0  0  0
 12 15  1  0  0  0
 15 16  2  0  0  0
 15 17  1  0  0  0
 17 19  1  0  0  0
 19 20  2  0  0  0
 20 21  1  0  0  0
 21 22  1  0  0  0
 22 23  1  0  0  0
 22 24  1  0  0  0
 24 25  2  0  0  0
  4  5  1  0  0  0
  5  6  2  0  0  0
  6  7  1  0  0  0
 30 31  1  0  0  0
 31 32  2  0  0  0
 32 33  1  0  0  0
 33 34  2  0  0  0
 34 35  1  0  0  0
 35 36  2  0  0  0
 36 39  1  0  0  0
 39 40  1  0  0  0
 40 41  1  0  0  0
 41 42  1  0  0  0
 42 43  1  0  0  0
 43 44  1  0  0  0
 44 45  1  0  0  0
 45 46  1  0  0  0
 46 47  1  0  0  0
 47 48  1  0  0  0
 36 27  1  0  0  0
 48 43  1  0  0  0
 34 29  1  0  0  0
  6  1  1  0  0  0
 14 12  1  0  0  0
 25 19  1  0  0  0
  8 11  1  0  0  0
 17 18  1  0  0  0
M  END
> <minimizedAffinity>
-7.55496

> <CNNscore>
0.1243644133

> <CNNaffinity>
6.4305968285

> <CNN_VS>
0.7997373939

> <CNNaffinity_variance>
0.2181826383

$$$$
[H]C1=C([H])C([H])(F)C([H])([H])C([H])=C1N([H])C(=O)C1(C(=O)N([H])c2c([H])c([H])c(Oc3c([H])c([H])nc4c([H])c(OC([H])([H])C([H])([H])C([H])([H])N5C([H])([H])C([H])([H])OC([H])([H])C5([H])[H])c(OC([H])([H])[H])c([H])c34)c(F)c2[H])C([H])([H])C1([H])[H]


 48 53  0  0  0  0  0  0  0  0999 V2000
    3.9984    2.1809   16.6824 C   0  0  0  0  0  0  0  0  0  0  0  0
    4.3400    3.3600   16.0349 C   0  0  0  0  0  0  0  0  0  0  0  0
    3.6231    3.9212   15.0203 C   0  0  0  0  0  0  0  0  0  0  0  0
    2.4569    3.2843   14.5808 C   0  0  0  0  0  0  0  0  0  0  0  0
    2.0831    2.1191   15.1933 C   0  0  0  0  0  0  0  0  0  0  0  0
    2.8419    1.5645   16.2369 C   0  0  0  0  0  0  0  0  0  0  0  0
    2.3923    0.4238   16.8096 F   0  0  0  0  0  0  0  0  0  0  0  0
    1.6859    3.9101   13.5380 N   0  0  0  0  0  0  0  0  0  0  0  0
    1.0056    5.0929   13.7161 C   0  0  0  0  0  0  0  0  0  0  0  0
    1.0652    5.6089   14.9053 O   0  0  0  0  0  0  0  0  0  0  0  0
    1.6710    3.3762   12.6556 H   0  0  0  0  0  0  0  0  0  0  0  0
    0.1939    5.9041   12.7770 C   0  0  0  0  0  0  0  0  0  0  0  0
   -1.0559    6.5139   13.3893 C   0  0  0  0  0  0  0  0  0  0  0  0
   -1.2597    5.3187   12.5760 C   0  0  0  0  0  0  0  0  0  0  0  0
    0.7193    6.5429   11.5700 C   0  0  0  0  0  0  0  0  0  0  0  0
    0.5224    7.8424   11.5415 O   0  0  0  0  0  0  0  0  0  0  0  0
    1.3878    6.0656   10.4492 N   0  0  0  0  0  0  0  0  0  0  0  0
    1.6545    5.0778   10.3059 H   0  0  0  0  0  0  0  0  0  0  0  0
    1.7979    6.9750    9.3788 C   0  0  0  0  0  0  0  0  0  0  0  0
    0.9775    7.1170    8.3627 C   0  0  0  0  0  0  0  0  0  0  0  0
    1.1937    7.9714    7.1989 C   0  0  0  0  0  0  0  0  0  0  0  0
    2.4837    8.6942    7.1731 C   0  0  0  0  0  0  0  0  0  0  0  0
    2.2477   10.0906    7.0940 F   0  0  0  0  0  0  0  0  0  0  0  0
    3.3233    8.4683    8.3511 C   0  0  0  0  0  0  0  0  0  0  0  0
    3.0342    7.6881    9.3726 C   0  0  0  0  0  0  0  0  0  0  0  0
    4.7651    1.6671   17.7051 O   0  0  0  0  0  0  0  0  0  0  0  0
    5.6537    5.2861   19.4028 C   0  0  0  0  0  0  0  0  0  0  0  0
    5.3648    4.0827   18.8204 C   0  0  0  0  0  0  0  0  0  0  0  0
    4.7486    3.1085   19.5760 C   0  0  0  0  0  0  0  0  0  0  0  0
    4.4335    1.8502   19.0192 C   0  0  0  0  0  0  0  0  0  0  0  0
    3.8231    0.8903   19.7918 C   0  0  0  0  0  0  0  0  0  0  0  0
    3.5082    1.1351   21.1103 C   0  0  0  0  0  0  0  0  0  0  0  0
    3.8080    2.3329   21.6367 N   0  0  0  0  0  0  0  0  0  0  0  0
    4.4134    3.2990   20.8916 C   0  0  0  0  0  0  0  0  0  0  0  0
    4.7088    4.5208   21.4769 C   0  0  0  0  0  0  0  0  0  0  0  0
    5.3218    5.5120   20.7489 C   0  0  0  0  0  0  0  0  0  0  0  0
    5.7491    6.7818   17.5112 C   0  0  0  0  0  0  0  0  0  0  0  0
    6.2694    6.3309   18.7408 O   0  0  0  0  0  0  0  0  0  0  0  0
    5.6077    6.7137   21.3097 O   0  0  0  0  0  0  0  0  0  0  0  0
    4.9464    7.8980   21.0494 C   0  0  0  0  0  0  0  0  0  0  0  0
    5.4663    9.0523   21.8949 C   0  0  0  0  0  0  0  0  0  0  0  0
    6.9849    9.1471   21.6958 C   0  0  0  0  0  0  0  0  0  0  0  0
    7.6217    8.6992   22.9091 N   0  0  0  0  0  0  0  0  0  0  0  0
    8.9966    8.2344   22.6117 C   0  0  0  0  0  0  0  0  0  0  0  0
    9.5925    7.9177   23.9864 C   0  0  0  0  0  0  0  0  0  0  0  0
    8.6108    7.7830   24.9680 O   0  0  0  0  0  0  0  0  0  0  0  0
    7.9595    9.0046   25.2303 C   0  0  0  0  0  0  0  0  0  0  0  0
    7.7724    9.7574   23.9064 C   0  0  0  0  0  0  0  0  0  0  0  0
 37 38  1  0  0  0
 38 27  1  0  0  0
 27 28  2  0  0  0
 28 29  1  0  0  0
 29 30  2  0  0  0
 30 26  1  0  0  0
 26  1  1  0  0  0
  1  2  2  0  0  0
  2  3  1  0  0  0
  3  4  2  0  0  0
  4  8  1  0  0  0
  8  9  1  0  0  0
  9 10  2  0  0  0
  9 12  1  0  0  0
 12 13  1  0  0  0
 13 14  1  0  0  0
 12 15  1  0  0  0
 15 16  2  0  0  0
 15 17  1  0  0  0
 17 19  1  0  0  0
 19 20  2  0  0  0
 20 21  1  0  0  0
 21 22  1  0  0  0
 22 23  1  0  0  0
 22 24  1  0  0  0
 24 25  2  0  0  0
  4  5  1  0  0  0
  5  6  2  0  0  0
  6  7  1  0  0  0
 30 31  1  0  0  0
 31 32  2  0  0  0
 32 33  1  0  0  0
 33 34  2  0  0  0
 34 35  1  0  0  0
 35 36  2  0  0  0
 36 39  1  0  0  0
 39 40  1  0  0  0
 40 41  1  0  0  0
 41 42  1  0  0  0
 42 43  1  0  0  0
 43 44  1  0  0  0
 44 45  1  0  0  0
 45 46  1  0  0  0
 46 47  1  0  0  0
 47 48  1  0  0  0
 36 27  1  0  0  0
 48 43  1  0  0  0
 34 29  1  0  0  0
  6  1  1  0  0  0
 14 12  1  0  0  0
 25 19  1  0  0  0
  8 11  1  0  0  0
 17 18  1  0  0  0
M  END
> <minimizedAffinity>
-8.86790

> <CNNscore>
0.1188711599

> <CNNaffinity>
6.3549556732

> <CNN_VS>
0.7554209232

> <CNNaffinity_variance>
0.4886535704

$$$$
[H]C1=C([H])C([H])(F)C([H])([H])C([H])=C1N([H])C(=O)C1(C(=O)N([H])c2c([H])c([H])c(Oc3c([H])c([H])nc4c([H])c(OC([H])([H])C([H])([H])C([H])([H])N5C([H])([H])C([H])([H])OC([H])([H])C5([H])[H])c(OC([H])([H])[H])c([H])c34)c(F)c2[H])C([H])([H])C1([H])[H]


 48 53  0  0  0  0  0  0  0  0999 V2000
    4.0973    2.4816   16.9291 C   0  0  0  0  0  0  0  0  0  0  0  0
    4.3867    3.6702   16.2737 C   0  0  0  0  0  0  0  0  0  0  0  0
    3.6087    4.2277   15.3030 C   0  0  0  0  0  0  0  0  0  0  0  0
    2.4303    3.5766   14.9211 C   0  0  0  0  0  0  0  0  0  0  0  0
    2.1066    2.4016   15.5434 C   0  0  0  0  0  0  0  0  0  0  0  0
    2.9279    1.8511   16.5408 C   0  0  0  0  0  0  0  0  0  0  0  0
    2.5260    0.6997   17.1276 F   0  0  0  0  0  0  0  0  0  0  0  0
    1.5958    4.1981   13.9256 N   0  0  0  0  0  0  0  0  0  0  0  0
    1.5585    3.7832   12.6141 C   0  0  0  0  0  0  0  0  0  0  0  0
    2.3553    2.8069   12.3043 O   0  0  0  0  0  0  0  0  0  0  0  0
    1.0501    4.9976   14.2818 H   0  0  0  0  0  0  0  0  0  0  0  0
    0.7582    4.2608   11.4606 C   0  0  0  0  0  0  0  0  0  0  0  0
    1.4258    4.0709   10.1090 C   0  0  0  0  0  0  0  0  0  0  0  0
    1.4796    5.4197   10.6652 C   0  0  0  0  0  0  0  0  0  0  0  0
   -0.6985    4.3990   11.4662 C   0  0  0  0  0  0  0  0  0  0  0  0
   -1.2194    4.3654   12.6728 O   0  0  0  0  0  0  0  0  0  0  0  0
   -1.6471    4.5639   10.4644 N   0  0  0  0  0  0  0  0  0  0  0  0
   -1.4257    4.6396    9.4581 H   0  0  0  0  0  0  0  0  0  0  0  0
   -3.0689    4.6766   10.7914 C   0  0  0  0  0  0  0  0  0  0  0  0
   -3.8711    3.7517   10.3152 C   0  0  0  0  0  0  0  0  0  0  0  0
   -5.3141    3.6780   10.5237 C   0  0  0  0  0  0  0  0  0  0  0  0
   -5.8991    4.7854   11.3101 C   0  0  0  0  0  0  0  0  0  0  0  0
   -6.5631    4.2637   12.4498 F   0  0  0  0  0  0  0  0  0  0  0  0
   -4.9211    5.7615   11.7942 C   0  0  0  0  0  0  0  0  0  0  0  0
   -3.6228    5.7356   11.5717 C   0  0  0  0  0  0  0  0  0  0  0  0
    4.9247    1.9721   17.9056 O   0  0  0  0  0  0  0  0  0  0  0  0
    5.6480    5.4904   19.8721 C   0  0  0  0  0  0  0  0  0  0  0  0
    5.4139    4.3222   19.2004 C   0  0  0  0  0  0  0  0  0  0  0  0
    4.8580    3.2617   19.8831 C   0  0  0  0  0  0  0  0  0  0  0  0
    4.6009    2.0355   19.2327 C   0  0  0  0  0  0  0  0  0  0  0  0
    4.0503    0.9883   19.9335 C   0  0  0  0  0  0  0  0  0  0  0  0
    3.7399    1.1137   21.2697 C   0  0  0  0  0  0  0  0  0  0  0  0
    3.9846    2.2812   21.8851 N   0  0  0  0  0  0  0  0  0  0  0  0
    4.5302    3.3322   21.2124 C   0  0  0  0  0  0  0  0  0  0  0  0
    4.7699    4.5189   21.8885 C   0  0  0  0  0  0  0  0  0  0  0  0
    5.3220    5.5940   21.2345 C   0  0  0  0  0  0  0  0  0  0  0  0
    7.5307    6.5764   18.8231 C   0  0  0  0  0  0  0  0  0  0  0  0
    6.2009    6.6139   19.2882 O   0  0  0  0  0  0  0  0  0  0  0  0
    5.5530    6.7620   21.8847 O   0  0  0  0  0  0  0  0  0  0  0  0
    6.6214    7.0158   22.7226 C   0  0  0  0  0  0  0  0  0  0  0  0
    7.3401    8.3113   22.3723 C   0  0  0  0  0  0  0  0  0  0  0  0
    8.1535    8.7547   23.5957 C   0  0  0  0  0  0  0  0  0  0  0  0
    8.9979    7.6553   23.9910 N   0  0  0  0  0  0  0  0  0  0  0  0
   10.1920    7.6003   23.1157 C   0  0  0  0  0  0  0  0  0  0  0  0
   11.0523    6.4878   23.7220 C   0  0  0  0  0  0  0  0  0  0  0  0
   10.3230    5.6676   24.5829 O   0  0  0  0  0  0  0  0  0  0  0  0
    9.9139    6.3557   25.7424 C   0  0  0  0  0  0  0  0  0  0  0  0
    9.5150    7.7850   25.3522 C   0  0  0  0  0  0  0  0  0  0  0  0
 37 38  1  0  0  0
 38 27  1  0  0  0
 27 28  2  0  0  0
 28 29  1  0  0  0
 29 30  2  0  0  0
 30 26  1  0  0  0
 26  1  1  0  0  0
  1  2  2  0  0  0
  2  3  1  0  0  0
  3  4  2  0  0  0
  4  8  1  0  0  0
  8  9  1  0  0  0
  9 10  2  0  0  0
  9 12  1  0  0  0
 12 13  1  0  0  0
 13 14  1  0  0  0
 12 15  1  0  0  0
 15 16  2  0  0  0
 15 17  1  0  0  0
 17 19  1  0  0  0
 19 20  2  0  0  0
 20 21  1  0  0  0
 21 22  1  0  0  0
 22 23  1  0  0  0
 22 24  1  0  0  0
 24 25  2  0  0  0
  4  5  1  0  0  0
  5  6  2  0  0  0
  6  7  1  0  0  0
 30 31  1  0  0  0
 31 32  2  0  0  0
 32 33  1  0  0  0
 33 34  2  0  0  0
 34 35  1  0  0  0
 35 36  2  0  0  0
 36 39  1  0  0  0
 39 40  1  0  0  0
 40 41  1  0  0  0
 41 42  1  0  0  0
 42 43  1  0  0  0
 43 44  1  0  0  0
 44 45  1  0  0  0
 45 46  1  0  0  0
 46 47  1  0  0  0
 47 48  1  0  0  0
 36 27  1  0  0  0
 48 43  1  0  0  0
 34 29  1  0  0  0
  6  1  1  0  0  0
 14 12  1  0  0  0
 25 19  1  0  0  0
  8 11  1  0  0  0
 17 18  1  0  0  0
M  END
> <minimizedAffinity>
-8.90790

> <CNNscore>
0.1155540943

> <CNNaffinity>
6.6065053940

> <CNN_VS>
0.7634087205

> <CNNaffinity_variance>
0.2397728264

$$$$
[H]C1=C([H])C([H])(F)C([H])([H])C([H])=C1N([H])C(=O)C1(C(=O)N([H])c2c([H])c([H])c(Oc3c([H])c([H])nc4c([H])c(OC([H])([H])C([H])([H])C([H])([H])N5C([H])([H])C([H])([H])OC([H])([H])C5([H])[H])c(OC([H])([H])[H])c([H])c34)c(F)c2[H])C([H])([H])C1([H])[H]


 48 53  0  0  0  0  0  0  0  0999 V2000
    4.6166    2.1526   18.1943 C   0  0  0  0  0  0  0  0  0  0  0  0
    5.1252    3.1373   17.3587 C   0  0  0  0  0  0  0  0  0  0  0  0
    4.6311    3.4348   16.1236 C   0  0  0  0  0  0  0  0  0  0  0  0
    3.5349    2.7118   15.6394 C   0  0  0  0  0  0  0  0  0  0  0  0
    3.0018    1.7321   16.4321 C   0  0  0  0  0  0  0  0  0  0  0  0
    3.5321    1.4479   17.7012 C   0  0  0  0  0  0  0  0  0  0  0  0
    2.9328    0.4824   18.4361 F   0  0  0  0  0  0  0  0  0  0  0  0
    2.9959    3.0652   14.3517 N   0  0  0  0  0  0  0  0  0  0  0  0
    2.3096    4.2357   14.1224 C   0  0  0  0  0  0  0  0  0  0  0  0
    2.1378    5.0047   15.1534 O   0  0  0  0  0  0  0  0  0  0  0  0
    3.1501    2.3484   13.6263 H   0  0  0  0  0  0  0  0  0  0  0  0
    1.7124    4.7916   12.8841 C   0  0  0  0  0  0  0  0  0  0  0  0
    2.5442    4.5747   11.6313 C   0  0  0  0  0  0  0  0  0  0  0  0
    2.6183    5.9061   12.2258 C   0  0  0  0  0  0  0  0  0  0  0  0
    0.2827    5.0391   12.6952 C   0  0  0  0  0  0  0  0  0  0  0  0
   -0.4693    4.0062   13.0052 O   0  0  0  0  0  0  0  0  0  0  0  0
   -0.4484    6.1385   12.2620 N   0  0  0  0  0  0  0  0  0  0  0  0
   -0.0341    7.0480   12.0002 H   0  0  0  0  0  0  0  0  0  0  0  0
   -1.9081    6.0806   12.1784 C   0  0  0  0  0  0  0  0  0  0  0  0
   -2.5895    6.7141   13.1059 C   0  0  0  0  0  0  0  0  0  0  0  0
   -4.0443    6.7830   13.2045 C   0  0  0  0  0  0  0  0  0  0  0  0
   -4.7869    6.0226   12.1762 C   0  0  0  0  0  0  0  0  0  0  0  0
   -5.6424    6.8979   11.4592 F   0  0  0  0  0  0  0  0  0  0  0  0
   -3.9353    5.3542   11.1906 C   0  0  0  0  0  0  0  0  0  0  0  0
   -2.6180    5.3644   11.1684 C   0  0  0  0  0  0  0  0  0  0  0  0
    5.1604    1.9028   19.4351 O   0  0  0  0  0  0  0  0  0  0  0  0
    5.9973    5.8219   20.2774 C   0  0  0  0  0  0  0  0  0  0  0  0
    5.7285    4.5138   19.9816 C   0  0  0  0  0  0  0  0  0  0  0  0
    4.9310    3.7877   20.8397 C   0  0  0  0  0  0  0  0  0  0  0  0
    4.6284    2.4340   20.5775 C   0  0  0  0  0  0  0  0  0  0  0  0
    3.8348    1.7261   21.4492 C   0  0  0  0  0  0  0  0  0  0  0  0
    3.3226    2.3175   22.5829 C   0  0  0  0  0  0  0  0  0  0  0  0
    3.6112    3.6051   22.8290 N   0  0  0  0  0  0  0  0  0  0  0  0
    4.3957    4.3265   21.9810 C   0  0  0  0  0  0  0  0  0  0  0  0
    4.6716    5.6529   22.2761 C   0  0  0  0  0  0  0  0  0  0  0  0
    5.4625    6.4028   21.4392 C   0  0  0  0  0  0  0  0  0  0  0  0
    6.6129    6.6377   18.0912 C   0  0  0  0  0  0  0  0  0  0  0  0
    6.7835    6.6409   19.4900 O   0  0  0  0  0  0  0  0  0  0  0  0
    5.7320    7.7036   21.7146 O   0  0  0  0  0  0  0  0  0  0  0  0
    4.8290    8.7453   21.6291 C   0  0  0  0  0  0  0  0  0  0  0  0
    5.0097    9.5691   20.3618 C   0  0  0  0  0  0  0  0  0  0  0  0
    3.9518    9.1222   19.3440 C   0  0  0  0  0  0  0  0  0  0  0  0
    3.8441   10.1464   18.3353 N   0  0  0  0  0  0  0  0  0  0  0  0
    3.8728    9.5290   16.9888 C   0  0  0  0  0  0  0  0  0  0  0  0
    3.6201   10.6986   16.0329 C   0  0  0  0  0  0  0  0  0  0  0  0
    3.8341   11.9341   16.6439 O   0  0  0  0  0  0  0  0  0  0  0  0
    2.8814   12.1950   17.6486 C   0  0  0  0  0  0  0  0  0  0  0  0
    2.5869   10.8896   18.3993 C   0  0  0  0  0  0  0  0  0  0  0  0
 37 38  1  0  0  0
 38 27  1  0  0  0
 27 28  2  0  0  0
 28 29  1  0  0  0
 29 30  2  0  0  0
 30 26  1  0  0  0
 26  1  1  0  0  0
  1  2  2  0  0  0
  2  3  1  0  0  0
  3  4  2  0  0  0
  4  8  1  0  0  0
  8  9  1  0  0  0
  9 10  2  0  0  0
  9 12  1  0  0  0
 12 13  1  0  0  0
 13 14  1  0  0  0
 12 15  1  0  0  0
 15 16  2  0  0  0
 15 17  1  0  0  0
 17 19  1  0  0  0
 19 20  2  0  0  0
 20 21  1  0  0  0
 21 22  1  0  0  0
 22 23  1  0  0  0
 22 24  1  0  0  0
 24 25  2  0  0  0
  4  5  1  0  0  0
  5  6  2  0  0  0
  6  7  1  0  0  0
 30 31  1  0  0  0
 31 32  2  0  0  0
 32 33  1  0  0  0
 33 34  2  0  0  0
 34 35  1  0  0  0
 35 36  2  0  0  0
 36 39  1  0  0  0
 39 40  1  0  0  0
 40 41  1  0  0  0
 41 42  1  0  0  0
 42 43  1  0  0  0
 43 44  1  0  0  0
 44 45  1  0  0  0
 45 46  1  0  0  0
 46 47  1  0  0  0
 47 48  1  0  0  0
 36 27  1  0  0  0
 48 43  1  0  0  0
 34 29  1  0  0  0
  6  1  1  0  0  0
 14 12  1  0  0  0
 25 19  1  0  0  0
  8 11  1  0  0  0
 17 18  1  0  0  0
M  END
> <minimizedAffinity>
-9.52139

> <CNNscore>
0.1086607873

> <CNNaffinity>
6.6206293106

> <CNN_VS>
0.7194027901

> <CNNaffinity_variance>
0.4490078986

$$$$
[H]c1c([H])c([H])c(C(=O)N(C([H])([H])[H])[C@]2([H])C([H])([H])[C@@]3([H])O[C@](C([H])([H])[H])(n4c5c([H])c([H])c([H])c([H])c5c5c6c(c7c8c([H])c([H])c([H])c([H])c8n3c7c54)C([H])([H])N([H])C6=O)[C@]2([H])OC([H])([H])[H])c([H])c1[H]


 44 52  0  0  0  0  0  0  0  0999 V2000
    2.6009    5.9231    9.8293 C   0  0  0  0  0  0  0  0  0  0  0  0
    1.5712    5.1524   10.6961 C   0  0  0  0  0  0  0  0  0  0  0  0
    0.5199    4.6812    9.7634 C   0  0  0  0  0  0  0  0  0  0  0  0
   -0.1953    5.9586    9.3087 C   0  0  0  0  0  0  0  0  0  0  0  0
    0.4587    7.0815    9.6617 O   0  0  0  0  0  0  0  0  0  0  0  0
    1.8239    7.1819    9.4227 C   0  0  0  0  0  0  0  0  0  0  0  0
    2.2293    8.2707   10.4311 C   0  0  0  0  0  0  0  0  0  0  0  0
    2.1346    7.5564    8.0574 N   0  0  0  0  0  0  0  0  0  0  0  0
    3.1685    8.2635    7.5865 C   0  0  0  0  0  0  0  0  0  0  0  0
    4.2429    8.8095    8.2358 C   0  0  0  0  0  0  0  0  0  0  0  0
    5.2173    9.5086    7.5363 C   0  0  0  0  0  0  0  0  0  0  0  0
    5.1227    9.6618    6.1937 C   0  0  0  0  0  0  0  0  0  0  0  0
    4.0323    9.1101    5.5043 C   0  0  0  0  0  0  0  0  0  0  0  0
    3.0841    8.4295    6.1920 C   0  0  0  0  0  0  0  0  0  0  0  0
    1.9175    7.7693    5.8049 C   0  0  0  0  0  0  0  0  0  0  0  0
    1.3245    7.5749    4.5648 C   0  0  0  0  0  0  0  0  0  0  0  0
    1.6360    7.9735    3.2081 C   0  0  0  0  0  0  0  0  0  0  0  0
    2.5603    8.6316    2.7277 O   0  0  0  0  0  0  0  0  0  0  0  0
    0.6035    7.4465    2.3401 N   0  0  0  0  0  0  0  0  0  0  0  0
   -0.3527    6.7179    3.1431 C   0  0  0  0  0  0  0  0  0  0  0  0
    0.1483    6.8324    4.5375 C   0  0  0  0  0  0  0  0  0  0  0  0
   -0.4022    6.3154    5.6861 C   0  0  0  0  0  0  0  0  0  0  0  0
   -1.5353    5.5580    5.9447 C   0  0  0  0  0  0  0  0  0  0  0  0
   -2.5212    5.0489    5.1341 C   0  0  0  0  0  0  0  0  0  0  0  0
   -3.5661    4.3082    5.6632 C   0  0  0  0  0  0  0  0  0  0  0  0
   -3.5923    4.0933    7.0322 C   0  0  0  0  0  0  0  0  0  0  0  0
   -2.5961    4.6111    7.8276 C   0  0  0  0  0  0  0  0  0  0  0  0
   -1.5507    5.3524    7.2972 C   0  0  0  0  0  0  0  0  0  0  0  0
   -0.4971    5.9379    7.8792 N   0  0  0  0  0  0  0  0  0  0  0  0
    0.2061    6.5246    6.9023 C   0  0  0  0  0  0  0  0  0  0  0  0
    1.3696    7.2548    6.9507 C   0  0  0  0  0  0  0  0  0  0  0  0
    0.5231    7.5499    1.3089 H   0  0  0  0  0  0  0  0  0  0  0  0
    2.1459    4.2085   11.6073 N   0  0  0  0  0  0  0  0  0  0  0  0
    2.5112    2.9278   11.0051 C   0  0  0  0  0  0  0  0  0  0  0  0
    2.3942    4.4935   12.9363 C   0  0  0  0  0  0  0  0  0  0  0  0
    2.1853    5.7201   13.2942 O   0  0  0  0  0  0  0  0  0  0  0  0
    2.8579    3.6588   14.0311 C   0  0  0  0  0  0  0  0  0  0  0  0
    3.8108    3.9733   14.9482 C   0  0  0  0  0  0  0  0  0  0  0  0
    4.1400    3.1118   16.0087 C   0  0  0  0  0  0  0  0  0  0  0  0
    3.5231    1.9139   16.1742 C   0  0  0  0  0  0  0  0  0  0  0  0
    2.5625    1.5819   15.2581 C   0  0  0  0  0  0  0  0  0  0  0  0
    2.2316    2.4061   14.2255 C   0  0  0  0  0  0  0  0  0  0  0  0
    4.3405    4.9016    8.6521 C   0  0  0  0  0  0  0  0  0  0  0  0
    2.9703    5.1445    8.7726 O   0  0  0  0  0  0  0  0  0  0  0  0
 43 44  1  0  0  0
 44  1  1  0  0  0
  1  2  1  0  0  0
  2  3  1  0  0  0
  3  4  1  0  0  0
  4  5  1  0  0  0
  5  6  1  0  0  0
  6  7  1  0  0  0
  6  8  1  0  0  0
  8  9  1  0  0  0
  9 10  2  0  0  0
 10 11  1  0  0  0
 11 12  2  0  0  0
 12 13  1  0  0  0
 13 14  2  0  0  0
 14 15  1  0  0  0
 15 16  2  0  0  0
 16 17  1  0  0  0
 17 18  2  0  0  0
 17 19  1  0  0  0
 19 20  1  0  0  0
 20 21  1  0  0  0
 21 22  2  0  0  0
 22 23  1  0  0  0
 23 24  2  0  0  0
 24 25  1  0  0  0
 25 26  2  0  0  0
 26 27  1  0  0  0
 27 28  2  0  0  0
 28 29  1  0  0  0
 29 30  1  0  0  0
 30 31  2  0  0  0
  2 33  1  0  0  0
 33 34  1  0  0  0
 33 35  1  0  0  0
 35 36  2  0  0  0
 35 37  1  0  0  0
 37 38  2  0  0  0
 38 39  1  0  0  0
 39 40  2  0  0  0
 40 41  1  0  0  0
 41 42  2  0  0  0
  6  1  1  0  0  0
 31  8  1  0  0  0
 42 37  1  0  0  0
 29  4  1  0  0  0
 14  9  1  0  0  0
 31 15  1  0  0  0
 21 16  1  0  0  0
 30 22  1  0  0  0
 28 23  1  0  0  0
 19 32  1  0  0  0
M  END
> <minimizedAffinity>
-7.53840

> <CNNscore>
0.2956570089

> <CNNaffinity>
6.0538249016

> <CNN_VS>
1.7898557186

> <CNNaffinity_variance>
0.0475426801

$$$$
[H]c1c([H])c([H])c(C(=O)N(C([H])([H])[H])[C@]2([H])C([H])([H])[C@@]3([H])O[C@](C([H])([H])[H])(n4c5c([H])c([H])c([H])c([H])c5c5c6c(c7c8c([H])c([H])c([H])c([H])c8n3c7c54)C([H])([H])N([H])C6=O)[C@]2([H])OC([H])([H])[H])c([H])c1[H]


 44 52  0  0  0  0  0  0  0  0999 V2000
    4.7317    4.2890    9.9428 C   0  0  0  0  0  0  0  0  0  0  0  0
    4.7096    5.8157    9.6704 C   0  0  0  0  0  0  0  0  0  0  0  0
    3.2810    6.1894    9.5410 C   0  0  0  0  0  0  0  0  0  0  0  0
    2.8247    5.5290    8.2349 C   0  0  0  0  0  0  0  0  0  0  0  0
    3.7203    4.6480    7.7502 O   0  0  0  0  0  0  0  0  0  0  0  0
    4.2773    3.7007    8.6007 C   0  0  0  0  0  0  0  0  0  0  0  0
    5.5656    3.3338    7.8443 C   0  0  0  0  0  0  0  0  0  0  0  0
    3.4187    2.5518    8.8101 N   0  0  0  0  0  0  0  0  0  0  0  0
    3.7505    1.2776    9.0489 C   0  0  0  0  0  0  0  0  0  0  0  0
    4.9781    0.6903    9.1974 C   0  0  0  0  0  0  0  0  0  0  0  0
    5.0902   -0.6698    9.4521 C   0  0  0  0  0  0  0  0  0  0  0  0
    3.9828   -1.4423    9.5604 C   0  0  0  0  0  0  0  0  0  0  0  0
    2.7127   -0.8643    9.4144 C   0  0  0  0  0  0  0  0  0  0  0  0
    2.6092    0.4633    9.1653 C   0  0  0  0  0  0  0  0  0  0  0  0
    1.5194    1.3160    8.9870 C   0  0  0  0  0  0  0  0  0  0  0  0
    0.1491    1.0946    9.0113 C   0  0  0  0  0  0  0  0  0  0  0  0
   -0.6966   -0.0653    9.2015 C   0  0  0  0  0  0  0  0  0  0  0  0
   -0.4423   -1.2532    9.4085 O   0  0  0  0  0  0  0  0  0  0  0  0
   -2.0754    0.3683    9.1119 N   0  0  0  0  0  0  0  0  0  0  0  0
   -2.1005    1.7932    8.8689 C   0  0  0  0  0  0  0  0  0  0  0  0
   -0.6722    2.1997    8.8121 C   0  0  0  0  0  0  0  0  0  0  0  0
   -0.1507    3.4538    8.6000 C   0  0  0  0  0  0  0  0  0  0  0  0
   -0.7198    4.6996    8.3794 C   0  0  0  0  0  0  0  0  0  0  0  0
   -2.0229    5.1272    8.2943 C   0  0  0  0  0  0  0  0  0  0  0  0
   -2.3209    6.4602    8.0609 C   0  0  0  0  0  0  0  0  0  0  0  0
   -1.2707    7.3529    7.9152 C   0  0  0  0  0  0  0  0  0  0  0  0
    0.0276    6.9058    8.0036 C   0  0  0  0  0  0  0  0  0  0  0  0
    0.3249    5.5714    8.2372 C   0  0  0  0  0  0  0  0  0  0  0  0
    1.4959    4.9340    8.3573 N   0  0  0  0  0  0  0  0  0  0  0  0
    1.2116    3.6445    8.5796 C   0  0  0  0  0  0  0  0  0  0  0  0
    2.0405    2.5656    8.7753 C   0  0  0  0  0  0  0  0  0  0  0  0
   -2.9334   -0.2117    9.2007 H   0  0  0  0  0  0  0  0  0  0  0  0
    5.5395    6.5898   10.5442 N   0  0  0  0  0  0  0  0  0  0  0  0
    4.8080    7.4469   11.4752 C   0  0  0  0  0  0  0  0  0  0  0  0
    6.9182    6.4994   10.5564 C   0  0  0  0  0  0  0  0  0  0  0  0
    7.4250    5.5751    9.8046 O   0  0  0  0  0  0  0  0  0  0  0  0
    7.9280    7.2607   11.2709 C   0  0  0  0  0  0  0  0  0  0  0  0
    7.7124    8.2601   12.1670 C   0  0  0  0  0  0  0  0  0  0  0  0
    8.7661    8.8907   12.8504 C   0  0  0  0  0  0  0  0  0  0  0  0
   10.0612    8.5358   12.6508 C   0  0  0  0  0  0  0  0  0  0  0  0
   10.2950    7.5323   11.7505 C   0  0  0  0  0  0  0  0  0  0  0  0
    9.2848    6.9110   11.0808 C   0  0  0  0  0  0  0  0  0  0  0  0
    4.4874    3.9159   12.2354 C   0  0  0  0  0  0  0  0  0  0  0  0
    3.8890    4.0052   10.9764 O   0  0  0  0  0  0  0  0  0  0  0  0
 43 44  1  0  0  0
 44  1  1  0  0  0
  1  2  1  0  0  0
  2  3  1  0  0  0
  3  4  1  0  0  0
  4  5  1  0  0  0
  5  6  1  0  0  0
  6  7  1  0  0  0
  6  8  1  0  0  0
  8  9  1  0  0  0
  9 10  2  0  0  0
 10 11  1  0  0  0
 11 12  2  0  0  0
 12 13  1  0  0  0
 13 14  2  0  0  0
 14 15  1  0  0  0
 15 16  2  0  0  0
 16 17  1  0  0  0
 17 18  2  0  0  0
 17 19  1  0  0  0
 19 20  1  0  0  0
 20 21  1  0  0  0
 21 22  2  0  0  0
 22 23  1  0  0  0
 23 24  2  0  0  0
 24 25  1  0  0  0
 25 26  2  0  0  0
 26 27  1  0  0  0
 27 28  2  0  0  0
 28 29  1  0  0  0
 29 30  1  0  0  0
 30 31  2  0  0  0
  2 33  1  0  0  0
 33 34  1  0  0  0
 33 35  1  0  0  0
 35 36  2  0  0  0
 35 37  1  0  0  0
 37 38  2  0  0  0
 38 39  1  0  0  0
 39 40  2  0  0  0
 40 41  1  0  0  0
 41 42  2  0  0  0
  6  1  1  0  0  0
 31  8  1  0  0  0
 42 37  1  0  0  0
 29  4  1  0  0  0
 14  9  1  0  0  0
 31 15  1  0  0  0
 21 16  1  0  0  0
 30 22  1  0  0  0
 28 23  1  0  0  0
 19 32  1  0  0  0
M  END
> <minimizedAffinity>
-6.75344

> <CNNscore>
0.2597467005

> <CNNaffinity>
6.1096963882

> <CNN_VS>
1.5869734287

> <CNNaffinity_variance>
0.1073656455

$$$$
[H]c1c([H])c([H])c(C(=O)N(C([H])([H])[H])[C@]2([H])C([H])([H])[C@@]3([H])O[C@](C([H])([H])[H])(n4c5c([H])c([H])c([H])c([H])c5c5c6c(c7c8c([H])c([H])c([H])c([H])c8n3c7c54)C([H])([H])N([H])C6=O)[C@]2([H])OC([H])([H])[H])c([H])c1[H]


 44 52  0  0  0  0  0  0  0  0999 V2000
    3.5360    7.1712    8.4393 C   0  0  0  0  0  0  0  0  0  0  0  0
    3.5301    7.2915    9.9856 C   0  0  0  0  0  0  0  0  0  0  0  0
    2.3282    6.5586   10.4502 C   0  0  0  0  0  0  0  0  0  0  0  0
    1.1463    7.4055    9.9645 C   0  0  0  0  0  0  0  0  0  0  0  0
    1.5104    8.3662    9.0939 O   0  0  0  0  0  0  0  0  0  0  0  0
    2.3431    8.0445    8.0290 C   0  0  0  0  0  0  0  0  0  0  0  0
    2.9312    9.4216    7.6768 C   0  0  0  0  0  0  0  0  0  0  0  0
    1.6335    7.4500    6.9136 N   0  0  0  0  0  0  0  0  0  0  0  0
    1.9015    7.5194    5.6043 C   0  0  0  0  0  0  0  0  0  0  0  0
    2.9263    8.1344    4.9368 C   0  0  0  0  0  0  0  0  0  0  0  0
    3.0140    8.0703    3.5528 C   0  0  0  0  0  0  0  0  0  0  0  0
    2.0847    7.3941    2.8359 C   0  0  0  0  0  0  0  0  0  0  0  0
    1.0254    6.7535    3.4962 C   0  0  0  0  0  0  0  0  0  0  0  0
    0.9444    6.8198    4.8469 C   0  0  0  0  0  0  0  0  0  0  0  0
    0.0444    6.2923    5.7733 C   0  0  0  0  0  0  0  0  0  0  0  0
   -1.0877    5.5021    5.6271 C   0  0  0  0  0  0  0  0  0  0  0  0
   -1.7986    4.9314    4.5022 C   0  0  0  0  0  0  0  0  0  0  0  0
   -1.6028    4.9775    3.2865 O   0  0  0  0  0  0  0  0  0  0  0  0
   -2.9307    4.1909    5.0190 N   0  0  0  0  0  0  0  0  0  0  0  0
   -2.9335    4.2914    6.4612 C   0  0  0  0  0  0  0  0  0  0  0  0
   -1.7522    5.1304    6.7914 C   0  0  0  0  0  0  0  0  0  0  0  0
   -1.3088    5.5281    8.0304 C   0  0  0  0  0  0  0  0  0  0  0  0
   -1.7637    5.3098    9.3226 C   0  0  0  0  0  0  0  0  0  0  0  0
   -2.8319    4.6093    9.8288 C   0  0  0  0  0  0  0  0  0  0  0  0
   -3.0628    4.5512   11.1940 C   0  0  0  0  0  0  0  0  0  0  0  0
   -2.1883    5.2182   12.0374 C   0  0  0  0  0  0  0  0  0  0  0  0
   -1.1242    5.9144   11.5118 C   0  0  0  0  0  0  0  0  0  0  0  0
   -0.8940    5.9720   10.1453 C   0  0  0  0  0  0  0  0  0  0  0  0
    0.0630    6.5808    9.4344 N   0  0  0  0  0  0  0  0  0  0  0  0
   -0.1844    6.3124    8.1461 C   0  0  0  0  0  0  0  0  0  0  0  0
    0.4873    6.6898    7.0077 C   0  0  0  0  0  0  0  0  0  0  0  0
   -3.6460    3.6620    4.4814 H   0  0  0  0  0  0  0  0  0  0  0  0
    4.7863    7.0052   10.6112 N   0  0  0  0  0  0  0  0  0  0  0  0
    4.8092    5.7685   11.3901 C   0  0  0  0  0  0  0  0  0  0  0  0
    5.9092    7.7943   10.4515 C   0  0  0  0  0  0  0  0  0  0  0  0
    5.7975    8.7601    9.5964 O   0  0  0  0  0  0  0  0  0  0  0  0
    7.2207    7.7422   11.0739 C   0  0  0  0  0  0  0  0  0  0  0  0
    7.6566    8.4935   12.1197 C   0  0  0  0  0  0  0  0  0  0  0  0
    8.9304    8.3170   12.6865 C   0  0  0  0  0  0  0  0  0  0  0  0
    9.7984    7.3845   12.2174 C   0  0  0  0  0  0  0  0  0  0  0  0
    9.3752    6.6212   11.1636 C   0  0  0  0  0  0  0  0  0  0  0  0
    8.1436    6.7795   10.6040 C   0  0  0  0  0  0  0  0  0  0  0  0
    4.4903    5.2945    7.4283 C   0  0  0  0  0  0  0  0  0  0  0  0
    3.3984    5.8604    8.0905 O   0  0  0  0  0  0  0  0  0  0  0  0
 43 44  1  0  0  0
 44  1  1  0  0  0
  1  2  1  0  0  0
  2  3  1  0  0  0
  3  4  1  0  0  0
  4  5  1  0  0  0
  5  6  1  0  0  0
  6  7  1  0  0  0
  6  8  1  0  0  0
  8  9  1  0  0  0
  9 10  2  0  0  0
 10 11  1  0  0  0
 11 12  2  0  0  0
 12 13  1  0  0  0
 13 14  2  0  0  0
 14 15  1  0  0  0
 15 16  2  0  0  0
 16 17  1  0  0  0
 17 18  2  0  0  0
 17 19  1  0  0  0
 19 20  1  0  0  0
 20 21  1  0  0  0
 21 22  2  0  0  0
 22 23  1  0  0  0
 23 24  2  0  0  0
 24 25  1  0  0  0
 25 26  2  0  0  0
 26 27  1  0  0  0
 27 28  2  0  0  0
 28 29  1  0  0  0
 29 30  1  0  0  0
 30 31  2  0  0  0
  2 33  1  0  0  0
 33 34  1  0  0  0
 33 35  1  0  0  0
 35 36  2  0  0  0
 35 37  1  0  0  0
 37 38  2  0  0  0
 38 39  1  0  0  0
 39 40  2  0  0  0
 40 41  1  0  0  0
 41 42  2  0  0  0
  6  1  1  0  0  0
 31  8  1  0  0  0
 42 37  1  0  0  0
 29  4  1  0  0  0
 14  9  1  0  0  0
 31 15  1  0  0  0
 21 16  1  0  0  0
 30 22  1  0  0  0
 28 23  1  0  0  0
 19 32  1  0  0  0
M  END
> <minimizedAffinity>
-6.26135

> <CNNscore>
0.2595182657

> <CNNaffinity>
5.9312624931

> <CNN_VS>
1.5392709970

> <CNNaffinity_variance>
0.3225583136

$$$$
[H]c1c([H])c([H])c(C(=O)N(C([H])([H])[H])[C@]2([H])C([H])([H])[C@@]3([H])O[C@](C([H])([H])[H])(n4c5c([H])c([H])c([H])c([H])c5c5c6c(c7c8c([H])c([H])c([H])c([H])c8n3c7c54)C([H])([H])N([H])C6=O)[C@]2([H])OC([H])([H])[H])c([H])c1[H]


 44 52  0  0  0  0  0  0  0  0999 V2000
    0.8029    3.6164    9.5973 C   0  0  0  0  0  0  0  0  0  0  0  0
    2.2086    3.5301   10.2472 C   0  0  0  0  0  0  0  0  0  0  0  0
    2.8618    4.8354    9.9882 C   0  0  0  0  0  0  0  0  0  0  0  0
    3.1056    4.8530    8.4748 C   0  0  0  0  0  0  0  0  0  0  0  0
    2.4668    3.8598    7.8276 O   0  0  0  0  0  0  0  0  0  0  0  0
    1.1249    3.6196    8.0972 C   0  0  0  0  0  0  0  0  0  0  0  0
    0.9783    2.1606    7.6322 C   0  0  0  0  0  0  0  0  0  0  0  0
    0.2343    4.5141    7.3847 N   0  0  0  0  0  0  0  0  0  0  0  0
   -1.0057    4.2932    6.9325 C   0  0  0  0  0  0  0  0  0  0  0  0
   -1.8058    3.1870    7.0327 C   0  0  0  0  0  0  0  0  0  0  0  0
   -3.0824    3.1803    6.4872 C   0  0  0  0  0  0  0  0  0  0  0  0
   -3.5612    4.2728    5.8453 C   0  0  0  0  0  0  0  0  0  0  0  0
   -2.7617    5.4201    5.7306 C   0  0  0  0  0  0  0  0  0  0  0  0
   -1.5166    5.4209    6.2643 C   0  0  0  0  0  0  0  0  0  0  0  0
   -0.5089    6.3838    6.3275 C   0  0  0  0  0  0  0  0  0  0  0  0
   -0.4387    7.6910    5.8652 C   0  0  0  0  0  0  0  0  0  0  0  0
   -1.3306    8.5671    5.1348 C   0  0  0  0  0  0  0  0  0  0  0  0
   -2.4675    8.4082    4.6867 O   0  0  0  0  0  0  0  0  0  0  0  0
   -0.6591    9.8373    4.9539 N   0  0  0  0  0  0  0  0  0  0  0  0
    0.6477    9.7647    5.5680 C   0  0  0  0  0  0  0  0  0  0  0  0
    0.7358    8.3898    6.1253 C   0  0  0  0  0  0  0  0  0  0  0  0
    1.7797    7.8122    6.8081 C   0  0  0  0  0  0  0  0  0  0  0  0
    3.0325    8.2638    7.1968 C   0  0  0  0  0  0  0  0  0  0  0  0
    3.6821    9.4639    7.0357 C   0  0  0  0  0  0  0  0  0  0  0  0
    4.9610    9.6538    7.5343 C   0  0  0  0  0  0  0  0  0  0  0  0
    5.5697    8.6019    8.2005 C   0  0  0  0  0  0  0  0  0  0  0  0
    4.9033    7.4076    8.3520 C   0  0  0  0  0  0  0  0  0  0  0  0
    3.6233    7.2184    7.8525 C   0  0  0  0  0  0  0  0  0  0  0  0
    2.8081    6.1573    7.8874 N   0  0  0  0  0  0  0  0  0  0  0  0
    1.6836    6.5142    7.2539 C   0  0  0  0  0  0  0  0  0  0  0  0
    0.5311    5.8067    7.0080 C   0  0  0  0  0  0  0  0  0  0  0  0
   -1.0174   10.6851    4.4709 H   0  0  0  0  0  0  0  0  0  0  0  0
    2.2172    3.0178   11.5847 N   0  0  0  0  0  0  0  0  0  0  0  0
    1.1549    2.0564   11.8738 C   0  0  0  0  0  0  0  0  0  0  0  0
    3.1801    3.3522   12.5175 C   0  0  0  0  0  0  0  0  0  0  0  0
    4.1597    4.0746   12.0763 O   0  0  0  0  0  0  0  0  0  0  0  0
    3.3045    3.0371   13.9301 C   0  0  0  0  0  0  0  0  0  0  0  0
    2.9760    1.8650   14.5353 C   0  0  0  0  0  0  0  0  0  0  0  0
    3.1966    1.6445   15.9057 C   0  0  0  0  0  0  0  0  0  0  0  0
    3.7503    2.5941   16.7023 C   0  0  0  0  0  0  0  0  0  0  0  0
    4.0851    3.7804   16.1083 C   0  0  0  0  0  0  0  0  0  0  0  0
    3.8783    4.0092   14.7817 C   0  0  0  0  0  0  0  0  0  0  0  0
   -1.0652    4.5651   10.6294 C   0  0  0  0  0  0  0  0  0  0  0  0
    0.1799    4.7515   10.0243 O   0  0  0  0  0  0  0  0  0  0  0  0
 43 44  1  0  0  0
 44  1  1  0  0  0
  1  2  1  0  0  0
  2  3  1  0  0  0
  3  4  1  0  0  0
  4  5  1  0  0  0
  5  6  1  0  0  0
  6  7  1  0  0  0
  6  8  1  0  0  0
  8  9  1  0  0  0
  9 10  2  0  0  0
 10 11  1  0  0  0
 11 12  2  0  0  0
 12 13  1  0  0  0
 13 14  2  0  0  0
 14 15  1  0  0  0
 15 16  2  0  0  0
 16 17  1  0  0  0
 17 18  2  0  0  0
 17 19  1  0  0  0
 19 20  1  0  0  0
 20 21  1  0  0  0
 21 22  2  0  0  0
 22 23  1  0  0  0
 23 24  2  0  0  0
 24 25  1  0  0  0
 25 26  2  0  0  0
 26 27  1  0  0  0
 27 28  2  0  0  0
 28 29  1  0  0  0
 29 30  1  0  0  0
 30 31  2  0  0  0
  2 33  1  0  0  0
 33 34  1  0  0  0
 33 35  1  0  0  0
 35 36  2  0  0  0
 35 37  1  0  0  0
 37 38  2  0  0  0
 38 39  1  0  0  0
 39 40  2  0  0  0
 40 41  1  0  0  0
 41 42  2  0  0  0
  6  1  1  0  0  0
 31  8  1  0  0  0
 42 37  1  0  0  0
 29  4  1  0  0  0
 14  9  1  0  0  0
 31 15  1  0  0  0
 21 16  1  0  0  0
 30 22  1  0  0  0
 28 23  1  0  0  0
 19 32  1  0  0  0
M  END
> <minimizedAffinity>
-6.99383

> <CNNscore>
0.2290525287

> <CNNaffinity>
6.0475983620

> <CNN_VS>
1.3852176666

> <CNNaffinity_variance>
0.1020319462

$$$$
[H]c1c([H])c([H])c(C(=O)N(C([H])([H])[H])[C@]2([H])C([H])([H])[C@@]3([H])O[C@](C([H])([H])[H])(n4c5c([H])c([H])c([H])c([H])c5c5c6c(c7c8c([H])c([H])c([H])c([H])c8n3c7c54)C([H])([H])N([H])C6=O)[C@]2([H])OC([H])([H])[H])c([H])c1[H]


 44 52  0  0  0  0  0  0  0  0999 V2000
    2.6203    4.7909   11.8250 C   0  0  0  0  0  0  0  0  0  0  0  0
    1.8106    3.8752   12.7797 C   0  0  0  0  0  0  0  0  0  0  0  0
    1.6624    2.5782   12.0774 C   0  0  0  0  0  0  0  0  0  0  0  0
    0.7272    2.8796   10.9006 C   0  0  0  0  0  0  0  0  0  0  0  0
    0.5321    4.1980   10.7083 O   0  0  0  0  0  0  0  0  0  0  0  0
    1.6253    5.0555   10.6876 C   0  0  0  0  0  0  0  0  0  0  0  0
    0.9601    6.4033   11.0155 C   0  0  0  0  0  0  0  0  0  0  0  0
    2.3051    5.0770    9.4076 N   0  0  0  0  0  0  0  0  0  0  0  0
    2.9678    6.0779    8.8162 C   0  0  0  0  0  0  0  0  0  0  0  0
    3.2272    7.3510    9.2473 C   0  0  0  0  0  0  0  0  0  0  0  0
    3.9527    8.2350    8.4602 C   0  0  0  0  0  0  0  0  0  0  0  0
    4.4200    7.8515    7.2480 C   0  0  0  0  0  0  0  0  0  0  0  0
    4.1694    6.5513    6.7839 C   0  0  0  0  0  0  0  0  0  0  0  0
    3.4604    5.6930    7.5558 C   0  0  0  0  0  0  0  0  0  0  0  0
    3.0658    4.3654    7.3875 C   0  0  0  0  0  0  0  0  0  0  0  0
    3.2735    3.4546    6.3605 C   0  0  0  0  0  0  0  0  0  0  0  0
    3.9386    3.4962    5.0751 C   0  0  0  0  0  0  0  0  0  0  0  0
    4.5459    4.3903    4.4831 O   0  0  0  0  0  0  0  0  0  0  0  0
    3.8015    2.1927    4.4593 N   0  0  0  0  0  0  0  0  0  0  0  0
    3.0566    1.3326    5.3511 C   0  0  0  0  0  0  0  0  0  0  0  0
    2.7467    2.1786    6.5330 C   0  0  0  0  0  0  0  0  0  0  0  0
    2.0514    1.8354    7.6681 C   0  0  0  0  0  0  0  0  0  0  0  0
    1.4340    0.6680    8.0932 C   0  0  0  0  0  0  0  0  0  0  0  0
    1.2976   -0.5750    7.5235 C   0  0  0  0  0  0  0  0  0  0  0  0
    0.6159   -1.5877    8.1792 C   0  0  0  0  0  0  0  0  0  0  0  0
    0.0744   -1.3156    9.4257 C   0  0  0  0  0  0  0  0  0  0  0  0
    0.2214   -0.0648    9.9799 C   0  0  0  0  0  0  0  0  0  0  0  0
    0.9038    0.9483    9.3228 C   0  0  0  0  0  0  0  0  0  0  0  0
    1.1595    2.2145    9.6736 N   0  0  0  0  0  0  0  0  0  0  0  0
    1.8592    2.7586    8.6699 C   0  0  0  0  0  0  0  0  0  0  0  0
    2.3726    4.0248    8.5193 C   0  0  0  0  0  0  0  0  0  0  0  0
    4.1613    1.8831    3.5346 H   0  0  0  0  0  0  0  0  0  0  0  0
    2.2748    3.8667   14.1347 N   0  0  0  0  0  0  0  0  0  0  0  0
    1.9083    5.0506   14.9097 C   0  0  0  0  0  0  0  0  0  0  0  0
    2.9629    2.8066   14.6929 C   0  0  0  0  0  0  0  0  0  0  0  0
    3.0659    1.7522   13.9485 O   0  0  0  0  0  0  0  0  0  0  0  0
    3.6045    2.6475   15.9864 C   0  0  0  0  0  0  0  0  0  0  0  0
    4.4309    3.5352   16.6005 C   0  0  0  0  0  0  0  0  0  0  0  0
    4.9497    3.3064   17.8864 C   0  0  0  0  0  0  0  0  0  0  0  0
    4.6540    2.1816   18.5867 C   0  0  0  0  0  0  0  0  0  0  0  0
    3.8245    1.2772   17.9815 C   0  0  0  0  0  0  0  0  0  0  0  0
    3.3130    1.4847   16.7363 C   0  0  0  0  0  0  0  0  0  0  0  0
    4.9518    4.7923   11.6859 C   0  0  0  0  0  0  0  0  0  0  0  0
    3.7469    4.1363   11.4234 O   0  0  0  0  0  0  0  0  0  0  0  0
 43 44  1  0  0  0
 44  1  1  0  0  0
  1  2  1  0  0  0
  2  3  1  0  0  0
  3  4  1  0  0  0
  4  5  1  0  0  0
  5  6  1  0  0  0
  6  7  1  0  0  0
  6  8  1  0  0  0
  8  9  1  0  0  0
  9 10  2  0  0  0
 10 11  1  0  0  0
 11 12  2  0  0  0
 12 13  1  0  0  0
 13 14  2  0  0  0
 14 15  1  0  0  0
 15 16  2  0  0  0
 16 17  1  0  0  0
 17 18  2  0  0  0
 17 19  1  0  0  0
 19 20  1  0  0  0
 20 21  1  0  0  0
 21 22  2  0  0  0
 22 23  1  0  0  0
 23 24  2  0  0  0
 24 25  1  0  0  0
 25 26  2  0  0  0
 26 27  1  0  0  0
 27 28  2  0  0  0
 28 29  1  0  0  0
 29 30  1  0  0  0
 30 31  2  0  0  0
  2 33  1  0  0  0
 33 34  1  0  0  0
 33 35  1  0  0  0
 35 36  2  0  0  0
 35 37  1  0  0  0
 37 38  2  0  0  0
 38 39  1  0  0  0
 39 40  2  0  0  0
 40 41  1  0  0  0
 41 42  2  0  0  0
  6  1  1  0  0  0
 31  8  1  0  0  0
 42 37  1  0  0  0
 29  4  1  0  0  0
 14  9  1  0  0  0
 31 15  1  0  0  0
 21 16  1  0  0  0
 30 22  1  0  0  0
 28 23  1  0  0  0
 19 32  1  0  0  0
M  END
> <minimizedAffinity>
-7.29132

> <CNNscore>
0.2187708914

> <CNNaffinity>
6.1676349640

> <CNN_VS>
1.3492989540

> <CNNaffinity_variance>
0.0648129359

$$$$
[H]c1c([H])c([H])c(C(=O)N(C([H])([H])[H])[C@]2([H])C([H])([H])[C@@]3([H])O[C@](C([H])([H])[H])(n4c5c([H])c([H])c([H])c([H])c5c5c6c(c7c8c([H])c([H])c([H])c([H])c8n3c7c54)C([H])([H])N([H])C6=O)[C@]2([H])OC([H])([H])[H])c([H])c1[H]


 44 52  0  0  0  0  0  0  0  0999 V2000
    1.8020    5.0572   10.8173 C   0  0  0  0  0  0  0  0  0  0  0  0
    1.0800    4.0526   11.7528 C   0  0  0  0  0  0  0  0  0  0  0  0
    0.2006    3.2380   10.8806 C   0  0  0  0  0  0  0  0  0  0  0  0
   -0.8827    4.2126   10.4045 C   0  0  0  0  0  0  0  0  0  0  0  0
   -0.5957    5.4974   10.6878 O   0  0  0  0  0  0  0  0  0  0  0  0
    0.6666    5.9975   10.3924 C   0  0  0  0  0  0  0  0  0  0  0  0
    0.7439    7.2061   11.3410 C   0  0  0  0  0  0  0  0  0  0  0  0
    0.8135    6.3816    9.0024 N   0  0  0  0  0  0  0  0  0  0  0  0
    1.5689    7.3464    8.4646 C   0  0  0  0  0  0  0  0  0  0  0  0
    2.4401    8.2252    9.0500 C   0  0  0  0  0  0  0  0  0  0  0  0
    3.1356    9.1530    8.2865 C   0  0  0  0  0  0  0  0  0  0  0  0
    2.9651    9.2041    6.9437 C   0  0  0  0  0  0  0  0  0  0  0  0
    2.0794    8.3131    6.3191 C   0  0  0  0  0  0  0  0  0  0  0  0
    1.4029    7.4102    7.0691 C   0  0  0  0  0  0  0  0  0  0  0  0
    0.4855    6.4075    6.7535 C   0  0  0  0  0  0  0  0  0  0  0  0
   -0.0503    5.9810    5.5459 C   0  0  0  0  0  0  0  0  0  0  0  0
    0.0901    6.3886    4.1636 C   0  0  0  0  0  0  0  0  0  0  0  0
    0.7561    7.2730    3.6224 O   0  0  0  0  0  0  0  0  0  0  0  0
   -0.7525    5.5300    3.3574 N   0  0  0  0  0  0  0  0  0  0  0  0
   -1.4190    4.5847    4.2247 C   0  0  0  0  0  0  0  0  0  0  0  0
   -0.9426    4.9148    5.5931 C   0  0  0  0  0  0  0  0  0  0  0  0
   -1.2794    4.3114    6.7815 C   0  0  0  0  0  0  0  0  0  0  0  0
   -2.1190    3.2580    7.1131 C   0  0  0  0  0  0  0  0  0  0  0  0
   -2.9213    2.4334    6.3618 C   0  0  0  0  0  0  0  0  0  0  0  0
   -3.6754    1.4363    6.9595 C   0  0  0  0  0  0  0  0  0  0  0  0
   -3.6003    1.2909    8.3358 C   0  0  0  0  0  0  0  0  0  0  0  0
   -2.7912    2.1262    9.0712 C   0  0  0  0  0  0  0  0  0  0  0  0
   -2.0369    3.1240    8.4722 C   0  0  0  0  0  0  0  0  0  0  0  0
   -1.1992    4.0308    8.9897 N   0  0  0  0  0  0  0  0  0  0  0  0
   -0.7342    4.7554    7.9641 C   0  0  0  0  0  0  0  0  0  0  0  0
    0.1504    5.8072    7.9389 C   0  0  0  0  0  0  0  0  0  0  0  0
   -0.8864    5.5533    2.3269 H   0  0  0  0  0  0  0  0  0  0  0  0
    1.9388    3.3748   12.6772 N   0  0  0  0  0  0  0  0  0  0  0  0
    2.6172    2.2022   12.1283 C   0  0  0  0  0  0  0  0  0  0  0  0
    2.1622    3.8166   13.9671 C   0  0  0  0  0  0  0  0  0  0  0  0
    1.6370    4.9619   14.2652 O   0  0  0  0  0  0  0  0  0  0  0  0
    2.8930    3.2268   15.0753 C   0  0  0  0  0  0  0  0  0  0  0  0
    2.6959    1.9962   15.6182 C   0  0  0  0  0  0  0  0  0  0  0  0
    3.5056    1.4979   16.6531 C   0  0  0  0  0  0  0  0  0  0  0  0
    4.5312    2.2220   17.1698 C   0  0  0  0  0  0  0  0  0  0  0  0
    4.7416    3.4638   16.6351 C   0  0  0  0  0  0  0  0  0  0  0  0
    3.9662    3.9604   15.6315 C   0  0  0  0  0  0  0  0  0  0  0  0
    3.7406    4.5602    9.6131 C   0  0  0  0  0  0  0  0  0  0  0  0
    2.3656    4.3776    9.7783 O   0  0  0  0  0  0  0  0  0  0  0  0
 43 44  1  0  0  0
 44  1  1  0  0  0
  1  2  1  0  0  0
  2  3  1  0  0  0
  3  4  1  0  0  0
  4  5  1  0  0  0
  5  6  1  0  0  0
  6  7  1  0  0  0
  6  8  1  0  0  0
  8  9  1  0  0  0
  9 10  2  0  0  0
 10 11  1  0  0  0
 11 12  2  0  0  0
 12 13  1  0  0  0
 13 14  2  0  0  0
 14 15  1  0  0  0
 15 16  2  0  0  0
 16 17  1  0  0  0
 17 18  2  0  0  0
 17 19  1  0  0  0
 19 20  1  0  0  0
 20 21  1  0  0  0
 21 22  2  0  0  0
 22 23  1  0  0  0
 23 24  2  0  0  0
 24 25  1  0  0  0
 25 26  2  0  0  0
 26 27  1  0  0  0
 27 28  2  0  0  0
 28 29  1  0  0  0
 29 30  1  0  0  0
 30 31  2  0  0  0
  2 33  1  0  0  0
 33 34  1  0  0  0
 33 35  1  0  0  0
 35 36  2  0  0  0
 35 37  1  0  0  0
 37 38  2  0  0  0
 38 39  1  0  0  0
 39 40  2  0  0  0
 40 41  1  0  0  0
 41 42  2  0  0  0
  6  1  1  0  0  0
 31  8  1  0  0  0
 42 37  1  0  0  0
 29  4  1  0  0  0
 14  9  1  0  0  0
 31 15  1  0  0  0
 21 16  1  0  0  0
 30 22  1  0  0  0
 28 23  1  0  0  0
 19 32  1  0  0  0
M  END
> <minimizedAffinity>
-6.76765

> <CNNscore>
0.2149511278

> <CNNaffinity>
6.1955747604

> <CNN_VS>
1.3317457438

> <CNNaffinity_variance>
0.1110486984

$$$$
[H]c1c([H])c([H])c(C(=O)N(C([H])([H])[H])[C@]2([H])C([H])([H])[C@@]3([H])O[C@](C([H])([H])[H])(n4c5c([H])c([H])c([H])c([H])c5c5c6c(c7c8c([H])c([H])c([H])c([H])c8n3c7c54)C([H])([H])N([H])C6=O)[C@]2([H])OC([H])([H])[H])c([H])c1[H]


 44 52  0  0  0  0  0  0  0  0999 V2000
    5.4496    2.6634    7.2965 C   0  0  0  0  0  0  0  0  0  0  0  0
    4.1937    2.6984    8.2059 C   0  0  0  0  0  0  0  0  0  0  0  0
    3.6216    4.0586    8.0643 C   0  0  0  0  0  0  0  0  0  0  0  0
    4.6452    4.9812    8.7361 C   0  0  0  0  0  0  0  0  0  0  0  0
    5.8092    4.3628    9.0118 O   0  0  0  0  0  0  0  0  0  0  0  0
    6.4238    3.5930    8.0316 C   0  0  0  0  0  0  0  0  0  0  0  0
    7.3191    2.6762    8.8827 C   0  0  0  0  0  0  0  0  0  0  0  0
    7.1888    4.3827    7.0871 N   0  0  0  0  0  0  0  0  0  0  0  0
    8.2962    4.0567    6.4102 C   0  0  0  0  0  0  0  0  0  0  0  0
    9.0101    2.8890    6.3809 C   0  0  0  0  0  0  0  0  0  0  0  0
   10.1430    2.7672    5.5876 C   0  0  0  0  0  0  0  0  0  0  0  0
   10.5624    3.8048    4.8245 C   0  0  0  0  0  0  0  0  0  0  0  0
    9.8471    5.0118    4.8352 C   0  0  0  0  0  0  0  0  0  0  0  0
    8.7428    5.1254    5.6116 C   0  0  0  0  0  0  0  0  0  0  0  0
    7.8323    6.1606    5.8257 C   0  0  0  0  0  0  0  0  0  0  0  0
    7.7408    7.4439    5.3040 C   0  0  0  0  0  0  0  0  0  0  0  0
    8.5259    8.2288    4.3745 C   0  0  0  0  0  0  0  0  0  0  0  0
    9.5534    7.9819    3.7407 O   0  0  0  0  0  0  0  0  0  0  0  0
    7.8945    9.5252    4.2408 N   0  0  0  0  0  0  0  0  0  0  0  0
    6.7169    9.5581    5.0788 C   0  0  0  0  0  0  0  0  0  0  0  0
    6.6684    8.2222    5.7280 C   0  0  0  0  0  0  0  0  0  0  0  0
    5.7419    7.7428    6.6233 C   0  0  0  0  0  0  0  0  0  0  0  0
    4.6042    8.2855    7.2025 C   0  0  0  0  0  0  0  0  0  0  0  0
    3.9917    9.5099    7.0845 C   0  0  0  0  0  0  0  0  0  0  0  0
    2.8365    9.7993    7.7930 C   0  0  0  0  0  0  0  0  0  0  0  0
    2.3133    8.8219    8.6249 C   0  0  0  0  0  0  0  0  0  0  0  0
    2.9409    7.6019    8.7299 C   0  0  0  0  0  0  0  0  0  0  0  0
    4.0971    7.3131    8.0204 C   0  0  0  0  0  0  0  0  0  0  0  0
    4.8555    6.2111    7.9759 N   0  0  0  0  0  0  0  0  0  0  0  0
    5.8577    6.4672    7.1256 C   0  0  0  0  0  0  0  0  0  0  0  0
    6.9097    5.6816    6.7186 C   0  0  0  0  0  0  0  0  0  0  0  0
    8.2010   10.3264    3.6538 H   0  0  0  0  0  0  0  0  0  0  0  0
    3.3194    1.5734    8.0596 N   0  0  0  0  0  0  0  0  0  0  0  0
    2.4177    1.6501    6.9118 C   0  0  0  0  0  0  0  0  0  0  0  0
    3.3556    0.4725    8.8938 C   0  0  0  0  0  0  0  0  0  0  0  0
    4.3182    0.4579    9.7596 O   0  0  0  0  0  0  0  0  0  0  0  0
    2.5002   -0.6981    8.9830 C   0  0  0  0  0  0  0  0  0  0  0  0
    2.8853   -1.9980    8.8819 C   0  0  0  0  0  0  0  0  0  0  0  0
    1.9798   -3.0601    9.0466 C   0  0  0  0  0  0  0  0  0  0  0  0
    0.6666   -2.8447    9.3148 C   0  0  0  0  0  0  0  0  0  0  0  0
    0.2628   -1.5414    9.4181 C   0  0  0  0  0  0  0  0  0  0  0  0
    1.1281   -0.5012    9.2619 C   0  0  0  0  0  0  0  0  0  0  0  0
    5.4295    2.2345    5.0007 C   0  0  0  0  0  0  0  0  0  0  0  0
    5.1133    3.1009    6.0497 O   0  0  0  0  0  0  0  0  0  0  0  0
 43 44  1  0  0  0
 44  1  1  0  0  0
  1  2  1  0  0  0
  2  3  1  0  0  0
  3  4  1  0  0  0
  4  5  1  0  0  0
  5  6  1  0  0  0
  6  7  1  0  0  0
  6  8  1  0  0  0
  8  9  1  0  0  0
  9 10  2  0  0  0
 10 11  1  0  0  0
 11 12  2  0  0  0
 12 13  1  0  0  0
 13 14  2  0  0  0
 14 15  1  0  0  0
 15 16  2  0  0  0
 16 17  1  0  0  0
 17 18  2  0  0  0
 17 19  1  0  0  0
 19 20  1  0  0  0
 20 21  1  0  0  0
 21 22  2  0  0  0
 22 23  1  0  0  0
 23 24  2  0  0  0
 24 25  1  0  0  0
 25 26  2  0  0  0
 26 27  1  0  0  0
 27 28  2  0  0  0
 28 29  1  0  0  0
 29 30  1  0  0  0
 30 31  2  0  0  0
  2 33  1  0  0  0
 33 34  1  0  0  0
 33 35  1  0  0  0
 35 36  2  0  0  0
 35 37  1  0  0  0
 37 38  2  0  0  0
 38 39  1  0  0  0
 39 40  2  0  0  0
 40 41  1  0  0  0
 41 42  2  0  0  0
  6  1  1  0  0  0
 31  8  1  0  0  0
 42 37  1  0  0  0
 29  4  1  0  0  0
 14  9  1  0  0  0
 31 15  1  0  0  0
 21 16  1  0  0  0
 30 22  1  0  0  0
 28 23  1  0  0  0
 19 32  1  0  0  0
M  END
> <minimizedAffinity>
-6.78825

> <CNNscore>
0.2125848532

> <CNNaffinity>
5.6349830627

> <CNN_VS>
1.1979120970

> <CNNaffinity_variance>
0.1293666214

$$$$
[H]c1c([H])c([H])c(C(=O)N(C([H])([H])[H])[C@]2([H])C([H])([H])[C@@]3([H])O[C@](C([H])([H])[H])(n4c5c([H])c([H])c([H])c([H])c5c5c6c(c7c8c([H])c([H])c([H])c([H])c8n3c7c54)C([H])([H])N([H])C6=O)[C@]2([H])OC([H])([H])[H])c([H])c1[H]


 44 52  0  0  0  0  0  0  0  0999 V2000
    1.8878    1.8025    8.8911 C   0  0  0  0  0  0  0  0  0  0  0  0
    0.5699    1.6769    9.6991 C   0  0  0  0  0  0  0  0  0  0  0  0
    0.4875    0.2619   10.1332 C   0  0  0  0  0  0  0  0  0  0  0  0
    0.2569   -0.5274    8.8393 C   0  0  0  0  0  0  0  0  0  0  0  0
    0.4419    0.2144    7.7308 O   0  0  0  0  0  0  0  0  0  0  0  0
    1.5799    1.0038    7.6179 C   0  0  0  0  0  0  0  0  0  0  0  0
    1.1298    2.0373    6.5712 C   0  0  0  0  0  0  0  0  0  0  0  0
    2.7462    0.2591    7.1864 N   0  0  0  0  0  0  0  0  0  0  0  0
    3.7918    0.6682    6.4583 C   0  0  0  0  0  0  0  0  0  0  0  0
    4.0868    1.8994    5.9377 C   0  0  0  0  0  0  0  0  0  0  0  0
    5.2502    2.1035    5.2083 C   0  0  0  0  0  0  0  0  0  0  0  0
    6.1182    1.0848    4.9996 C   0  0  0  0  0  0  0  0  0  0  0  0
    5.8400   -0.1865    5.5242 C   0  0  0  0  0  0  0  0  0  0  0  0
    4.7029   -0.3802    6.2347 C   0  0  0  0  0  0  0  0  0  0  0  0
    4.1621   -1.4924    6.8805 C   0  0  0  0  0  0  0  0  0  0  0  0
    4.6134   -2.7974    7.0243 C   0  0  0  0  0  0  0  0  0  0  0  0
    5.7734   -3.5347    6.5691 C   0  0  0  0  0  0  0  0  0  0  0  0
    6.7491   -3.2106    5.8898 O   0  0  0  0  0  0  0  0  0  0  0  0
    5.6609   -4.8919    7.0616 N   0  0  0  0  0  0  0  0  0  0  0  0
    4.4389   -5.0104    7.8248 C   0  0  0  0  0  0  0  0  0  0  0  0
    3.8163   -3.6622    7.7673 C   0  0  0  0  0  0  0  0  0  0  0  0
    2.6351   -3.2441    8.3327 C   0  0  0  0  0  0  0  0  0  0  0  0
    1.6689   -3.8754    9.1024 C   0  0  0  0  0  0  0  0  0  0  0  0
    1.5489   -5.1585    9.5793 C   0  0  0  0  0  0  0  0  0  0  0  0
    0.4558   -5.5347   10.3433 C   0  0  0  0  0  0  0  0  0  0  0  0
   -0.5150   -4.5835   10.6150 C   0  0  0  0  0  0  0  0  0  0  0  0
   -0.3773   -3.3037   10.1288 C   0  0  0  0  0  0  0  0  0  0  0  0
    0.7171   -2.9281    9.3641 C   0  0  0  0  0  0  0  0  0  0  0  0
    1.0432   -1.7582    8.8012 N   0  0  0  0  0  0  0  0  0  0  0  0
    2.2110   -1.9450    8.1731 C   0  0  0  0  0  0  0  0  0  0  0  0
    2.9847   -1.0743    7.4432 C   0  0  0  0  0  0  0  0  0  0  0  0
    6.3225   -5.6802    6.9156 H   0  0  0  0  0  0  0  0  0  0  0  0
    0.3706    2.7024   10.6789 N   0  0  0  0  0  0  0  0  0  0  0  0
    1.0382    2.4600   11.9564 C   0  0  0  0  0  0  0  0  0  0  0  0
   -0.3434    3.8589   10.4303 C   0  0  0  0  0  0  0  0  0  0  0  0
   -0.7309    4.0250    9.2061 O   0  0  0  0  0  0  0  0  0  0  0  0
   -0.7479    4.9484   11.3017 C   0  0  0  0  0  0  0  0  0  0  0  0
   -1.9632    5.1145   11.8878 C   0  0  0  0  0  0  0  0  0  0  0  0
   -2.2291    6.1777   12.7676 C   0  0  0  0  0  0  0  0  0  0  0  0
   -1.2837    7.1008   13.0794 C   0  0  0  0  0  0  0  0  0  0  0  0
   -0.0554    6.9485   12.4961 C   0  0  0  0  0  0  0  0  0  0  0  0
    0.2181    5.9232   11.6422 C   0  0  0  0  0  0  0  0  0  0  0  0
    4.0004    2.1416    9.8277 C   0  0  0  0  0  0  0  0  0  0  0  0
    2.9149    1.2863    9.6243 O   0  0  0  0  0  0  0  0  0  0  0  0
 43 44  1  0  0  0
 44  1  1  0  0  0
  1  2  1  0  0  0
  2  3  1  0  0  0
  3  4  1  0  0  0
  4  5  1  0  0  0
  5  6  1  0  0  0
  6  7  1  0  0  0
  6  8  1  0  0  0
  8  9  1  0  0  0
  9 10  2  0  0  0
 10 11  1  0  0  0
 11 12  2  0  0  0
 12 13  1  0  0  0
 13 14  2  0  0  0
 14 15  1  0  0  0
 15 16  2  0  0  0
 16 17  1  0  0  0
 17 18  2  0  0  0
 17 19  1  0  0  0
 19 20  1  0  0  0
 20 21  1  0  0  0
 21 22  2  0  0  0
 22 23  1  0  0  0
 23 24  2  0  0  0
 24 25  1  0  0  0
 25 26  2  0  0  0
 26 27  1  0  0  0
 27 28  2  0  0  0
 28 29  1  0  0  0
 29 30  1  0  0  0
 30 31  2  0  0  0
  2 33  1  0  0  0
 33 34  1  0  0  0
 33 35  1  0  0  0
 35 36  2  0  0  0
 35 37  1  0  0  0
 37 38  2  0  0  0
 38 39  1  0  0  0
 39 40  2  0  0  0
 40 41  1  0  0  0
 41 42  2  0  0  0
  6  1  1  0  0  0
 31  8  1  0  0  0
 42 37  1  0  0  0
 29  4  1  0  0  0
 14  9  1  0  0  0
 31 15  1  0  0  0
 21 16  1  0  0  0
 30 22  1  0  0  0
 28 23  1  0  0  0
 19 32  1  0  0  0
M  END
> <minimizedAffinity>
-6.34749

> <CNNscore>
0.1956095994

> <CNNaffinity>
5.5725159645

> <CNN_VS>
1.0900375843

> <CNNaffinity_variance>
0.2085253298

$$$$
[H]c1c([H])c([H])c(C(=O)N(C([H])([H])[H])[C@]2([H])C([H])([H])[C@@]3([H])O[C@](C([H])([H])[H])(n4c5c([H])c([H])c([H])c([H])c5c5c6c(c7c8c([H])c([H])c([H])c([H])c8n3c7c54)C([H])([H])N([H])C6=O)[C@]2([H])OC([H])([H])[H])c([H])c1[H]


 44 52  0  0  0  0  0  0  0  0999 V2000
    3.2075    5.5077   11.7094 C   0  0  0  0  0  0  0  0  0  0  0  0
    2.9998    4.2941   12.6527 C   0  0  0  0  0  0  0  0  0  0  0  0
    3.5675    3.1218   11.9450 C   0  0  0  0  0  0  0  0  0  0  0  0
    2.6237    2.8909   10.7591 C   0  0  0  0  0  0  0  0  0  0  0  0
    1.7603    3.9065   10.5687 O   0  0  0  0  0  0  0  0  0  0  0  0
    2.2322    5.2135   10.5622 C   0  0  0  0  0  0  0  0  0  0  0  0
    0.9509    6.0004   10.8870 C   0  0  0  0  0  0  0  0  0  0  0  0
    2.8067    5.6028    9.2897 N   0  0  0  0  0  0  0  0  0  0  0  0
    2.8418    6.8076    8.7083 C   0  0  0  0  0  0  0  0  0  0  0  0
    2.3830    8.0209    9.1460 C   0  0  0  0  0  0  0  0  0  0  0  0
    2.5349    9.1615    8.3693 C   0  0  0  0  0  0  0  0  0  0  0  0
    3.1435    9.0942    7.1611 C   0  0  0  0  0  0  0  0  0  0  0  0
    3.6243    7.8630    6.6904 C   0  0  0  0  0  0  0  0  0  0  0  0
    3.4729    6.7530    7.4522 C   0  0  0  0  0  0  0  0  0  0  0  0
    3.8440    5.4197    7.2756 C   0  0  0  0  0  0  0  0  0  0  0  0
    4.5109    4.7662    6.2483 C   0  0  0  0  0  0  0  0  0  0  0  0
    5.0622    5.1649    4.9701 C   0  0  0  0  0  0  0  0  0  0  0  0
    5.1071    6.2497    4.3874 O   0  0  0  0  0  0  0  0  0  0  0  0
    5.6422    3.9922    4.3491 N   0  0  0  0  0  0  0  0  0  0  0  0
    5.4603    2.8607    5.2303 C   0  0  0  0  0  0  0  0  0  0  0  0
    4.7400    3.4037    6.4113 C   0  0  0  0  0  0  0  0  0  0  0  0
    4.3243    2.7346    7.5378 C   0  0  0  0  0  0  0  0  0  0  0  0
    4.4171    1.4141    7.9528 C   0  0  0  0  0  0  0  0  0  0  0  0
    4.9651    0.2928    7.3780 C   0  0  0  0  0  0  0  0  0  0  0  0
    4.9197   -0.9326    8.0234 C   0  0  0  0  0  0  0  0  0  0  0  0
    4.3069   -0.9995    9.2648 C   0  0  0  0  0  0  0  0  0  0  0  0
    3.7639    0.1343    9.8243 C   0  0  0  0  0  0  0  0  0  0  0  0
    3.8098    1.3603    9.1776 C   0  0  0  0  0  0  0  0  0  0  0  0
    3.3521    2.5665    9.5348 N   0  0  0  0  0  0  0  0  0  0  0  0
    3.6641    3.4071    8.5403 C   0  0  0  0  0  0  0  0  0  0  0  0
    3.4287    4.7539    8.3990 C   0  0  0  0  0  0  0  0  0  0  0  0
    6.1183    3.9282    3.4273 H   0  0  0  0  0  0  0  0  0  0  0  0
    3.3876    4.5220   14.0125 N   0  0  0  0  0  0  0  0  0  0  0  0
    3.3510    5.9229   14.4279 C   0  0  0  0  0  0  0  0  0  0  0  0
    3.7152    3.5041   14.8874 C   0  0  0  0  0  0  0  0  0  0  0  0
    3.5364    2.3023   14.4398 O   0  0  0  0  0  0  0  0  0  0  0  0
    4.2312    3.5283   16.2450 C   0  0  0  0  0  0  0  0  0  0  0  0
    5.0308    4.4798   16.7957 C   0  0  0  0  0  0  0  0  0  0  0  0
    5.4229    4.4368   18.1446 C   0  0  0  0  0  0  0  0  0  0  0  0
    5.0242    3.4381   18.9733 C   0  0  0  0  0  0  0  0  0  0  0  0
    4.2201    2.4715   18.4335 C   0  0  0  0  0  0  0  0  0  0  0  0
    3.8310    2.4995   17.1286 C   0  0  0  0  0  0  0  0  0  0  0  0
    5.1468    6.7883   11.4757 C   0  0  0  0  0  0  0  0  0  0  0  0
    4.5127    5.5537   11.3179 O   0  0  0  0  0  0  0  0  0  0  0  0
 43 44  1  0  0  0
 44  1  1  0  0  0
  1  2  1  0  0  0
  2  3  1  0  0  0
  3  4  1  0  0  0
  4  5  1  0  0  0
  5  6  1  0  0  0
  6  7  1  0  0  0
  6  8  1  0  0  0
  8  9  1  0  0  0
  9 10  2  0  0  0
 10 11  1  0  0  0
 11 12  2  0  0  0
 12 13  1  0  0  0
 13 14  2  0  0  0
 14 15  1  0  0  0
 15 16  2  0  0  0
 16 17  1  0  0  0
 17 18  2  0  0  0
 17 19  1  0  0  0
 19 20  1  0  0  0
 20 21  1  0  0  0
 21 22  2  0  0  0
 22 23  1  0  0  0
 23 24  2  0  0  0
 24 25  1  0  0  0
 25 26  2  0  0  0
 26 27  1  0  0  0
 27 28  2  0  0  0
 28 29  1  0  0  0
 29 30  1  0  0  0
 30 31  2  0  0  0
  2 33  1  0  0  0
 33 34  1  0  0  0
 33 35  1  0  0  0
 35 36  2  0  0  0
 35 37  1  0  0  0
 37 38  2  0  0  0
 38 39  1  0  0  0
 39 40  2  0  0  0
 40 41  1  0  0  0
 41 42  2  0  0  0
  6  1  1  0  0  0
 31  8  1  0  0  0
 42 37  1  0  0  0
 29  4  1  0  0  0
 14  9  1  0  0  0
 31 15  1  0  0  0
 21 16  1  0  0  0
 30 22  1  0  0  0
 28 23  1  0  0  0
 19 32  1  0  0  0
M  END
> <minimizedAffinity>
-7.64700

> <CNNscore>
0.1763237566

> <CNNaffinity>
6.2584581375

> <CNN_VS>
1.1035147905

> <CNNaffinity_variance>
0.0694377646

$$$$
[H]C1([H])C(=O)C([H])([H])[C@@]([H])(C([H])([H])[H])[C@]2([H])[C@]([H])(C([H])([H])[H])C([H])([H])[C@@]3([H])[C@]4([H])C([H])([H])C([H])([H])C([H])([H])[C@]([H])(C([H])([H])[H])[C@@]4(C([H])([H])[H])C([H])([H])C([H])([H])[C@]3([H])[C@@]2(C([H])([H])[H])C1([H])[H]


 25 28  0  0  0  0  0  0  0  0999 V2000
    7.6944    2.6945    7.2543 C   0  0  0  0  0  0  0  0  0  0  0  0
    7.2365    2.5084    8.6407 C   0  0  0  0  0  0  0  0  0  0  0  0
    6.7721    1.0820    8.8220 C   0  0  0  0  0  0  0  0  0  0  0  0
    5.3221    0.9248    8.3383 C   0  0  0  0  0  0  0  0  0  0  0  0
    4.9645   -0.4968    8.5685 C   0  0  0  0  0  0  0  0  0  0  0  0
    5.7481   -1.4237    7.7081 C   0  0  0  0  0  0  0  0  0  0  0  0
    4.9812   -2.5272    7.0837 C   0  0  0  0  0  0  0  0  0  0  0  0
    3.8738   -3.0909    7.8931 C   0  0  0  0  0  0  0  0  0  0  0  0
    3.2714   -2.1675    8.8875 C   0  0  0  0  0  0  0  0  0  0  0  0
    1.8285   -2.4840    9.2030 C   0  0  0  0  0  0  0  0  0  0  0  0
    3.4727   -0.7446    8.4676 C   0  0  0  0  0  0  0  0  0  0  0  0
    2.9386   -0.4496    7.0940 C   0  0  0  0  0  0  0  0  0  0  0  0
    2.8178    0.1494    9.4478 C   0  0  0  0  0  0  0  0  0  0  0  0
    3.0538    1.6288    9.2296 C   0  0  0  0  0  0  0  0  0  0  0  0
    4.5021    1.8891    9.1283 C   0  0  0  0  0  0  0  0  0  0  0  0
    4.8471    3.3347    8.7318 C   0  0  0  0  0  0  0  0  0  0  0  0
    4.5707    3.5795    7.2954 C   0  0  0  0  0  0  0  0  0  0  0  0
    3.9208    4.2357    9.5108 C   0  0  0  0  0  0  0  0  0  0  0  0
    3.8243    5.6308    9.0445 C   0  0  0  0  0  0  0  0  0  0  0  0
    5.0358    6.2533    8.5198 C   0  0  0  0  0  0  0  0  0  0  0  0
    4.7978    7.3930    8.0800 O   0  0  0  0  0  0  0  0  0  0  0  0
    6.4543    5.9053    8.3688 C   0  0  0  0  0  0  0  0  0  0  0  0
    6.8182    4.8496    9.3303 C   0  0  0  0  0  0  0  0  0  0  0  0
    6.6115    5.4686   10.7203 C   0  0  0  0  0  0  0  0  0  0  0  0
    6.2589    3.5022    9.1908 C   0  0  0  0  0  0  0  0  0  0  0  0
  1  2  1  0  0  0
  2  3  1  0  0  0
  3  4  1  0  0  0
  4  5  1  0  0  0
  5  6  1  0  0  0
  6  7  1  0  0  0
  7  8  1  0  0  0
  8  9  1  0  0  0
  9 10  1  0  0  0
  9 11  1  0  0  0
 11 12  1  0  0  0
 11 13  1  0  0  0
 13 14  1  0  0  0
 14 15  1  0  0  0
 15 16  1  0  0  0
 16 17  1  0  0  0
 16 18  1  0  0  0
 18 19  1  0  0  0
 19 20  1  0  0  0
 20 21  2  0  0  0
 20 22  1  0  0  0
 22 23  1  0  0  0
 23 24  1  0  0  0
 23 25  1  0  0  0
 25  2  1  0  0  0
 15  4  1  0  0  0
 25 16  1  0  0  0
 11  5  1  0  0  0
M  END
> <minimizedAffinity>
-5.21260

> <CNNscore>
0.4761536121

> <CNNaffinity>
5.0961403847

> <CNN_VS>
2.4265456200

> <CNNaffinity_variance>
0.0237612445

$$$$
[H]C1([H])C(=O)C([H])([H])[C@@]([H])(C([H])([H])[H])[C@]2([H])[C@]([H])(C([H])([H])[H])C([H])([H])[C@@]3([H])[C@]4([H])C([H])([H])C([H])([H])C([H])([H])[C@]([H])(C([H])([H])[H])[C@@]4(C([H])([H])[H])C([H])([H])C([H])([H])[C@]3([H])[C@@]2(C([H])([H])[H])C1([H])[H]


 25 28  0  0  0  0  0  0  0  0999 V2000
    4.7357    6.7214   17.7897 C   0  0  0  0  0  0  0  0  0  0  0  0
    3.4559    6.0082   17.9304 C   0  0  0  0  0  0  0  0  0  0  0  0
    3.3863    5.3813   19.3035 C   0  0  0  0  0  0  0  0  0  0  0  0
    4.1216    4.0322   19.3147 C   0  0  0  0  0  0  0  0  0  0  0  0
    3.9849    3.5016   20.6937 C   0  0  0  0  0  0  0  0  0  0  0  0
    4.7103    4.3310   21.6934 C   0  0  0  0  0  0  0  0  0  0  0  0
    5.4810    3.5828   22.7143 C   0  0  0  0  0  0  0  0  0  0  0  0
    4.8909    2.2993   23.1653 C   0  0  0  0  0  0  0  0  0  0  0  0
    4.0016    1.6232   22.1873 C   0  0  0  0  0  0  0  0  0  0  0  0
    3.9522    0.1232   22.3584 C   0  0  0  0  0  0  0  0  0  0  0  0
    4.3527    2.0346   20.7912 C   0  0  0  0  0  0  0  0  0  0  0  0
    5.7933    1.7848   20.4431 C   0  0  0  0  0  0  0  0  0  0  0  0
    3.4872    1.3066   19.8372 C   0  0  0  0  0  0  0  0  0  0  0  0
    3.6326    1.7217   18.3885 C   0  0  0  0  0  0  0  0  0  0  0  0
    3.4712    3.1833   18.2741 C   0  0  0  0  0  0  0  0  0  0  0  0
    3.7734    3.7335   16.8698 C   0  0  0  0  0  0  0  0  0  0  0  0
    5.2312    3.7423   16.5972 C   0  0  0  0  0  0  0  0  0  0  0  0
    3.1537    2.7763   15.8816 C   0  0  0  0  0  0  0  0  0  0  0  0
    3.6036    2.9015   14.4833 C   0  0  0  0  0  0  0  0  0  0  0  0
    3.8941    4.2422   13.9844 C   0  0  0  0  0  0  0  0  0  0  0  0
    4.3477    4.1992   12.8262 O   0  0  0  0  0  0  0  0  0  0  0  0
    3.7983    5.6238   14.4722 C   0  0  0  0  0  0  0  0  0  0  0  0
    2.8075    5.7056   15.5599 C   0  0  0  0  0  0  0  0  0  0  0  0
    1.4646    5.3168   14.9246 C   0  0  0  0  0  0  0  0  0  0  0  0
    3.0689    5.0506   16.8446 C   0  0  0  0  0  0  0  0  0  0  0  0
  1  2  1  0  0  0
  2  3  1  0  0  0
  3  4  1  0  0  0
  4  5  1  0  0  0
  5  6  1  0  0  0
  6  7  1  0  0  0
  7  8  1  0  0  0
  8  9  1  0  0  0
  9 10  1  0  0  0
  9 11  1  0  0  0
 11 12  1  0  0  0
 11 13  1  0  0  0
 13 14  1  0  0  0
 14 15  1  0  0  0
 15 16  1  0  0  0
 16 17  1  0  0  0
 16 18  1  0  0  0
 18 19  1  0  0  0
 19 20  1  0  0  0
 20 21  2  0  0  0
 20 22  1  0  0  0
 22 23  1  0  0  0
 23 24  1  0  0  0
 23 25  1  0  0  0
 25  2  1  0  0  0
 15  4  1  0  0  0
 25 16  1  0  0  0
 11  5  1  0  0  0
M  END
> <minimizedAffinity>
-8.27473

> <CNNscore>
0.4386279881

> <CNNaffinity>
6.4476828575

> <CNN_VS>
2.8281340599

> <CNNaffinity_variance>
0.2128763497

$$$$
[H]C1([H])C(=O)C([H])([H])[C@@]([H])(C([H])([H])[H])[C@]2([H])[C@]([H])(C([H])([H])[H])C([H])([H])[C@@]3([H])[C@]4([H])C([H])([H])C([H])([H])C([H])([H])[C@]([H])(C([H])([H])[H])[C@@]4(C([H])([H])[H])C([H])([H])C([H])([H])[C@]3([H])[C@@]2(C([H])([H])[H])C1([H])[H]


 25 28  0  0  0  0  0  0  0  0999 V2000
    5.5532    1.5988   19.8983 C   0  0  0  0  0  0  0  0  0  0  0  0
    4.2269    2.2037   20.1012 C   0  0  0  0  0  0  0  0  0  0  0  0
    3.4106    2.0427   18.8399 C   0  0  0  0  0  0  0  0  0  0  0  0
    3.7482    3.1568   17.8370 C   0  0  0  0  0  0  0  0  0  0  0  0
    2.8920    2.9135   16.6497 C   0  0  0  0  0  0  0  0  0  0  0  0
    3.2492    1.6538   15.9433 C   0  0  0  0  0  0  0  0  0  0  0  0
    3.2926    1.7341   14.4642 C   0  0  0  0  0  0  0  0  0  0  0  0
    2.2989    2.6345   13.8309 C   0  0  0  0  0  0  0  0  0  0  0  0
    1.8235    3.7600   14.6745 C   0  0  0  0  0  0  0  0  0  0  0  0
    1.3770    4.9616   13.8755 C   0  0  0  0  0  0  0  0  0  0  0  0
    2.8469    4.1033   15.7120 C   0  0  0  0  0  0  0  0  0  0  0  0
    4.1964    4.4222   15.1321 C   0  0  0  0  0  0  0  0  0  0  0  0
    2.3700    5.2598   16.5020 C   0  0  0  0  0  0  0  0  0  0  0  0
    3.2399    5.6373   17.6821 C   0  0  0  0  0  0  0  0  0  0  0  0
    3.4701    4.4503   18.5268 C   0  0  0  0  0  0  0  0  0  0  0  0
    4.4851    4.6812   19.6593 C   0  0  0  0  0  0  0  0  0  0  0  0
    5.8717    4.7388   19.1360 C   0  0  0  0  0  0  0  0  0  0  0  0
    4.1865    6.0393   20.2451 C   0  0  0  0  0  0  0  0  0  0  0  0
    5.2341    6.6242   21.1016 C   0  0  0  0  0  0  0  0  0  0  0  0
    6.0025    5.7146   21.9459 C   0  0  0  0  0  0  0  0  0  0  0  0
    6.9083    6.3208   22.5467 O   0  0  0  0  0  0  0  0  0  0  0  0
    6.0002    4.2848   22.2803 C   0  0  0  0  0  0  0  0  0  0  0  0
    4.6697    3.7089   22.0169 C   0  0  0  0  0  0  0  0  0  0  0  0
    3.7096    4.4357   22.9698 C   0  0  0  0  0  0  0  0  0  0  0  0
    4.1736    3.6002   20.6422 C   0  0  0  0  0  0  0  0  0  0  0  0
  1  2  1  0  0  0
  2  3  1  0  0  0
  3  4  1  0  0  0
  4  5  1  0  0  0
  5  6  1  0  0  0
  6  7  1  0  0  0
  7  8  1  0  0  0
  8  9  1  0  0  0
  9 10  1  0  0  0
  9 11  1  0  0  0
 11 12  1  0  0  0
 11 13  1  0  0  0
 13 14  1  0  0  0
 14 15  1  0  0  0
 15 16  1  0  0  0
 16 17  1  0  0  0
 16 18  1  0  0  0
 18 19  1  0  0  0
 19 20  1  0  0  0
 20 21  2  0  0  0
 20 22  1  0  0  0
 22 23  1  0  0  0
 23 24  1  0  0  0
 23 25  1  0  0  0
 25  2  1  0  0  0
 15  4  1  0  0  0
 25 16  1  0  0  0
 11  5  1  0  0  0
M  END
> <minimizedAffinity>
-8.58104

> <CNNscore>
0.4345747828

> <CNNaffinity>
6.4207391739

> <CNN_VS>
2.7902913094

> <CNNaffinity_variance>
0.3116299212

$$$$
[H]C1([H])C(=O)C([H])([H])[C@@]([H])(C([H])([H])[H])[C@]2([H])[C@]([H])(C([H])([H])[H])C([H])([H])[C@@]3([H])[C@]4([H])C([H])([H])C([H])([H])C([H])([H])[C@]([H])(C([H])([H])[H])[C@@]4(C([H])([H])[H])C([H])([H])C([H])([H])[C@]3([H])[C@@]2(C([H])([H])[H])C1([H])[H]


 25 28  0  0  0  0  0  0  0  0999 V2000
    6.1885    5.4534    7.4088 C   0  0  0  0  0  0  0  0  0  0  0  0
    6.1726    6.7623    8.0818 C   0  0  0  0  0  0  0  0  0  0  0  0
    5.8981    6.5593    9.5538 C   0  0  0  0  0  0  0  0  0  0  0  0
    4.3877    6.4294    9.8045 C   0  0  0  0  0  0  0  0  0  0  0  0
    4.2290    6.2458   11.2684 C   0  0  0  0  0  0  0  0  0  0  0  0
    4.7989    4.9556   11.7418 C   0  0  0  0  0  0  0  0  0  0  0  0
    3.9745    4.2068   12.7194 C   0  0  0  0  0  0  0  0  0  0  0  0
    3.2015    5.0265   13.6835 C   0  0  0  0  0  0  0  0  0  0  0  0
    2.8438    6.3919   13.2228 C   0  0  0  0  0  0  0  0  0  0  0  0
    1.5867    6.9311   13.8636 C   0  0  0  0  0  0  0  0  0  0  0  0
    2.7980    6.4427   11.7271 C   0  0  0  0  0  0  0  0  0  0  0  0
    1.8636    5.4300   11.1269 C   0  0  0  0  0  0  0  0  0  0  0  0
    2.3884    7.7984   11.2987 C   0  0  0  0  0  0  0  0  0  0  0  0
    2.4301    8.0428    9.8052 C   0  0  0  0  0  0  0  0  0  0  0  0
    3.7596    7.6775    9.2811 C   0  0  0  0  0  0  0  0  0  0  0  0
    3.8557    7.7215    7.7465 C   0  0  0  0  0  0  0  0  0  0  0  0
    3.1525    6.5705    7.1298 C   0  0  0  0  0  0  0  0  0  0  0  0
    3.1282    8.9647    7.2974 C   0  0  0  0  0  0  0  0  0  0  0  0
    2.7872    9.0386    5.8651 C   0  0  0  0  0  0  0  0  0  0  0  0
    3.7380    8.4710    4.9140 C   0  0  0  0  0  0  0  0  0  0  0  0
    3.2906    8.5177    3.7535 O   0  0  0  0  0  0  0  0  0  0  0  0
    5.0735    7.8619    4.9502 C   0  0  0  0  0  0  0  0  0  0  0  0
    5.7867    8.2856    6.1681 C   0  0  0  0  0  0  0  0  0  0  0  0
    5.9463    9.8078    6.0442 C   0  0  0  0  0  0  0  0  0  0  0  0
    5.3217    7.8421    7.4853 C   0  0  0  0  0  0  0  0  0  0  0  0
  1  2  1  0  0  0
  2  3  1  0  0  0
  3  4  1  0  0  0
  4  5  1  0  0  0
  5  6  1  0  0  0
  6  7  1  0  0  0
  7  8  1  0  0  0
  8  9  1  0  0  0
  9 10  1  0  0  0
  9 11  1  0  0  0
 11 12  1  0  0  0
 11 13  1  0  0  0
 13 14  1  0  0  0
 14 15  1  0  0  0
 15 16  1  0  0  0
 16 17  1  0  0  0
 16 18  1  0  0  0
 18 19  1  0  0  0
 19 20  1  0  0  0
 20 21  2  0  0  0
 20 22  1  0  0  0
 22 23  1  0  0  0
 23 24  1  0  0  0
 23 25  1  0  0  0
 25  2  1  0  0  0
 15  4  1  0  0  0
 25 16  1  0  0  0
 11  5  1  0  0  0
M  END
> <minimizedAffinity>
-5.74180

> <CNNscore>
0.4294715226

> <CNNaffinity>
5.2159624100

> <CNN_VS>
2.2401072979

> <CNNaffinity_variance>
0.0702768788

$$$$
[H]C1([H])C(=O)C([H])([H])[C@@]([H])(C([H])([H])[H])[C@]2([H])[C@]([H])(C([H])([H])[H])C([H])([H])[C@@]3([H])[C@]4([H])C([H])([H])C([H])([H])C([H])([H])[C@]([H])(C([H])([H])[H])[C@@]4(C([H])([H])[H])C([H])([H])C([H])([H])[C@]3([H])[C@@]2(C([H])([H])[H])C1([H])[H]


 25 28  0  0  0  0  0  0  0  0999 V2000
    6.1572    5.6045    8.1880 C   0  0  0  0  0  0  0  0  0  0  0  0
    6.0729    5.0101    9.5318 C   0  0  0  0  0  0  0  0  0  0  0  0
    6.2863    3.5178    9.4279 C   0  0  0  0  0  0  0  0  0  0  0  0
    4.9736    2.8136    9.0510 C   0  0  0  0  0  0  0  0  0  0  0  0
    5.2888    1.3650    8.9862 C   0  0  0  0  0  0  0  0  0  0  0  0
    6.2211    1.0382    7.8739 C   0  0  0  0  0  0  0  0  0  0  0  0
    5.8870   -0.1725    7.0874 C   0  0  0  0  0  0  0  0  0  0  0  0
    5.2789   -1.2938    7.8437 C   0  0  0  0  0  0  0  0  0  0  0  0
    4.5334   -0.9114    9.0694 C   0  0  0  0  0  0  0  0  0  0  0  0
    3.4354   -1.8834    9.4316 C   0  0  0  0  0  0  0  0  0  0  0  0
    4.0446    0.4999    8.9641 C   0  0  0  0  0  0  0  0  0  0  0  0
    3.2015    0.7468    7.7445 C   0  0  0  0  0  0  0  0  0  0  0  0
    3.2620    0.8354   10.1740 C   0  0  0  0  0  0  0  0  0  0  0  0
    2.8164    2.2788   10.2741 C   0  0  0  0  0  0  0  0  0  0  0  0
    3.9808    3.1687   10.1067 C   0  0  0  0  0  0  0  0  0  0  0  0
    3.6148    4.6600   10.0166 C   0  0  0  0  0  0  0  0  0  0  0  0
    3.0111    4.9877    8.7021 C   0  0  0  0  0  0  0  0  0  0  0  0
    2.5516    4.9139   11.0568 C   0  0  0  0  0  0  0  0  0  0  0  0
    1.8007    6.1758   10.9265 C   0  0  0  0  0  0  0  0  0  0  0  0
    2.5277    7.3487   10.4505 C   0  0  0  0  0  0  0  0  0  0  0  0
    1.7620    8.3184   10.3010 O   0  0  0  0  0  0  0  0  0  0  0  0
    3.9103    7.6978   10.1007 C   0  0  0  0  0  0  0  0  0  0  0  0
    4.8459    6.7727   10.7643 C   0  0  0  0  0  0  0  0  0  0  0  0
    4.6503    6.9984   12.2706 C   0  0  0  0  0  0  0  0  0  0  0  0
    4.8847    5.3603   10.3752 C   0  0  0  0  0  0  0  0  0  0  0  0
  1  2  1  0  0  0
  2  3  1  0  0  0
  3  4  1  0  0  0
  4  5  1  0  0  0
  5  6  1  0  0  0
  6  7  1  0  0  0
  7  8  1  0  0  0
  8  9  1  0  0  0
  9 10  1  0  0  0
  9 11  1  0  0  0
 11 12  1  0  0  0
 11 13  1  0  0  0
 13 14  1  0  0  0
 14 15  1  0  0  0
 15 16  1  0  0  0
 16 17  1  0  0  0
 16 18  1  0  0  0
 18 19  1  0  0  0
 19 20  1  0  0  0
 20 21  2  0  0  0
 20 22  1  0  0  0
 22 23  1  0  0  0
 23 24  1  0  0  0
 23 25  1  0  0  0
 25  2  1  0  0  0
 15  4  1  0  0  0
 25 16  1  0  0  0
 11  5  1  0  0  0
M  END
> <minimizedAffinity>
-5.24801

> <CNNscore>
0.4253469110

> <CNNaffinity>
5.2456026077

> <CNN_VS>
2.2312009335

> <CNNaffinity_variance>
0.0963124335

$$$$
[H]C1([H])C(=O)C([H])([H])[C@@]([H])(C([H])([H])[H])[C@]2([H])[C@]([H])(C([H])([H])[H])C([H])([H])[C@@]3([H])[C@]4([H])C([H])([H])C([H])([H])C([H])([H])[C@]([H])(C([H])([H])[H])[C@@]4(C([H])([H])[H])C([H])([H])C([H])([H])[C@]3([H])[C@@]2(C([H])([H])[H])C1([H])[H]


 25 28  0  0  0  0  0  0  0  0999 V2000
    4.4887    1.7819    6.6479 C   0  0  0  0  0  0  0  0  0  0  0  0
    5.4648    1.7105    7.7472 C   0  0  0  0  0  0  0  0  0  0  0  0
    4.7400    1.3894    9.0335 C   0  0  0  0  0  0  0  0  0  0  0  0
    4.1576    2.6686    9.6543 C   0  0  0  0  0  0  0  0  0  0  0  0
    3.4823    2.2466   10.9064 C   0  0  0  0  0  0  0  0  0  0  0  0
    2.2981    1.3841   10.6474 C   0  0  0  0  0  0  0  0  0  0  0  0
    1.0929    1.6841   11.4558 C   0  0  0  0  0  0  0  0  0  0  0  0
    1.3372    2.1391   12.8460 C   0  0  0  0  0  0  0  0  0  0  0  0
    2.6400    2.8111   13.0816 C   0  0  0  0  0  0  0  0  0  0  0  0
    2.6084    3.7963   14.2261 C   0  0  0  0  0  0  0  0  0  0  0  0
    3.1522    3.4164   11.8116 C   0  0  0  0  0  0  0  0  0  0  0  0
    2.1819    4.3719   11.1756 C   0  0  0  0  0  0  0  0  0  0  0  0
    4.4226    4.1230   12.0871 C   0  0  0  0  0  0  0  0  0  0  0  0
    5.1331    4.6713   10.8679 C   0  0  0  0  0  0  0  0  0  0  0  0
    5.3046    3.5980    9.8709 C   0  0  0  0  0  0  0  0  0  0  0  0
    5.8590    4.0864    8.5217 C   0  0  0  0  0  0  0  0  0  0  0  0
    4.8264    4.8179    7.7483 C   0  0  0  0  0  0  0  0  0  0  0  0
    6.9527    5.0789    8.8309 C   0  0  0  0  0  0  0  0  0  0  0  0
    7.3907    5.9349    7.7135 C   0  0  0  0  0  0  0  0  0  0  0  0
    7.4177    5.3433    6.3794 C   0  0  0  0  0  0  0  0  0  0  0  0
    7.7171    6.1926    5.5203 O   0  0  0  0  0  0  0  0  0  0  0  0
    7.1893    4.0252    5.7742 C   0  0  0  0  0  0  0  0  0  0  0  0
    7.3685    2.9693    6.7863 C   0  0  0  0  0  0  0  0  0  0  0  0
    8.8384    3.0600    7.2212 C   0  0  0  0  0  0  0  0  0  0  0  0
    6.4250    2.8507    7.9014 C   0  0  0  0  0  0  0  0  0  0  0  0
  1  2  1  0  0  0
  2  3  1  0  0  0
  3  4  1  0  0  0
  4  5  1  0  0  0
  5  6  1  0  0  0
  6  7  1  0  0  0
  7  8  1  0  0  0
  8  9  1  0  0  0
  9 10  1  0  0  0
  9 11  1  0  0  0
 11 12  1  0  0  0
 11 13  1  0  0  0
 13 14  1  0  0  0
 14 15  1  0  0  0
 15 16  1  0  0  0
 16 17  1  0  0  0
 16 18  1  0  0  0
 18 19  1  0  0  0
 19 20  1  0  0  0
 20 21  2  0  0  0
 20 22  1  0  0  0
 22 23  1  0  0  0
 23 24  1  0  0  0
 23 25  1  0  0  0
 25  2  1  0  0  0
 15  4  1  0  0  0
 25 16  1  0  0  0
 11  5  1  0  0  0
M  END
> <minimizedAffinity>
-5.17484

> <CNNscore>
0.4179205596

> <CNNaffinity>
5.2373127937

> <CNN_VS>
2.1887807846

> <CNNaffinity_variance>
0.1530712843

$$$$
[H]C1([H])C(=O)C([H])([H])[C@@]([H])(C([H])([H])[H])[C@]2([H])[C@]([H])(C([H])([H])[H])C([H])([H])[C@@]3([H])[C@]4([H])C([H])([H])C([H])([H])C([H])([H])[C@]([H])(C([H])([H])[H])[C@@]4(C([H])([H])[H])C([H])([H])C([H])([H])[C@]3([H])[C@@]2(C([H])([H])[H])C1([H])[H]


 25 28  0  0  0  0  0  0  0  0999 V2000
    4.3129    3.8933   23.2994 C   0  0  0  0  0  0  0  0  0  0  0  0
    5.5609    3.7453   22.5333 C   0  0  0  0  0  0  0  0  0  0  0  0
    6.1018    5.1157   22.1976 C   0  0  0  0  0  0  0  0  0  0  0  0
    5.4139    5.6704   20.9406 C   0  0  0  0  0  0  0  0  0  0  0  0
    6.0199    7.0024   20.6950 C   0  0  0  0  0  0  0  0  0  0  0  0
    5.6880    7.9810   21.7653 C   0  0  0  0  0  0  0  0  0  0  0  0
    5.3184    9.3400   21.3043 C   0  0  0  0  0  0  0  0  0  0  0  0
    6.0264    9.8343   20.0987 C   0  0  0  0  0  0  0  0  0  0  0  0
    6.5198    8.7865   19.1696 C   0  0  0  0  0  0  0  0  0  0  0  0
    6.6232    9.2551   17.7374 C   0  0  0  0  0  0  0  0  0  0  0  0
    5.7066    7.5376   19.3121 C   0  0  0  0  0  0  0  0  0  0  0  0
    4.2343    7.7612   19.1087 C   0  0  0  0  0  0  0  0  0  0  0  0
    6.1859    6.5312   18.3392 C   0  0  0  0  0  0  0  0  0  0  0  0
    5.5474    5.1637   18.4585 C   0  0  0  0  0  0  0  0  0  0  0  0
    5.6613    4.6841   19.8487 C   0  0  0  0  0  0  0  0  0  0  0  0
    4.8913    3.3806   20.1210 C   0  0  0  0  0  0  0  0  0  0  0  0
    3.4296    3.6225   20.1867 C   0  0  0  0  0  0  0  0  0  0  0  0
    5.1279    2.4763   18.9365 C   0  0  0  0  0  0  0  0  0  0  0  0
    4.2208    1.3215   18.8070 C   0  0  0  0  0  0  0  0  0  0  0  0
    3.7774    0.6694   20.0353 C   0  0  0  0  0  0  0  0  0  0  0  0
    2.9499   -0.2276   19.7911 O   0  0  0  0  0  0  0  0  0  0  0  0
    4.0386    0.7807   21.4759 C   0  0  0  0  0  0  0  0  0  0  0  0
    5.3456    1.4229   21.7018 C   0  0  0  0  0  0  0  0  0  0  0  0
    6.3838    0.4723   21.0881 C   0  0  0  0  0  0  0  0  0  0  0  0
    5.5454    2.8305   21.3464 C   0  0  0  0  0  0  0  0  0  0  0  0
  1  2  1  0  0  0
  2  3  1  0  0  0
  3  4  1  0  0  0
  4  5  1  0  0  0
  5  6  1  0  0  0
  6  7  1  0  0  0
  7  8  1  0  0  0
  8  9  1  0  0  0
  9 10  1  0  0  0
  9 11  1  0  0  0
 11 12  1  0  0  0
 11 13  1  0  0  0
 13 14  1  0  0  0
 14 15  1  0  0  0
 15 16  1  0  0  0
 16 17  1  0  0  0
 16 18  1  0  0  0
 18 19  1  0  0  0
 19 20  1  0  0  0
 20 21  2  0  0  0
 20 22  1  0  0  0
 22 23  1  0  0  0
 23 24  1  0  0  0
 23 25  1  0  0  0
 25  2  1  0  0  0
 15  4  1  0  0  0
 25 16  1  0  0  0
 11  5  1  0  0  0
M  END
> <minimizedAffinity>
-9.39251

> <CNNscore>
0.3922246695

> <CNNaffinity>
6.3088355064

> <CNN_VS>
2.4744808674

> <CNNaffinity_variance>
0.3427260220

$$$$
[H]C1([H])C(=O)C([H])([H])[C@@]([H])(C([H])([H])[H])[C@]2([H])[C@]([H])(C([H])([H])[H])C([H])([H])[C@@]3([H])[C@]4([H])C([H])([H])C([H])([H])C([H])([H])[C@]([H])(C([H])([H])[H])[C@@]4(C([H])([H])[H])C([H])([H])C([H])([H])[C@]3([H])[C@@]2(C([H])([H])[H])C1([H])[H]


 25 28  0  0  0  0  0  0  0  0999 V2000
    2.9726    4.8433   20.3336 C   0  0  0  0  0  0  0  0  0  0  0  0
    3.4808    4.7934   21.7141 C   0  0  0  0  0  0  0  0  0  0  0  0
    4.1732    6.0976   22.0347 C   0  0  0  0  0  0  0  0  0  0  0  0
    5.6200    6.0777   21.5178 C   0  0  0  0  0  0  0  0  0  0  0  0
    6.2072    7.3885   21.8905 C   0  0  0  0  0  0  0  0  0  0  0  0
    5.5676    8.5208   21.1679 C   0  0  0  0  0  0  0  0  0  0  0  0
    6.4909    9.5534   20.6414 C   0  0  0  0  0  0  0  0  0  0  0  0
    7.6900    9.8372   21.4664 C   0  0  0  0  0  0  0  0  0  0  0  0
    8.1539    8.7216   22.3294 C   0  0  0  0  0  0  0  0  0  0  0  0
    9.6347    8.7668   22.6240 C   0  0  0  0  0  0  0  0  0  0  0  0
    7.7172    7.4066   21.7622 C   0  0  0  0  0  0  0  0  0  0  0  0
    8.1704    7.1911   20.3454 C   0  0  0  0  0  0  0  0  0  0  0  0
    8.2374    6.3131   22.6122 C   0  0  0  0  0  0  0  0  0  0  0  0
    7.7611    4.9250   22.2405 C   0  0  0  0  0  0  0  0  0  0  0  0
    6.2881    4.9111   22.1651 C   0  0  0  0  0  0  0  0  0  0  0  0
    5.7064    3.5939   21.6240 C   0  0  0  0  0  0  0  0  0  0  0  0
    5.9123    3.4756   20.1600 C   0  0  0  0  0  0  0  0  0  0  0  0
    6.4894    2.4737   22.2634 C   0  0  0  0  0  0  0  0  0  0  0  0
    6.3502    1.1441   21.6422 C   0  0  0  0  0  0  0  0  0  0  0  0
    5.0442    0.7862   21.0972 C   0  0  0  0  0  0  0  0  0  0  0  0
    5.0863   -0.3184   20.5254 O   0  0  0  0  0  0  0  0  0  0  0  0
    3.6981    1.3698   21.0386 C   0  0  0  0  0  0  0  0  0  0  0  0
    3.5280    2.3518   22.1241 C   0  0  0  0  0  0  0  0  0  0  0  0
    3.6582    1.5518   23.4283 C   0  0  0  0  0  0  0  0  0  0  0  0
    4.2951    3.6005   22.1139 C   0  0  0  0  0  0  0  0  0  0  0  0
  1  2  1  0  0  0
  2  3  1  0  0  0
  3  4  1  0  0  0
  4  5  1  0  0  0
  5  6  1  0  0  0
  6  7  1  0  0  0
  7  8  1  0  0  0
  8  9  1  0  0  0
  9 10  1  0  0  0
  9 11  1  0  0  0
 11 12  1  0  0  0
 11 13  1  0  0  0
 13 14  1  0  0  0
 14 15  1  0  0  0
 15 16  1  0  0  0
 16 17  1  0  0  0
 16 18  1  0  0  0
 18 19  1  0  0  0
 19 20  1  0  0  0
 20 21  2  0  0  0
 20 22  1  0  0  0
 22 23  1  0  0  0
 23 24  1  0  0  0
 23 25  1  0  0  0
 25  2  1  0  0  0
 15  4  1  0  0  0
 25 16  1  0  0  0
 11  5  1  0  0  0
M  END
> <minimizedAffinity>
-7.07567

> <CNNscore>
0.3873779774

> <CNNaffinity>
5.8390078545

> <CNN_VS>
2.2619030476

> <CNNaffinity_variance>
0.1665946990

$$$$
[H]C1([H])C(=O)C([H])([H])[C@@]([H])(C([H])([H])[H])[C@]2([H])[C@]([H])(C([H])([H])[H])C([H])([H])[C@@]3([H])[C@]4([H])C([H])([H])C([H])([H])C([H])([H])[C@]([H])(C([H])([H])[H])[C@@]4(C([H])([H])[H])C([H])([H])C([H])([H])[C@]3([H])[C@@]2(C([H])([H])[H])C1([H])[H]


 25 28  0  0  0  0  0  0  0  0999 V2000
    2.3937    1.5729   16.4954 C   0  0  0  0  0  0  0  0  0  0  0  0
    3.7226    2.1307   16.1969 C   0  0  0  0  0  0  0  0  0  0  0  0
    4.5737    2.0783   17.4443 C   0  0  0  0  0  0  0  0  0  0  0  0
    4.2835    3.2907   18.3426 C   0  0  0  0  0  0  0  0  0  0  0  0
    5.1709    3.1485   19.5234 C   0  0  0  0  0  0  0  0  0  0  0  0
    4.8155    1.9703   20.3594 C   0  0  0  0  0  0  0  0  0  0  0  0
    4.8176    2.1950   21.8241 C   0  0  0  0  0  0  0  0  0  0  0  0
    5.8436    3.1344   22.3380 C   0  0  0  0  0  0  0  0  0  0  0  0
    6.3110    4.1634   21.3752 C   0  0  0  0  0  0  0  0  0  0  0  0
    6.7998    5.4287   22.0399 C   0  0  0  0  0  0  0  0  0  0  0  0
    5.2625    4.4229   20.3385 C   0  0  0  0  0  0  0  0  0  0  0  0
    3.9361    4.8215   20.9223 C   0  0  0  0  0  0  0  0  0  0  0  0
    5.7335    5.4880   19.4260 C   0  0  0  0  0  0  0  0  0  0  0  0
    4.8347    5.7648   18.2396 C   0  0  0  0  0  0  0  0  0  0  0  0
    4.5609    4.5056   17.5219 C   0  0  0  0  0  0  0  0  0  0  0  0
    3.5162    4.6438   16.4014 C   0  0  0  0  0  0  0  0  0  0  0  0
    2.1470    4.7776   16.9554 C   0  0  0  0  0  0  0  0  0  0  0  0
    3.8183    5.9327   15.6773 C   0  0  0  0  0  0  0  0  0  0  0  0
    2.7547    6.4506   14.7976 C   0  0  0  0  0  0  0  0  0  0  0  0
    1.9474    5.4773   14.0683 C   0  0  0  0  0  0  0  0  0  0  0  0
    1.0335    6.0387   13.4369 O   0  0  0  0  0  0  0  0  0  0  0  0
    1.9174    4.0221   13.8756 C   0  0  0  0  0  0  0  0  0  0  0  0
    3.2461    3.4501   14.1564 C   0  0  0  0  0  0  0  0  0  0  0  0
    4.1885    4.0630   13.1102 C   0  0  0  0  0  0  0  0  0  0  0  0
    3.7814    3.4667   15.5205 C   0  0  0  0  0  0  0  0  0  0  0  0
  1  2  1  0  0  0
  2  3  1  0  0  0
  3  4  1  0  0  0
  4  5  1  0  0  0
  5  6  1  0  0  0
  6  7  1  0  0  0
  7  8  1  0  0  0
  8  9  1  0  0  0
  9 10  1  0  0  0
  9 11  1  0  0  0
 11 12  1  0  0  0
 11 13  1  0  0  0
 13 14  1  0  0  0
 14 15  1  0  0  0
 15 16  1  0  0  0
 16 17  1  0  0  0
 16 18  1  0  0  0
 18 19  1  0  0  0
 19 20  1  0  0  0
 20 21  2  0  0  0
 20 22  1  0  0  0
 22 23  1  0  0  0
 23 24  1  0  0  0
 23 25  1  0  0  0
 25  2  1  0  0  0
 15  4  1  0  0  0
 25 16  1  0  0  0
 11  5  1  0  0  0
M  END
> <minimizedAffinity>
-9.52423

> <CNNscore>
0.3691564798

> <CNNaffinity>
6.2760324478

> <CNN_VS>
2.3168380260

> <CNNaffinity_variance>
0.1170884222

$$$$
[H]C1=C([H])C([H])(F)C([H])([H])C([H])=C1N([H])C(=O)C1(C(=O)N([H])c2c([H])c([H])c(Oc3c([H])c([H])nc4c([H])c(OC([H])([H])C([H])([H])C([H])([H])N5C([H])([H])C([H])([H])OC([H])([H])C5([H])[H])c(OC([H])([H])[H])c([H])c34)c(F)c2[H])C([H])([H])C1([H])[H]


 48 53  0  0  0  0  0  0  0  0999 V2000
    2.6668    2.7807   14.4808 C   0  0  0  0  0  0  0  0  0  0  0  0
    1.7888    2.0073   13.7342 C   0  0  0  0  0  0  0  0  0  0  0  0
    0.7478    2.5029   13.0069 C   0  0  0  0  0  0  0  0  0  0  0  0
    0.5258    3.8847   12.9950 C   0  0  0  0  0  0  0  0  0  0  0  0
    1.3694    4.6842   13.7173 C   0  0  0  0  0  0  0  0  0  0  0  0
    2.4343    4.1449   14.4573 C   0  0  0  0  0  0  0  0  0  0  0  0
    3.2405    5.0033   15.1242 F   0  0  0  0  0  0  0  0  0  0  0  0
   -0.5506    4.3988   12.1883 N   0  0  0  0  0  0  0  0  0  0  0  0
   -0.4861    4.4791   10.8160 C   0  0  0  0  0  0  0  0  0  0  0  0
    0.6294    4.0939   10.2763 O   0  0  0  0  0  0  0  0  0  0  0  0
   -1.3615    4.7239   12.7365 H   0  0  0  0  0  0  0  0  0  0  0  0
   -1.4799    4.9398    9.8165 C   0  0  0  0  0  0  0  0  0  0  0  0
   -0.9347    5.0821    8.4055 C   0  0  0  0  0  0  0  0  0  0  0  0
   -1.0811    6.3217    9.1628 C   0  0  0  0  0  0  0  0  0  0  0  0
   -2.9273    4.7747    9.9537 C   0  0  0  0  0  0  0  0  0  0  0  0
   -3.2815    4.2145   11.0891 O   0  0  0  0  0  0  0  0  0  0  0  0
   -4.0073    5.0907    9.1384 N   0  0  0  0  0  0  0  0  0  0  0  0
   -3.9281    5.5592    8.2210 H   0  0  0  0  0  0  0  0  0  0  0  0
   -5.3763    4.7958    9.5624 C   0  0  0  0  0  0  0  0  0  0  0  0
   -5.8440    3.5976    9.2953 C   0  0  0  0  0  0  0  0  0  0  0  0
   -7.1754    3.1022    9.6315 C   0  0  0  0  0  0  0  0  0  0  0  0
   -8.0677    4.0788   10.2928 C   0  0  0  0  0  0  0  0  0  0  0  0
   -8.4880    3.5689   11.5479 F   0  0  0  0  0  0  0  0  0  0  0  0
   -7.4506    5.3823   10.5455 C   0  0  0  0  0  0  0  0  0  0  0  0
   -6.2234    5.7362   10.2221 C   0  0  0  0  0  0  0  0  0  0  0  0
    3.7031    2.2178   15.1927 O   0  0  0  0  0  0  0  0  0  0  0  0
    5.1845    3.9155   18.6121 C   0  0  0  0  0  0  0  0  0  0  0  0
    4.6971    3.3617   17.4603 C   0  0  0  0  0  0  0  0  0  0  0  0
    4.0134    2.1673   17.5336 C   0  0  0  0  0  0  0  0  0  0  0  0
    3.4947    1.5563   16.3715 C   0  0  0  0  0  0  0  0  0  0  0  0
    2.8199    0.3620   16.4659 C   0  0  0  0  0  0  0  0  0  0  0  0
    2.6364   -0.2552   17.6837 C   0  0  0  0  0  0  0  0  0  0  0  0
    3.1298    0.3286   18.7871 N   0  0  0  0  0  0  0  0  0  0  0  0
    3.8025    1.5109   18.7185 C   0  0  0  0  0  0  0  0  0  0  0  0
    4.2989    2.0767   19.8830 C   0  0  0  0  0  0  0  0  0  0  0  0
    4.9837    3.2674   19.8421 C   0  0  0  0  0  0  0  0  0  0  0  0
    6.2283    5.7574   17.4536 C   0  0  0  0  0  0  0  0  0  0  0  0
    5.8838    5.1063   18.6550 O   0  0  0  0  0  0  0  0  0  0  0  0
    5.4664    3.8335   20.9765 O   0  0  0  0  0  0  0  0  0  0  0  0
    4.7017    4.3875   21.9846 C   0  0  0  0  0  0  0  0  0  0  0  0
    5.4683    5.4254   22.7924 C   0  0  0  0  0  0  0  0  0  0  0  0
    6.5581    6.0242   21.8931 C   0  0  0  0  0  0  0  0  0  0  0  0
    6.3395    7.4470   21.8162 N   0  0  0  0  0  0  0  0  0  0  0  0
    7.6176    8.1354   21.5207 C   0  0  0  0  0  0  0  0  0  0  0  0
    7.2211    9.6033   21.3377 C   0  0  0  0  0  0  0  0  0  0  0  0
    5.9596    9.8782   21.8657 O   0  0  0  0  0  0  0  0  0  0  0  0
    4.9366    9.2297   21.1459 C   0  0  0  0  0  0  0  0  0  0  0  0
    5.4279    7.8337   20.7408 C   0  0  0  0  0  0  0  0  0  0  0  0
 37 38  1  0  0  0
 38 27  1  0  0  0
 27 28  2  0  0  0
 28 29  1  0  0  0
 29 30  2  0  0  0
 30 26  1  0  0  0
 26  1  1  0  0  0
  1  2  2  0  0  0
  2  3  1  0  0  0
  3  4  2  0  0  0
  4  8  1  0  0  0
  8  9  1  0  0  0
  9 10  2  0  0  0
  9 12  1  0  0  0
 12 13  1  0  0  0
 13 14  1  0  0  0
 12 15  1  0  0  0
 15 16  2  0  0  0
 15 17  1  0  0  0
 17 19  1  0  0  0
 19 20  2  0  0  0
 20 21  1  0  0  0
 21 22  1  0  0  0
 22 23  1  0  0  0
 22 24  1  0  0  0
 24 25  2  0  0  0
  4  5  1  0  0  0
  5  6  2  0  0  0
  6  7  1  0  0  0
 30 31  1  0  0  0
 31 32  2  0  0  0
 32 33  1  0  0  0
 33 34  2  0  0  0
 34 35  1  0  0  0
 35 36  2  0  0  0
 36 39  1  0  0  0
 39 40  1  0  0  0
 40 41  1  0  0  0
 41 42  1  0  0  0
 42 43  1  0  0  0
 43 44  1  0  0  0
 44 45  1  0  0  0
 45 46  1  0  0  0
 46 47  1  0  0  0
 47 48  1  0  0  0
 36 27  1  0  0  0
 48 43  1  0  0  0
 34 29  1  0  0  0
  6  1  1  0  0  0
 14 12  1  0  0  0
 25 19  1  0  0  0
  8 11  1  0  0  0
 17 18  1  0  0  0
M  END
> <minimizedAffinity>
-8.71259

> <CNNscore>
0.2296081334

> <CNNaffinity>
6.6891264915

> <CNN_VS>
1.5358778238

> <CNNaffinity_variance>
0.1948491633

$$$$
[H]C1=C([H])C([H])(F)C([H])([H])C([H])=C1N([H])C(=O)C1(C(=O)N([H])c2c([H])c([H])c(Oc3c([H])c([H])nc4c([H])c(OC([H])([H])C([H])([H])C([H])([H])N5C([H])([H])C([H])([H])OC([H])([H])C5([H])[H])c(OC([H])([H])[H])c([H])c34)c(F)c2[H])C([H])([H])C1([H])[H]


 48 53  0  0  0  0  0  0  0  0999 V2000
    3.7655    2.4103   15.9639 C   0  0  0  0  0  0  0  0  0  0  0  0
    3.8389    3.6886   15.4283 C   0  0  0  0  0  0  0  0  0  0  0  0
    2.9837    4.1844   14.4897 C   0  0  0  0  0  0  0  0  0  0  0  0
    1.9503    3.3685   14.0153 C   0  0  0  0  0  0  0  0  0  0  0  0
    1.8411    2.1005   14.5181 C   0  0  0  0  0  0  0  0  0  0  0  0
    2.7374    1.6168   15.4853 C   0  0  0  0  0  0  0  0  0  0  0  0
    2.5474    0.3611   15.9527 F   0  0  0  0  0  0  0  0  0  0  0  0
    1.0281    3.9190   13.0561 N   0  0  0  0  0  0  0  0  0  0  0  0
    1.0146    3.5476   11.7311 C   0  0  0  0  0  0  0  0  0  0  0  0
    1.9159    2.6851   11.3738 O   0  0  0  0  0  0  0  0  0  0  0  0
    0.3980    4.6346   13.4495 H   0  0  0  0  0  0  0  0  0  0  0  0
    0.1403    3.9648   10.6084 C   0  0  0  0  0  0  0  0  0  0  0  0
    0.5851    3.4649    9.2443 C   0  0  0  0  0  0  0  0  0  0  0  0
    0.9025    4.8566    9.5503 C   0  0  0  0  0  0  0  0  0  0  0  0
   -1.2682    4.3345   10.7512 C   0  0  0  0  0  0  0  0  0  0  0  0
   -1.4818    5.2092   11.7092 O   0  0  0  0  0  0  0  0  0  0  0  0
   -2.4277    3.9596   10.0835 N   0  0  0  0  0  0  0  0  0  0  0  0
   -2.4552    3.3034    9.2859 H   0  0  0  0  0  0  0  0  0  0  0  0
   -3.7249    4.5187   10.4650 C   0  0  0  0  0  0  0  0  0  0  0  0
   -4.0964    5.6329    9.8767 C   0  0  0  0  0  0  0  0  0  0  0  0
   -5.3459    6.3508   10.1104 C   0  0  0  0  0  0  0  0  0  0  0  0
   -6.2302    5.7664   11.1417 C   0  0  0  0  0  0  0  0  0  0  0  0
   -7.4954    5.4686   10.5737 F   0  0  0  0  0  0  0  0  0  0  0  0
   -5.7251    4.5268   11.7349 C   0  0  0  0  0  0  0  0  0  0  0  0
   -4.5842    3.9355   11.4441 C   0  0  0  0  0  0  0  0  0  0  0  0
    4.6604    1.9700   16.9141 O   0  0  0  0  0  0  0  0  0  0  0  0
    5.3684    5.1903   19.3425 C   0  0  0  0  0  0  0  0  0  0  0  0
    5.1396    4.1235   18.5177 C   0  0  0  0  0  0  0  0  0  0  0  0
    4.5695    2.9848   19.0449 C   0  0  0  0  0  0  0  0  0  0  0  0
    4.3173    1.8577   18.2332 C   0  0  0  0  0  0  0  0  0  0  0  0
    3.7523    0.7297   18.7801 C   0  0  0  0  0  0  0  0  0  0  0  0
    3.4226    0.6776   20.1166 C   0  0  0  0  0  0  0  0  0  0  0  0
    3.6628    1.7512   20.8857 N   0  0  0  0  0  0  0  0  0  0  0  0
    4.2224    2.8793   20.3669 C   0  0  0  0  0  0  0  0  0  0  0  0
    4.4567    3.9638   21.1986 C   0  0  0  0  0  0  0  0  0  0  0  0
    5.0226    5.1132   20.7019 C   0  0  0  0  0  0  0  0  0  0  0  0
    6.5921    6.4360   17.6766 C   0  0  0  0  0  0  0  0  0  0  0  0
    5.9343    6.3784   18.9216 O   0  0  0  0  0  0  0  0  0  0  0  0
    5.2486    6.1827   21.5053 O   0  0  0  0  0  0  0  0  0  0  0  0
    6.1420    6.2205   22.5580 C   0  0  0  0  0  0  0  0  0  0  0  0
    7.5202    5.7034   22.1700 C   0  0  0  0  0  0  0  0  0  0  0  0
    8.5247    6.8534   22.3226 C   0  0  0  0  0  0  0  0  0  0  0  0
    7.8700    7.9253   23.0300 N   0  0  0  0  0  0  0  0  0  0  0  0
    8.3895    8.0028   24.4153 C   0  0  0  0  0  0  0  0  0  0  0  0
    7.7158    9.2472   25.0009 C   0  0  0  0  0  0  0  0  0  0  0  0
    6.6078    9.6473   24.2542 O   0  0  0  0  0  0  0  0  0  0  0  0
    6.9764   10.1148   22.9772 C   0  0  0  0  0  0  0  0  0  0  0  0
    8.1191    9.2409   22.4434 C   0  0  0  0  0  0  0  0  0  0  0  0
 37 38  1  0  0  0
 38 27  1  0  0  0
 27 28  2  0  0  0
 28 29  1  0  0  0
 29 30  2  0  0  0
 30 26  1  0  0  0
 26  1  1  0  0  0
  1  2  2  0  0  0
  2  3  1  0  0  0
  3  4  2  0  0  0
  4  8  1  0  0  0
  8  9  1  0  0  0
  9 10  2  0  0  0
  9 12  1  0  0  0
 12 13  1  0  0  0
 13 14  1  0  0  0
 12 15  1  0  0  0
 15 16  2  0  0  0
 15 17  1  0  0  0
 17 19  1  0  0  0
 19 20  2  0  0  0
 20 21  1  0  0  0
 21 22  1  0  0  0
 22 23  1  0  0  0
 22 24  1  0  0  0
 24 25  2  0  0  0
  4  5  1  0  0  0
  5  6  2  0  0  0
  6  7  1  0  0  0
 30 31  1  0  0  0
 31 32  2  0  0  0
 32 33  1  0  0  0
 33 34  2  0  0  0
 34 35  1  0  0  0
 35 36  2  0  0  0
 36 39  1  0  0  0
 39 40  1  0  0  0
 40 41  1  0  0  0
 41 42  1  0  0  0
 42 43  1  0  0  0
 43 44  1  0  0  0
 44 45  1  0  0  0
 45 46  1  0  0  0
 46 47  1  0  0  0
 47 48  1  0  0  0
 36 27  1  0  0  0
 48 43  1  0  0  0
 34 29  1  0  0  0
  6  1  1  0  0  0
 14 12  1  0  0  0
 25 19  1  0  0  0
  8 11  1  0  0  0
 17 18  1  0  0  0
M  END
> <minimizedAffinity>
-9.08721

> <CNNscore>
0.1672569513

> <CNNaffinity>
6.5816869736

> <CNN_VS>
1.1008329391

> <CNNaffinity_variance>
0.3323383331

$$$$
[H]C1=C([H])C([H])(F)C([H])([H])C([H])=C1N([H])C(=O)C1(C(=O)N([H])c2c([H])c([H])c(Oc3c([H])c([H])nc4c([H])c(OC([H])([H])C([H])([H])C([H])([H])N5C([H])([H])C([H])([H])OC([H])([H])C5([H])[H])c(OC([H])([H])[H])c([H])c34)c(F)c2[H])C([H])([H])C1([H])[H]


 48 53  0  0  0  0  0  0  0  0999 V2000
    3.2241    2.4124   15.0339 C   0  0  0  0  0  0  0  0  0  0  0  0
    2.9436    1.7931   16.2439 C   0  0  0  0  0  0  0  0  0  0  0  0
    3.4378    2.1922   17.4500 C   0  0  0  0  0  0  0  0  0  0  0  0
    4.2903    3.3009   17.5004 C   0  0  0  0  0  0  0  0  0  0  0  0
    4.5920    3.9419   16.3297 C   0  0  0  0  0  0  0  0  0  0  0  0
    4.0675    3.5079   15.1012 C   0  0  0  0  0  0  0  0  0  0  0  0
    4.3915    4.2103   13.9908 F   0  0  0  0  0  0  0  0  0  0  0  0
    4.7705    3.7381   18.7857 N   0  0  0  0  0  0  0  0  0  0  0  0
    4.2352    4.8116   19.4600 C   0  0  0  0  0  0  0  0  0  0  0  0
    3.2801    5.4454   18.8518 O   0  0  0  0  0  0  0  0  0  0  0  0
    5.5680    3.1881   19.1398 H   0  0  0  0  0  0  0  0  0  0  0  0
    4.5597    5.3937   20.7847 C   0  0  0  0  0  0  0  0  0  0  0  0
    4.8449    4.3694   21.8700 C   0  0  0  0  0  0  0  0  0  0  0  0
    3.5180    4.9777   21.8973 C   0  0  0  0  0  0  0  0  0  0  0  0
    5.0971    6.7397   20.9866 C   0  0  0  0  0  0  0  0  0  0  0  0
    6.3508    6.8610   20.6100 O   0  0  0  0  0  0  0  0  0  0  0  0
    4.5591    7.9188   21.4877 N   0  0  0  0  0  0  0  0  0  0  0  0
    3.5825    8.0246   21.8076 H   0  0  0  0  0  0  0  0  0  0  0  0
    5.3670    9.1363   21.5649 C   0  0  0  0  0  0  0  0  0  0  0  0
    5.2553    9.9962   20.5780 C   0  0  0  0  0  0  0  0  0  0  0  0
    5.9666   11.2658   20.4622 C   0  0  0  0  0  0  0  0  0  0  0  0
    6.9248   11.5579   21.5501 C   0  0  0  0  0  0  0  0  0  0  0  0
    6.5774   12.7819   22.1772 F   0  0  0  0  0  0  0  0  0  0  0  0
    6.9727   10.5380   22.5994 C   0  0  0  0  0  0  0  0  0  0  0  0
    6.2720    9.4227   22.6307 C   0  0  0  0  0  0  0  0  0  0  0  0
    2.6891    1.9612   13.8474 O   0  0  0  0  0  0  0  0  0  0  0  0
    2.2769    1.0133    9.8850 C   0  0  0  0  0  0  0  0  0  0  0  0
    2.4269    1.3168   11.2102 C   0  0  0  0  0  0  0  0  0  0  0  0
    1.7223    2.3795   11.7335 C   0  0  0  0  0  0  0  0  0  0  0  0
    1.8470    2.7323   13.0946 C   0  0  0  0  0  0  0  0  0  0  0  0
    1.1389    3.7992   13.5956 C   0  0  0  0  0  0  0  0  0  0  0  0
    0.3007    4.5365   12.7886 C   0  0  0  0  0  0  0  0  0  0  0  0
    0.1833    4.1981   11.4949 N   0  0  0  0  0  0  0  0  0  0  0  0
    0.8752    3.1461   10.9757 C   0  0  0  0  0  0  0  0  0  0  0  0
    0.7270    2.8340    9.6328 C   0  0  0  0  0  0  0  0  0  0  0  0
    1.4153    1.7796    9.0826 C   0  0  0  0  0  0  0  0  0  0  0  0
    4.3258    0.0481    9.0514 C   0  0  0  0  0  0  0  0  0  0  0  0
    2.9336   -0.0275    9.2569 O   0  0  0  0  0  0  0  0  0  0  0  0
    1.2714    1.4609    7.7719 O   0  0  0  0  0  0  0  0  0  0  0  0
    0.1799    1.7740    6.9855 C   0  0  0  0  0  0  0  0  0  0  0  0
   -0.3053    0.5872    6.1648 C   0  0  0  0  0  0  0  0  0  0  0  0
   -0.9668   -0.4171    7.1181 C   0  0  0  0  0  0  0  0  0  0  0  0
   -2.2063    0.1568    7.5789 N   0  0  0  0  0  0  0  0  0  0  0  0
   -3.2226    0.0850    6.5033 C   0  0  0  0  0  0  0  0  0  0  0  0
   -4.5057    0.5990    7.1628 C   0  0  0  0  0  0  0  0  0  0  0  0
   -4.2484    1.2998    8.3410 O   0  0  0  0  0  0  0  0  0  0  0  0
   -3.7425    0.4590    9.3521 C   0  0  0  0  0  0  0  0  0  0  0  0
   -2.7862   -0.5576    8.7148 C   0  0  0  0  0  0  0  0  0  0  0  0
 37 38  1  0  0  0
 38 27  1  0  0  0
 27 28  2  0  0  0
 28 29  1  0  0  0
 29 30  2  0  0  0
 30 26  1  0  0  0
 26  1  1  0  0  0
  1  2  2  0  0  0
  2  3  1  0  0  0
  3  4  2  0  0  0
  4  8  1  0  0  0
  8  9  1  0  0  0
  9 10  2  0  0  0
  9 12  1  0  0  0
 12 13  1  0  0  0
 13 14  1  0  0  0
 12 15  1  0  0  0
 15 16  2  0  0  0
 15 17  1  0  0  0
 17 19  1  0  0  0
 19 20  2  0  0  0
 20 21  1  0  0  0
 21 22  1  0  0  0
 22 23  1  0  0  0
 22 24  1  0  0  0
 24 25  2  0  0  0
  4  5  1  0  0  0
  5  6  2  0  0  0
  6  7  1  0  0  0
 30 31  1  0  0  0
 31 32  2  0  0  0
 32 33  1  0  0  0
 33 34  2  0  0  0
 34 35  1  0  0  0
 35 36  2  0  0  0
 36 39  1  0  0  0
 39 40  1  0  0  0
 40 41  1  0  0  0
 41 42  1  0  0  0
 42 43  1  0  0  0
 43 44  1  0  0  0
 44 45  1  0  0  0
 45 46  1  0  0  0
 46 47  1  0  0  0
 47 48  1  0  0  0
 36 27  1  0  0  0
 48 43  1  0  0  0
 34 29  1  0  0  0
  6  1  1  0  0  0
 14 12  1  0  0  0
 25 19  1  0  0  0
  8 11  1  0  0  0
 17 18  1  0  0  0
M  END
> <minimizedAffinity>
-7.47899

> <CNNscore>
0.1565794200

> <CNNaffinity>
6.4127225876

> <CNN_VS>
1.0041004419

> <CNNaffinity_variance>
0.3706519306

$$$$
[H]C1=C([H])C([H])(F)C([H])([H])C([H])=C1N([H])C(=O)C1(C(=O)N([H])c2c([H])c([H])c(Oc3c([H])c([H])nc4c([H])c(OC([H])([H])C([H])([H])C([H])([H])N5C([H])([H])C([H])([H])OC([H])([H])C5([H])[H])c(OC([H])([H])[H])c([H])c34)c(F)c2[H])C([H])([H])C1([H])[H]


 48 53  0  0  0  0  0  0  0  0999 V2000
    3.2929    3.0559   14.3363 C   0  0  0  0  0  0  0  0  0  0  0  0
    2.0791    2.3947   14.4620 C   0  0  0  0  0  0  0  0  0  0  0  0
    1.1916    2.2067   13.4446 C   0  0  0  0  0  0  0  0  0  0  0  0
    1.5007    2.7055   12.1741 C   0  0  0  0  0  0  0  0  0  0  0  0
    2.6888    3.3634   12.0061 C   0  0  0  0  0  0  0  0  0  0  0  0
    3.5841    3.5418   13.0735 C   0  0  0  0  0  0  0  0  0  0  0  0
    4.7506    4.1798   12.8214 F   0  0  0  0  0  0  0  0  0  0  0  0
    0.5746    2.4624   11.0985 N   0  0  0  0  0  0  0  0  0  0  0  0
   -0.3459    3.3945   10.6773 C   0  0  0  0  0  0  0  0  0  0  0  0
   -0.3623    4.5136   11.3341 O   0  0  0  0  0  0  0  0  0  0  0  0
    0.6490    1.5172   10.6925 H   0  0  0  0  0  0  0  0  0  0  0  0
   -1.3495    3.3529    9.5865 C   0  0  0  0  0  0  0  0  0  0  0  0
   -1.0133    2.3932    8.4575 C   0  0  0  0  0  0  0  0  0  0  0  0
   -0.7487    3.8052    8.1971 C   0  0  0  0  0  0  0  0  0  0  0  0
   -2.7562    3.7241    9.7433 C   0  0  0  0  0  0  0  0  0  0  0  0
   -3.5881    2.8175    9.2803 O   0  0  0  0  0  0  0  0  0  0  0  0
   -3.3983    4.8315   10.2838 N   0  0  0  0  0  0  0  0  0  0  0  0
   -2.9124    5.6329   10.7187 H   0  0  0  0  0  0  0  0  0  0  0  0
   -4.8590    4.9163   10.2983 C   0  0  0  0  0  0  0  0  0  0  0  0
   -5.4311    5.6076    9.3388 C   0  0  0  0  0  0  0  0  0  0  0  0
   -6.8663    5.8140    9.1692 C   0  0  0  0  0  0  0  0  0  0  0  0
   -7.7219    5.2134   10.2153 C   0  0  0  0  0  0  0  0  0  0  0  0
   -8.6413    4.3113    9.6213 F   0  0  0  0  0  0  0  0  0  0  0  0
   -6.9871    4.4647   11.2367 C   0  0  0  0  0  0  0  0  0  0  0  0
   -5.6797    4.3134   11.2982 C   0  0  0  0  0  0  0  0  0  0  0  0
    4.1485    3.2099   15.4049 O   0  0  0  0  0  0  0  0  0  0  0  0
    4.3615    2.5145   19.4348 C   0  0  0  0  0  0  0  0  0  0  0  0
    4.2909    2.7290   18.0858 C   0  0  0  0  0  0  0  0  0  0  0  0
    4.1545    4.0202   17.6234 C   0  0  0  0  0  0  0  0  0  0  0  0
    4.0746    4.2903   16.2402 C   0  0  0  0  0  0  0  0  0  0  0  0
    3.9337    5.5854   15.8000 C   0  0  0  0  0  0  0  0  0  0  0  0
    3.8703    6.6347   16.6902 C   0  0  0  0  0  0  0  0  0  0  0  0
    3.9476    6.3748   18.0049 N   0  0  0  0  0  0  0  0  0  0  0  0
    4.0864    5.1004   18.4648 C   0  0  0  0  0  0  0  0  0  0  0  0
    4.1582    4.8772   19.8314 C   0  0  0  0  0  0  0  0  0  0  0  0
    4.2955    3.6011   20.3226 C   0  0  0  0  0  0  0  0  0  0  0  0
    3.3845    0.4022   20.0736 C   0  0  0  0  0  0  0  0  0  0  0  0
    4.4973    1.2643   20.0070 O   0  0  0  0  0  0  0  0  0  0  0  0
    4.3748    3.3726   21.6574 O   0  0  0  0  0  0  0  0  0  0  0  0
    5.1052    4.1235   22.5577 C   0  0  0  0  0  0  0  0  0  0  0  0
    6.5079    4.4333   22.0536 C   0  0  0  0  0  0  0  0  0  0  0  0
    6.7547    5.9391   22.2165 C   0  0  0  0  0  0  0  0  0  0  0  0
    7.6835    6.3510   21.1940 N   0  0  0  0  0  0  0  0  0  0  0  0
    7.0763    7.4188   20.3656 C   0  0  0  0  0  0  0  0  0  0  0  0
    8.2020    7.8477   19.4200 C   0  0  0  0  0  0  0  0  0  0  0  0
    9.2266    6.9033   19.3579 O   0  0  0  0  0  0  0  0  0  0  0  0
    9.9225    6.8028   20.5790 C   0  0  0  0  0  0  0  0  0  0  0  0
    8.9163    6.9244   21.7310 C   0  0  0  0  0  0  0  0  0  0  0  0
 37 38  1  0  0  0
 38 27  1  0  0  0
 27 28  2  0  0  0
 28 29  1  0  0  0
 29 30  2  0  0  0
 30 26  1  0  0  0
 26  1  1  0  0  0
  1  2  2  0  0  0
  2  3  1  0  0  0
  3  4  2  0  0  0
  4  8  1  0  0  0
  8  9  1  0  0  0
  9 10  2  0  0  0
  9 12  1  0  0  0
 12 13  1  0  0  0
 13 14  1  0  0  0
 12 15  1  0  0  0
 15 16  2  0  0  0
 15 17  1  0  0  0
 17 19  1  0  0  0
 19 20  2  0  0  0
 20 21  1  0  0  0
 21 22  1  0  0  0
 22 23  1  0  0  0
 22 24  1  0  0  0
 24 25  2  0  0  0
  4  5  1  0  0  0
  5  6  2  0  0  0
  6  7  1  0  0  0
 30 31  1  0  0  0
 31 32  2  0  0  0
 32 33  1  0  0  0
 33 34  2  0  0  0
 34 35  1  0  0  0
 35 36  2  0  0  0
 36 39  1  0  0  0
 39 40  1  0  0  0
 40 41  1  0  0  0
 41 42  1  0  0  0
 42 43  1  0  0  0
 43 44  1  0  0  0
 44 45  1  0  0  0
 45 46  1  0  0  0
 46 47  1  0  0  0
 47 48  1  0  0  0
 36 27  1  0  0  0
 48 43  1  0  0  0
 34 29  1  0  0  0
  6  1  1  0  0  0
 14 12  1  0  0  0
 25 19  1  0  0  0
  8 11  1  0  0  0
 17 18  1  0  0  0
M  END
> <minimizedAffinity>
-8.17640

> <CNNscore>
0.1456361264

> <CNNaffinity>
6.4738869667

> <CNN_VS>
0.9428318143

> <CNNaffinity_variance>
0.1585608274

$$$$
[H]C1=C([H])C([H])(F)C([H])([H])C([H])=C1N([H])C(=O)C1(C(=O)N([H])c2c([H])c([H])c(Oc3c([H])c([H])nc4c([H])c(OC([H])([H])C([H])([H])C([H])([H])N5C([H])([H])C([H])([H])OC([H])([H])C5([H])[H])c(OC([H])([H])[H])c([H])c34)c(F)c2[H])C([H])([H])C1([H])[H]


 48 53  0  0  0  0  0  0  0  0999 V2000
    3.9555    2.8386   15.9496 C   0  0  0  0  0  0  0  0  0  0  0  0
    3.7795    4.0920   15.3801 C   0  0  0  0  0  0  0  0  0  0  0  0
    2.8326    4.3915   14.4464 C   0  0  0  0  0  0  0  0  0  0  0  0
    1.9641    3.3831   14.0135 C   0  0  0  0  0  0  0  0  0  0  0  0
    2.1025    2.1321   14.5506 C   0  0  0  0  0  0  0  0  0  0  0  0
    3.0878    1.8530   15.5118 C   0  0  0  0  0  0  0  0  0  0  0  0
    3.1441    0.5979   16.0148 F   0  0  0  0  0  0  0  0  0  0  0  0
    0.9408    3.7232   13.0592 N   0  0  0  0  0  0  0  0  0  0  0  0
    1.0972    3.5576   11.7020 C   0  0  0  0  0  0  0  0  0  0  0  0
    2.2493    3.1037   11.3142 O   0  0  0  0  0  0  0  0  0  0  0  0
    0.0924    4.1254   13.4860 H   0  0  0  0  0  0  0  0  0  0  0  0
    0.1696    3.8122   10.5734 C   0  0  0  0  0  0  0  0  0  0  0  0
    0.5457    3.1117    9.2787 C   0  0  0  0  0  0  0  0  0  0  0  0
    0.8808    4.5304    9.3592 C   0  0  0  0  0  0  0  0  0  0  0  0
   -1.2294    4.2122   10.7278 C   0  0  0  0  0  0  0  0  0  0  0  0
   -1.4474    4.9375   11.8024 O   0  0  0  0  0  0  0  0  0  0  0  0
   -2.3758    3.9913    9.9742 N   0  0  0  0  0  0  0  0  0  0  0  0
   -2.3968    3.4670    9.0843 H   0  0  0  0  0  0  0  0  0  0  0  0
   -3.6658    4.5372   10.3971 C   0  0  0  0  0  0  0  0  0  0  0  0
   -4.0137    5.7062    9.9089 C   0  0  0  0  0  0  0  0  0  0  0  0
   -5.2522    6.4225   10.1990 C   0  0  0  0  0  0  0  0  0  0  0  0
   -6.1538    5.7641   11.1688 C   0  0  0  0  0  0  0  0  0  0  0  0
   -7.4199    5.5411   10.5693 F   0  0  0  0  0  0  0  0  0  0  0  0
   -5.6746    4.4676   11.6514 C   0  0  0  0  0  0  0  0  0  0  0  0
   -4.5421    3.8843   11.3151 C   0  0  0  0  0  0  0  0  0  0  0  0
    4.9311    2.6013   16.8927 O   0  0  0  0  0  0  0  0  0  0  0  0
    5.9086    6.0929   18.7960 C   0  0  0  0  0  0  0  0  0  0  0  0
    5.5891    4.9332   18.1450 C   0  0  0  0  0  0  0  0  0  0  0  0
    5.0200    3.9026   18.8617 C   0  0  0  0  0  0  0  0  0  0  0  0
    4.6760    2.6861   18.2336 C   0  0  0  0  0  0  0  0  0  0  0  0
    4.1137    1.6686   18.9680 C   0  0  0  0  0  0  0  0  0  0  0  0
    3.8753    1.8147   20.3168 C   0  0  0  0  0  0  0  0  0  0  0  0
    4.2025    2.9730   20.9111 N   0  0  0  0  0  0  0  0  0  0  0  0
    4.7614    3.9947   20.2048 C   0  0  0  0  0  0  0  0  0  0  0  0
    5.0874    5.1725   20.8598 C   0  0  0  0  0  0  0  0  0  0  0  0
    5.6548    6.2181   20.1719 C   0  0  0  0  0  0  0  0  0  0  0  0
    6.0009    7.6124   16.9234 C   0  0  0  0  0  0  0  0  0  0  0  0
    6.4824    7.1870   18.1777 O   0  0  0  0  0  0  0  0  0  0  0  0
    5.9701    7.3776   20.8016 O   0  0  0  0  0  0  0  0  0  0  0  0
    5.0637    8.2720   21.3366 C   0  0  0  0  0  0  0  0  0  0  0  0
    5.0007    9.5753   20.5525 C   0  0  0  0  0  0  0  0  0  0  0  0
    3.9236    9.4317   19.4688 C   0  0  0  0  0  0  0  0  0  0  0  0
    3.8851   10.6594   18.7142 N   0  0  0  0  0  0  0  0  0  0  0  0
    2.4814   11.0044   18.3893 C   0  0  0  0  0  0  0  0  0  0  0  0
    2.5774   12.3755   17.7139 C   0  0  0  0  0  0  0  0  0  0  0  0
    3.8726   12.6604   17.2814 O   0  0  0  0  0  0  0  0  0  0  0  0
    4.7617   12.8279   18.3615 C   0  0  0  0  0  0  0  0  0  0  0  0
    4.4104   11.8070   19.4518 C   0  0  0  0  0  0  0  0  0  0  0  0
 37 38  1  0  0  0
 38 27  1  0  0  0
 27 28  2  0  0  0
 28 29  1  0  0  0
 29 30  2  0  0  0
 30 26  1  0  0  0
 26  1  1  0  0  0
  1  2  2  0  0  0
  2  3  1  0  0  0
  3  4  2  0  0  0
  4  8  1  0  0  0
  8  9  1  0  0  0
  9 10  2  0  0  0
  9 12  1  0  0  0
 12 13  1  0  0  0
 13 14  1  0  0  0
 12 15  1  0  0  0
 15 16  2  0  0  0
 15 17  1  0  0  0
 17 19  1  0  0  0
 19 20  2  0  0  0
 20 21  1  0  0  0
 21 22  1  0  0  0
 22 23  1  0  0  0
 22 24  1  0  0  0
 24 25  2  0  0  0
  4  5  1  0  0  0
  5  6  2  0  0  0
  6  7  1  0  0  0
 30 31  1  0  0  0
 31 32  2  0  0  0
 32 33  1  0  0  0
 33 34  2  0  0  0
 34 35  1  0  0  0
 35 36  2  0  0  0
 36 39  1  0  0  0
 39 40  1  0  0  0
 40 41  1  0  0  0
 41 42  1  0  0  0
 42 43  1  0  0  0
 43 44  1  0  0  0
 44 45  1  0  0  0
 45 46  1  0  0  0
 46 47  1  0  0  0
 47 48  1  0  0  0
 36 27  1  0  0  0
 48 43  1  0  0  0
 34 29  1  0  0  0
  6  1  1  0  0  0
 14 12  1  0  0  0
 25 19  1  0  0  0
  8 11  1  0  0  0
 17 18  1  0  0  0
M  END
> <minimizedAffinity>
-9.19172

> <CNNscore>
0.1393375993

> <CNNaffinity>
6.4969038963

> <CNN_VS>
0.9052630067

> <CNNaffinity_variance>
0.3726086020

$$$$
[H]C1=C([H])C([H])(F)C([H])([H])C([H])=C1N([H])C(=O)C1(C(=O)N([H])c2c([H])c([H])c(Oc3c([H])c([H])nc4c([H])c(OC([H])([H])C([H])([H])C([H])([H])N5C([H])([H])C([H])([H])OC([H])([H])C5([H])[H])c(OC([H])([H])[H])c([H])c34)c(F)c2[H])C([H])([H])C1([H])[H]


 48 53  0  0  0  0  0  0  0  0999 V2000
    3.0486    2.4969   14.8551 C   0  0  0  0  0  0  0  0  0  0  0  0
    2.7155    1.8863   16.0562 C   0  0  0  0  0  0  0  0  0  0  0  0
    3.2295    2.2346   17.2697 C   0  0  0  0  0  0  0  0  0  0  0  0
    4.1605    3.2772   17.3380 C   0  0  0  0  0  0  0  0  0  0  0  0
    4.5161    3.9074   16.1766 C   0  0  0  0  0  0  0  0  0  0  0  0
    3.9694    3.5268   14.9402 C   0  0  0  0  0  0  0  0  0  0  0  0
    4.3514    4.2160   13.8399 F   0  0  0  0  0  0  0  0  0  0  0  0
    4.6628    3.6636   18.6311 N   0  0  0  0  0  0  0  0  0  0  0  0
    4.2230    4.7816   19.3023 C   0  0  0  0  0  0  0  0  0  0  0  0
    3.3408    5.5049   18.6840 O   0  0  0  0  0  0  0  0  0  0  0  0
    5.3996    3.0394   18.9936 H   0  0  0  0  0  0  0  0  0  0  0  0
    4.5836    5.3270   20.6332 C   0  0  0  0  0  0  0  0  0  0  0  0
    4.9239    4.2740   21.6744 C   0  0  0  0  0  0  0  0  0  0  0  0
    3.5886    4.8570   21.7668 C   0  0  0  0  0  0  0  0  0  0  0  0
    5.1048    6.6753   20.8601 C   0  0  0  0  0  0  0  0  0  0  0  0
    6.3674    6.8090   20.5192 O   0  0  0  0  0  0  0  0  0  0  0  0
    4.5441    7.8464   21.3552 N   0  0  0  0  0  0  0  0  0  0  0  0
    3.5582    7.9423   21.6489 H   0  0  0  0  0  0  0  0  0  0  0  0
    5.3401    9.0693   21.4639 C   0  0  0  0  0  0  0  0  0  0  0  0
    5.2094    9.9594   20.5067 C   0  0  0  0  0  0  0  0  0  0  0  0
    5.9063   11.2396   20.4252 C   0  0  0  0  0  0  0  0  0  0  0  0
    6.8725   11.5066   21.5125 C   0  0  0  0  0  0  0  0  0  0  0  0
    6.5190   12.7058   22.1824 F   0  0  0  0  0  0  0  0  0  0  0  0
    6.9417   10.4538   22.5276 C   0  0  0  0  0  0  0  0  0  0  0  0
    6.2530    9.3307   22.5295 C   0  0  0  0  0  0  0  0  0  0  0  0
    2.4899    2.0994   13.6604 O   0  0  0  0  0  0  0  0  0  0  0  0
    3.7232    2.6276    9.7914 C   0  0  0  0  0  0  0  0  0  0  0  0
    3.3254    2.4404   11.0866 C   0  0  0  0  0  0  0  0  0  0  0  0
    2.2175    3.1185   11.5472 C   0  0  0  0  0  0  0  0  0  0  0  0
    1.7711    2.9595   12.8769 C   0  0  0  0  0  0  0  0  0  0  0  0
    0.6663    3.6492   13.3179 C   0  0  0  0  0  0  0  0  0  0  0  0
   -0.0213    4.4989   12.4796 C   0  0  0  0  0  0  0  0  0  0  0  0
    0.4049    4.6472   11.2155 N   0  0  0  0  0  0  0  0  0  0  0  0
    1.4971    3.9756   10.7561 C   0  0  0  0  0  0  0  0  0  0  0  0
    1.9049    4.1617    9.4440 C   0  0  0  0  0  0  0  0  0  0  0  0
    3.0049    3.4987    8.9556 C   0  0  0  0  0  0  0  0  0  0  0  0
    4.8043    0.6038    9.0430 C   0  0  0  0  0  0  0  0  0  0  0  0
    4.8173    2.0011    9.2264 O   0  0  0  0  0  0  0  0  0  0  0  0
    3.4075    3.6676    7.6712 O   0  0  0  0  0  0  0  0  0  0  0  0
    4.1795    4.7130    7.2034 C   0  0  0  0  0  0  0  0  0  0  0  0
    3.5569    5.4013    5.9968 C   0  0  0  0  0  0  0  0  0  0  0  0
    2.3711    6.2446    6.4843 C   0  0  0  0  0  0  0  0  0  0  0  0
    2.8770    7.5327    6.8877 N   0  0  0  0  0  0  0  0  0  0  0  0
    3.8209    8.0430    5.8661 C   0  0  0  0  0  0  0  0  0  0  0  0
    4.1728    9.4529    6.3496 C   0  0  0  0  0  0  0  0  0  0  0  0
    3.8492    9.6455    7.6927 O   0  0  0  0  0  0  0  0  0  0  0  0
    2.4564    9.6264    7.9050 C   0  0  0  0  0  0  0  0  0  0  0  0
    1.8352    8.5517    7.0031 C   0  0  0  0  0  0  0  0  0  0  0  0
 37 38  1  0  0  0
 38 27  1  0  0  0
 27 28  2  0  0  0
 28 29  1  0  0  0
 29 30  2  0  0  0
 30 26  1  0  0  0
 26  1  1  0  0  0
  1  2  2  0  0  0
  2  3  1  0  0  0
  3  4  2  0  0  0
  4  8  1  0  0  0
  8  9  1  0  0  0
  9 10  2  0  0  0
  9 12  1  0  0  0
 12 13  1  0  0  0
 13 14  1  0  0  0
 12 15  1  0  0  0
 15 16  2  0  0  0
 15 17  1  0  0  0
 17 19  1  0  0  0
 19 20  2  0  0  0
 20 21  1  0  0  0
 21 22  1  0  0  0
 22 23  1  0  0  0
 22 24  1  0  0  0
 24 25  2  0  0  0
  4  5  1  0  0  0
  5  6  2  0  0  0
  6  7  1  0  0  0
 30 31  1  0  0  0
 31 32  2  0  0  0
 32 33  1  0  0  0
 33 34  2  0  0  0
 34 35  1  0  0  0
 35 36  2  0  0  0
 36 39  1  0  0  0
 39 40  1  0  0  0
 40 41  1  0  0  0
 41 42  1  0  0  0
 42 43  1  0  0  0
 43 44  1  0  0  0
 44 45  1  0  0  0
 45 46  1  0  0  0
 46 47  1  0  0  0
 47 48  1  0  0  0
 36 27  1  0  0  0
 48 43  1  0  0  0
 34 29  1  0  0  0
  6  1  1  0  0  0
 14 12  1  0  0  0
 25 19  1  0  0  0
  8 11  1  0  0  0
 17 18  1  0  0  0
M  END
> <minimizedAffinity>
-7.55496

> <CNNscore>
0.1243644133

> <CNNaffinity>
6.4305968285

> <CNN_VS>
0.7997373939

> <CNNaffinity_variance>
0.2181826383

$$$$
[H]C1=C([H])C([H])(F)C([H])([H])C([H])=C1N([H])C(=O)C1(C(=O)N([H])c2c([H])c([H])c(Oc3c([H])c([H])nc4c([H])c(OC([H])([H])C([H])([H])C([H])([H])N5C([H])([H])C([H])([H])OC([H])([H])C5([H])[H])c(OC([H])([H])[H])c([H])c34)c(F)c2[H])C([H])([H])C1([H])[H]


 48 53  0  0  0  0  0  0  0  0999 V2000
    3.9984    2.1809   16.6824 C   0  0  0  0  0  0  0  0  0  0  0  0
    4.3400    3.3600   16.0349 C   0  0  0  0  0  0  0  0  0  0  0  0
    3.6231    3.9212   15.0203 C   0  0  0  0  0  0  0  0  0  0  0  0
    2.4569    3.2843   14.5808 C   0  0  0  0  0  0  0  0  0  0  0  0
    2.0831    2.1191   15.1933 C   0  0  0  0  0  0  0  0  0  0  0  0
    2.8419    1.5645   16.2369 C   0  0  0  0  0  0  0  0  0  0  0  0
    2.3923    0.4238   16.8096 F   0  0  0  0  0  0  0  0  0  0  0  0
    1.6859    3.9101   13.5380 N   0  0  0  0  0  0  0  0  0  0  0  0
    1.0056    5.0929   13.7161 C   0  0  0  0  0  0  0  0  0  0  0  0
    1.0652    5.6089   14.9053 O   0  0  0  0  0  0  0  0  0  0  0  0
    1.6710    3.3762   12.6556 H   0  0  0  0  0  0  0  0  0  0  0  0
    0.1939    5.9041   12.7770 C   0  0  0  0  0  0  0  0  0  0  0  0
   -1.0559    6.5139   13.3893 C   0  0  0  0  0  0  0  0  0  0  0  0
   -1.2597    5.3187   12.5760 C   0  0  0  0  0  0  0  0  0  0  0  0
    0.7193    6.5429   11.5700 C   0  0  0  0  0  0  0  0  0  0  0  0
    0.5224    7.8424   11.5415 O   0  0  0  0  0  0  0  0  0  0  0  0
    1.3878    6.0656   10.4492 N   0  0  0  0  0  0  0  0  0  0  0  0
    1.6545    5.0778   10.3059 H   0  0  0  0  0  0  0  0  0  0  0  0
    1.7979    6.9750    9.3788 C   0  0  0  0  0  0  0  0  0  0  0  0
    0.9775    7.1170    8.3627 C   0  0  0  0  0  0  0  0  0  0  0  0
    1.1937    7.9714    7.1989 C   0  0  0  0  0  0  0  0  0  0  0  0
    2.4837    8.6942    7.1731 C   0  0  0  0  0  0  0  0  0  0  0  0
    2.2477   10.0906    7.0940 F   0  0  0  0  0  0  0  0  0  0  0  0
    3.3233    8.4683    8.3511 C   0  0  0  0  0  0  0  0  0  0  0  0
    3.0342    7.6881    9.3726 C   0  0  0  0  0  0  0  0  0  0  0  0
    4.7651    1.6671   17.7051 O   0  0  0  0  0  0  0  0  0  0  0  0
    5.6537    5.2861   19.4028 C   0  0  0  0  0  0  0  0  0  0  0  0
    5.3648    4.0827   18.8204 C   0  0  0  0  0  0  0  0  0  0  0  0
    4.7486    3.1085   19.5760 C   0  0  0  0  0  0  0  0  0  0  0  0
    4.4335    1.8502   19.0192 C   0  0  0  0  0  0  0  0  0  0  0  0
    3.8231    0.8903   19.7918 C   0  0  0  0  0  0  0  0  0  0  0  0
    3.5082    1.1351   21.1103 C   0  0  0  0  0  0  0  0  0  0  0  0
    3.8080    2.3329   21.6367 N   0  0  0  0  0  0  0  0  0  0  0  0
    4.4134    3.2990   20.8916 C   0  0  0  0  0  0  0  0  0  0  0  0
    4.7088    4.5208   21.4769 C   0  0  0  0  0  0  0  0  0  0  0  0
    5.3218    5.5120   20.7489 C   0  0  0  0  0  0  0  0  0  0  0  0
    5.7491    6.7818   17.5112 C   0  0  0  0  0  0  0  0  0  0  0  0
    6.2694    6.3309   18.7408 O   0  0  0  0  0  0  0  0  0  0  0  0
    5.6077    6.7137   21.3097 O   0  0  0  0  0  0  0  0  0  0  0  0
    4.9464    7.8980   21.0494 C   0  0  0  0  0  0  0  0  0  0  0  0
    5.4663    9.0523   21.8949 C   0  0  0  0  0  0  0  0  0  0  0  0
    6.9849    9.1471   21.6958 C   0  0  0  0  0  0  0  0  0  0  0  0
    7.6217    8.6992   22.9091 N   0  0  0  0  0  0  0  0  0  0  0  0
    8.9966    8.2344   22.6117 C   0  0  0  0  0  0  0  0  0  0  0  0
    9.5925    7.9177   23.9864 C   0  0  0  0  0  0  0  0  0  0  0  0
    8.6108    7.7830   24.9680 O   0  0  0  0  0  0  0  0  0  0  0  0
    7.9595    9.0046   25.2303 C   0  0  0  0  0  0  0  0  0  0  0  0
    7.7724    9.7574   23.9064 C   0  0  0  0  0  0  0  0  0  0  0  0
 37 38  1  0  0  0
 38 27  1  0  0  0
 27 28  2  0  0  0
 28 29  1  0  0  0
 29 30  2  0  0  0
 30 26  1  0  0  0
 26  1  1  0  0  0
  1  2  2  0  0  0
  2  3  1  0  0  0
  3  4  2  0  0  0
  4  8  1  0  0  0
  8  9  1  0  0  0
  9 10  2  0  0  0
  9 12  1  0  0  0
 12 13  1  0  0  0
 13 14  1  0  0  0
 12 15  1  0  0  0
 15 16  2  0  0  0
 15 17  1  0  0  0
 17 19  1  0  0  0
 19 20  2  0  0  0
 20 21  1  0  0  0
 21 22  1  0  0  0
 22 23  1  0  0  0
 22 24  1  0  0  0
 24 25  2  0  0  0
  4  5  1  0  0  0
  5  6  2  0  0  0
  6  7  1  0  0  0
 30 31  1  0  0  0
 31 32  2  0  0  0
 32 33  1  0  0  0
 33 34  2  0  0  0
 34 35  1  0  0  0
 35 36  2  0  0  0
 36 39  1  0  0  0
 39 40  1  0  0  0
 40 41  1  0  0  0
 41 42  1  0  0  0
 42 43  1  0  0  0
 43 44  1  0  0  0
 44 45  1  0  0  0
 45 46  1  0  0  0
 46 47  1  0  0  0
 47 48  1  0  0  0
 36 27  1  0  0  0
 48 43  1  0  0  0
 34 29  1  0  0  0
  6  1  1  0  0  0
 14 12  1  0  0  0
 25 19  1  0  0  0
  8 11  1  0  0  0
 17 18  1  0  0  0
M  END
> <minimizedAffinity>
-8.86790

> <CNNscore>
0.1188711599

> <CNNaffinity>
6.3549556732

> <CNN_VS>
0.7554209232

> <CNNaffinity_variance>
0.4886535704

$$$$
[H]C1=C([H])C([H])(F)C([H])([H])C([H])=C1N([H])C(=O)C1(C(=O)N([H])c2c([H])c([H])c(Oc3c([H])c([H])nc4c([H])c(OC([H])([H])C([H])([H])C([H])([H])N5C([H])([H])C([H])([H])OC([H])([H])C5([H])[H])c(OC([H])([H])[H])c([H])c34)c(F)c2[H])C([H])([H])C1([H])[H]


 48 53  0  0  0  0  0  0  0  0999 V2000
    4.0973    2.4816   16.9291 C   0  0  0  0  0  0  0  0  0  0  0  0
    4.3867    3.6702   16.2737 C   0  0  0  0  0  0  0  0  0  0  0  0
    3.6087    4.2277   15.3030 C   0  0  0  0  0  0  0  0  0  0  0  0
    2.4303    3.5766   14.9211 C   0  0  0  0  0  0  0  0  0  0  0  0
    2.1066    2.4016   15.5434 C   0  0  0  0  0  0  0  0  0  0  0  0
    2.9279    1.8511   16.5408 C   0  0  0  0  0  0  0  0  0  0  0  0
    2.5260    0.6997   17.1276 F   0  0  0  0  0  0  0  0  0  0  0  0
    1.5958    4.1981   13.9256 N   0  0  0  0  0  0  0  0  0  0  0  0
    1.5585    3.7832   12.6141 C   0  0  0  0  0  0  0  0  0  0  0  0
    2.3553    2.8069   12.3043 O   0  0  0  0  0  0  0  0  0  0  0  0
    1.0501    4.9976   14.2818 H   0  0  0  0  0  0  0  0  0  0  0  0
    0.7582    4.2608   11.4606 C   0  0  0  0  0  0  0  0  0  0  0  0
    1.4258    4.0709   10.1090 C   0  0  0  0  0  0  0  0  0  0  0  0
    1.4796    5.4197   10.6652 C   0  0  0  0  0  0  0  0  0  0  0  0
   -0.6985    4.3990   11.4662 C   0  0  0  0  0  0  0  0  0  0  0  0
   -1.2194    4.3654   12.6728 O   0  0  0  0  0  0  0  0  0  0  0  0
   -1.6471    4.5639   10.4644 N   0  0  0  0  0  0  0  0  0  0  0  0
   -1.4257    4.6396    9.4581 H   0  0  0  0  0  0  0  0  0  0  0  0
   -3.0689    4.6766   10.7914 C   0  0  0  0  0  0  0  0  0  0  0  0
   -3.8711    3.7517   10.3152 C   0  0  0  0  0  0  0  0  0  0  0  0
   -5.3141    3.6780   10.5237 C   0  0  0  0  0  0  0  0  0  0  0  0
   -5.8991    4.7854   11.3101 C   0  0  0  0  0  0  0  0  0  0  0  0
   -6.5631    4.2637   12.4498 F   0  0  0  0  0  0  0  0  0  0  0  0
   -4.9211    5.7615   11.7942 C   0  0  0  0  0  0  0  0  0  0  0  0
   -3.6228    5.7356   11.5717 C   0  0  0  0  0  0  0  0  0  0  0  0
    4.9247    1.9721   17.9056 O   0  0  0  0  0  0  0  0  0  0  0  0
    5.6480    5.4904   19.8721 C   0  0  0  0  0  0  0  0  0  0  0  0
    5.4139    4.3222   19.2004 C   0  0  0  0  0  0  0  0  0  0  0  0
    4.8580    3.2617   19.8831 C   0  0  0  0  0  0  0  0  0  0  0  0
    4.6009    2.0355   19.2327 C   0  0  0  0  0  0  0  0  0  0  0  0
    4.0503    0.9883   19.9335 C   0  0  0  0  0  0  0  0  0  0  0  0
    3.7399    1.1137   21.2697 C   0  0  0  0  0  0  0  0  0  0  0  0
    3.9846    2.2812   21.8851 N   0  0  0  0  0  0  0  0  0  0  0  0
    4.5302    3.3322   21.2124 C   0  0  0  0  0  0  0  0  0  0  0  0
    4.7699    4.5189   21.8885 C   0  0  0  0  0  0  0  0  0  0  0  0
    5.3220    5.5940   21.2345 C   0  0  0  0  0  0  0  0  0  0  0  0
    7.5307    6.5764   18.8231 C   0  0  0  0  0  0  0  0  0  0  0  0
    6.2009    6.6139   19.2882 O   0  0  0  0  0  0  0  0  0  0  0  0
    5.5530    6.7620   21.8847 O   0  0  0  0  0  0  0  0  0  0  0  0
    6.6214    7.0158   22.7226 C   0  0  0  0  0  0  0  0  0  0  0  0
    7.3401    8.3113   22.3723 C   0  0  0  0  0  0  0  0  0  0  0  0
    8.1535    8.7547   23.5957 C   0  0  0  0  0  0  0  0  0  0  0  0
    8.9979    7.6553   23.9910 N   0  0  0  0  0  0  0  0  0  0  0  0
   10.1920    7.6003   23.1157 C   0  0  0  0  0  0  0  0  0  0  0  0
   11.0523    6.4878   23.7220 C   0  0  0  0  0  0  0  0  0  0  0  0
   10.3230    5.6676   24.5829 O   0  0  0  0  0  0  0  0  0  0  0  0
    9.9139    6.3557   25.7424 C   0  0  0  0  0  0  0  0  0  0  0  0
    9.5150    7.7850   25.3522 C   0  0  0  0  0  0  0  0  0  0  0  0
 37 38  1  0  0  0
 38 27  1  0  0  0
 27 28  2  0  0  0
 28 29  1  0  0  0
 29 30  2  0  0  0
 30 26  1  0  0  0
 26  1  1  0  0  0
  1  2  2  0  0  0
  2  3  1  0  0  0
  3  4  2  0  0  0
  4  8  1  0  0  0
  8  9  1  0  0  0
  9 10  2  0  0  0
  9 12  1  0  0  0
 12 13  1  0  0  0
 13 14  1  0  0  0
 12 15  1  0  0  0
 15 16  2  0  0  0
 15 17  1  0  0  0
 17 19  1  0  0  0
 19 20  2  0  0  0
 20 21  1  0  0  0
 21 22  1  0  0  0
 22 23  1  0  0  0
 22 24  1  0  0  0
 24 25  2  0  0  0
  4  5  1  0  0  0
  5  6  2  0  0  0
  6  7  1  0  0  0
 30 31  1  0  0  0
 31 32  2  0  0  0
 32 33  1  0  0  0
 33 34  2  0  0  0
 34 35  1  0  0  0
 35 36  2  0  0  0
 36 39  1  0  0  0
 39 40  1  0  0  0
 40 41  1  0  0  0
 41 42  1  0  0  0
 42 43  1  0  0  0
 43 44  1  0  0  0
 44 45  1  0  0  0
 45 46  1  0  0  0
 46 47  1  0  0  0
 47 48  1  0  0  0
 36 27  1  0  0  0
 48 43  1  0  0  0
 34 29  1  0  0  0
  6  1  1  0  0  0
 14 12  1  0  0  0
 25 19  1  0  0  0
  8 11  1  0  0  0
 17 18  1  0  0  0
M  END
> <minimizedAffinity>
-8.90790

> <CNNscore>
0.1155540943

> <CNNaffinity>
6.6065053940

> <CNN_VS>
0.7634087205

> <CNNaffinity_variance>
0.2397728264

$$$$
[H]C1=C([H])C([H])(F)C([H])([H])C([H])=C1N([H])C(=O)C1(C(=O)N([H])c2c([H])c([H])c(Oc3c([H])c([H])nc4c([H])c(OC([H])([H])C([H])([H])C([H])([H])N5C([H])([H])C([H])([H])OC([H])([H])C5([H])[H])c(OC([H])([H])[H])c([H])c34)c(F)c2[H])C([H])([H])C1([H])[H]


 48 53  0  0  0  0  0  0  0  0999 V2000
    4.6166    2.1526   18.1943 C   0  0  0  0  0  0  0  0  0  0  0  0
    5.1252    3.1373   17.3587 C   0  0  0  0  0  0  0  0  0  0  0  0
    4.6311    3.4348   16.1236 C   0  0  0  0  0  0  0  0  0  0  0  0
    3.5349    2.7118   15.6394 C   0  0  0  0  0  0  0  0  0  0  0  0
    3.0018    1.7321   16.4321 C   0  0  0  0  0  0  0  0  0  0  0  0
    3.5321    1.4479   17.7012 C   0  0  0  0  0  0  0  0  0  0  0  0
    2.9328    0.4824   18.4361 F   0  0  0  0  0  0  0  0  0  0  0  0
    2.9959    3.0652   14.3517 N   0  0  0  0  0  0  0  0  0  0  0  0
    2.3096    4.2357   14.1224 C   0  0  0  0  0  0  0  0  0  0  0  0
    2.1378    5.0047   15.1534 O   0  0  0  0  0  0  0  0  0  0  0  0
    3.1501    2.3484   13.6263 H   0  0  0  0  0  0  0  0  0  0  0  0
    1.7124    4.7916   12.8841 C   0  0  0  0  0  0  0  0  0  0  0  0
    2.5442    4.5747   11.6313 C   0  0  0  0  0  0  0  0  0  0  0  0
    2.6183    5.9061   12.2258 C   0  0  0  0  0  0  0  0  0  0  0  0
    0.2827    5.0391   12.6952 C   0  0  0  0  0  0  0  0  0  0  0  0
   -0.4693    4.0062   13.0052 O   0  0  0  0  0  0  0  0  0  0  0  0
   -0.4484    6.1385   12.2620 N   0  0  0  0  0  0  0  0  0  0  0  0
   -0.0341    7.0480   12.0002 H   0  0  0  0  0  0  0  0  0  0  0  0
   -1.9081    6.0806   12.1784 C   0  0  0  0  0  0  0  0  0  0  0  0
   -2.5895    6.7141   13.1059 C   0  0  0  0  0  0  0  0  0  0  0  0
   -4.0443    6.7830   13.2045 C   0  0  0  0  0  0  0  0  0  0  0  0
   -4.7869    6.0226   12.1762 C   0  0  0  0  0  0  0  0  0  0  0  0
   -5.6424    6.8979   11.4592 F   0  0  0  0  0  0  0  0  0  0  0  0
   -3.9353    5.3542   11.1906 C   0  0  0  0  0  0  0  0  0  0  0  0
   -2.6180    5.3644   11.1684 C   0  0  0  0  0  0  0  0  0  0  0  0
    5.1604    1.9028   19.4351 O   0  0  0  0  0  0  0  0  0  0  0  0
    5.9973    5.8219   20.2774 C   0  0  0  0  0  0  0  0  0  0  0  0
    5.7285    4.5138   19.9816 C   0  0  0  0  0  0  0  0  0  0  0  0
    4.9310    3.7877   20.8397 C   0  0  0  0  0  0  0  0  0  0  0  0
    4.6284    2.4340   20.5775 C   0  0  0  0  0  0  0  0  0  0  0  0
    3.8348    1.7261   21.4492 C   0  0  0  0  0  0  0  0  0  0  0  0
    3.3226    2.3175   22.5829 C   0  0  0  0  0  0  0  0  0  0  0  0
    3.6112    3.6051   22.8290 N   0  0  0  0  0  0  0  0  0  0  0  0
    4.3957    4.3265   21.9810 C   0  0  0  0  0  0  0  0  0  0  0  0
    4.6716    5.6529   22.2761 C   0  0  0  0  0  0  0  0  0  0  0  0
    5.4625    6.4028   21.4392 C   0  0  0  0  0  0  0  0  0  0  0  0
    6.6129    6.6377   18.0912 C   0  0  0  0  0  0  0  0  0  0  0  0
    6.7835    6.6409   19.4900 O   0  0  0  0  0  0  0  0  0  0  0  0
    5.7320    7.7036   21.7146 O   0  0  0  0  0  0  0  0  0  0  0  0
    4.8290    8.7453   21.6291 C   0  0  0  0  0  0  0  0  0  0  0  0
    5.0097    9.5691   20.3618 C   0  0  0  0  0  0  0  0  0  0  0  0
    3.9518    9.1222   19.3440 C   0  0  0  0  0  0  0  0  0  0  0  0
    3.8441   10.1464   18.3353 N   0  0  0  0  0  0  0  0  0  0  0  0
    3.8728    9.5290   16.9888 C   0  0  0  0  0  0  0  0  0  0  0  0
    3.6201   10.6986   16.0329 C   0  0  0  0  0  0  0  0  0  0  0  0
    3.8341   11.9341   16.6439 O   0  0  0  0  0  0  0  0  0  0  0  0
    2.8814   12.1950   17.6486 C   0  0  0  0  0  0  0  0  0  0  0  0
    2.5869   10.8896   18.3993 C   0  0  0  0  0  0  0  0  0  0  0  0
 37 38  1  0  0  0
 38 27  1  0  0  0
 27 28  2  0  0  0
 28 29  1  0  0  0
 29 30  2  0  0  0
 30 26  1  0  0  0
 26  1  1  0  0  0
  1  2  2  0  0  0
  2  3  1  0  0  0
  3  4  2  0  0  0
  4  8  1  0  0  0
  8  9  1  0  0  0
  9 10  2  0  0  0
  9 12  1  0  0  0
 12 13  1  0  0  0
 13 14  1  0  0  0
 12 15  1  0  0  0
 15 16  2  0  0  0
 15 17  1  0  0  0
 17 19  1  0  0  0
 19 20  2  0  0  0
 20 21  1  0  0  0
 21 22  1  0  0  0
 22 23  1  0  0  0
 22 24  1  0  0  0
 24 25  2  0  0  0
  4  5  1  0  0  0
  5  6  2  0  0  0
  6  7  1  0  0  0
 30 31  1  0  0  0
 31 32  2  0  0  0
 32 33  1  0  0  0
 33 34  2  0  0  0
 34 35  1  0  0  0
 35 36  2  0  0  0
 36 39  1  0  0  0
 39 40  1  0  0  0
 40 41  1  0  0  0
 41 42  1  0  0  0
 42 43  1  0  0  0
 43 44  1  0  0  0
 44 45  1  0  0  0
 45 46  1  0  0  0
 46 47  1  0  0  0
 47 48  1  0  0  0
 36 27  1  0  0  0
 48 43  1  0  0  0
 34 29  1  0  0  0
  6  1  1  0  0  0
 14 12  1  0  0  0
 25 19  1  0  0  0
  8 11  1  0  0  0
 17 18  1  0  0  0
M  END
> <minimizedAffinity>
-9.52139

> <CNNscore>
0.1086607873

> <CNNaffinity>
6.6206293106

> <CNN_VS>
0.7194027901

> <CNNaffinity_variance>
0.4490078986

$$$$
[H]ON([H])C(=O)C([H])([H])N(C([H])([H])c1c([H])c([H])c([N+](=O)[O-])c([H])c1[H])S(=O)(=O)c1c([H])c([H])c([N+](=O)[O-])c([H])c1[H]


 30 31  0  0  0  0  0  0  0  0999 V2000
    4.3057    4.0418   18.1438 N   0  0  0  0  0  0  0  0  0  0  0  0
    4.2707    2.4109   18.4744 S   0  0  0  0  0  0  0  0  0  0  0  0
    5.3513    1.5962   17.8315 O   0  0  0  0  0  0  0  0  0  0  0  0
    2.9461    1.8225   18.0854 O   0  0  0  0  0  0  0  0  0  0  0  0
    4.4436    2.1442   20.2181 C   0  0  0  0  0  0  0  0  0  0  0  0
    3.5471    1.4288   20.9469 C   0  0  0  0  0  0  0  0  0  0  0  0
    3.7210    1.2439   22.3130 C   0  0  0  0  0  0  0  0  0  0  0  0
    4.8025    1.7762   22.9741 C   0  0  0  0  0  0  0  0  0  0  0  0
    5.7139    2.5001   22.2494 C   0  0  0  0  0  0  0  0  0  0  0  0
    5.5365    2.6836   20.8795 C   0  0  0  0  0  0  0  0  0  0  0  0
    5.0220    1.6145   24.3650 N   0  0  0  0  0  0  0  0  0  0  0  0
    4.1128    0.8583   25.0834 O   0  0  0  0  0  0  0  0  0  0  0  0
    6.0015    2.1343   24.9309 O   0  0  0  0  0  0  0  0  0  0  0  0
    3.2274    4.8434   18.5905 C   0  0  0  0  0  0  0  0  0  0  0  0
    3.6080    8.3181   19.8277 O   0  0  0  0  0  0  0  0  0  0  0  0
    3.2828    7.2892   19.0349 N   0  0  0  0  0  0  0  0  0  0  0  0
    3.5728    5.9764   19.4379 C   0  0  0  0  0  0  0  0  0  0  0  0
    4.1363    5.7999   20.5445 O   0  0  0  0  0  0  0  0  0  0  0  0
    2.8641    8.5146   20.4789 H   0  0  0  0  0  0  0  0  0  0  0  0
    2.8192    7.4766   18.1303 H   0  0  0  0  0  0  0  0  0  0  0  0
    4.9039    4.4869   16.9366 C   0  0  0  0  0  0  0  0  0  0  0  0
    3.9527    4.4530   15.7749 C   0  0  0  0  0  0  0  0  0  0  0  0
    3.2438    5.5857   15.4060 C   0  0  0  0  0  0  0  0  0  0  0  0
    2.3693    5.5450   14.3443 C   0  0  0  0  0  0  0  0  0  0  0  0
    2.1456    4.4090   13.5977 C   0  0  0  0  0  0  0  0  0  0  0  0
    2.8562    3.2726   13.9672 C   0  0  0  0  0  0  0  0  0  0  0  0
    3.7315    3.3157   15.0311 C   0  0  0  0  0  0  0  0  0  0  0  0
    1.2375    4.3954   12.5071 N   0  0  0  0  0  0  0  0  0  0  0  0
    1.5352    4.9564   11.2969 O   0  0  0  0  0  0  0  0  0  0  0  0
    0.1292    3.8570   12.6456 O   0  0  0  0  0  0  0  0  0  0  0  0
 15 16  1  0  0  0
 16 17  1  0  0  0
 17 18  2  0  0  0
 17 14  1  0  0  0
 14  1  1  0  0  0
  1 21  1  0  0  0
 21 22  1  0  0  0
 22 23  2  0  0  0
 23 24  1  0  0  0
 24 25  2  0  0  0
 25 26  1  0  0  0
 26 27  2  0  0  0
 25 28  1  0  0  0
 28 29  1  0  0  0
 28 30  2  0  0  0
  1  2  1  0  0  0
  2  3  2  0  0  0
  2  4  2  0  0  0
  2  5  1  0  0  0
  5  6  2  0  0  0
  6  7  1  0  0  0
  7  8  2  0  0  0
  8  9  1  0  0  0
  9 10  2  0  0  0
  8 11  1  0  0  0
 11 12  1  0  0  0
 11 13  2  0  0  0
 27 22  1  0  0  0
 10  5  1  0  0  0
 15 19  1  0  0  0
 16 20  1  0  0  0
M  CHG 1  11   1
M  CHG 1  12  -1
M  CHG 1  28   1
M  CHG 1  29  -1
M  END
> <minimizedAffinity>
-6.81964

> <CNNscore>
0.4764260352

> <CNNaffinity>
5.8099255562

> <CNN_VS>
2.7679998875

> <CNNaffinity_variance>
0.1760408580

$$$$
[H]ON([H])C(=O)C([H])([H])N(C([H])([H])c1c([H])c([H])c([N+](=O)[O-])c([H])c1[H])S(=O)(=O)c1c([H])c([H])c([N+](=O)[O-])c([H])c1[H]


 30 31  0  0  0  0  0  0  0  0999 V2000
    1.7102    4.3531   13.5484 N   0  0  0  0  0  0  0  0  0  0  0  0
    3.0212    3.3284   13.5134 S   0  0  0  0  0  0  0  0  0  0  0  0
    4.3142    3.9453   13.0749 O   0  0  0  0  0  0  0  0  0  0  0  0
    2.7431    2.1466   12.6313 O   0  0  0  0  0  0  0  0  0  0  0  0
    3.3255    2.6812   15.1352 C   0  0  0  0  0  0  0  0  0  0  0  0
    4.1780    3.2688   16.0153 C   0  0  0  0  0  0  0  0  0  0  0  0
    4.3877    2.7277   17.2779 C   0  0  0  0  0  0  0  0  0  0  0  0
    3.7424    1.5824   17.6805 C   0  0  0  0  0  0  0  0  0  0  0  0
    2.8798    0.9805   16.8011 C   0  0  0  0  0  0  0  0  0  0  0  0
    2.6718    1.5258   15.5357 C   0  0  0  0  0  0  0  0  0  0  0  0
    3.9241    0.9938   18.9569 N   0  0  0  0  0  0  0  0  0  0  0  0
    2.9782    0.0835   19.3941 O   0  0  0  0  0  0  0  0  0  0  0  0
    4.9032    1.2821   19.6697 O   0  0  0  0  0  0  0  0  0  0  0  0
    1.5616    5.2198   14.6582 C   0  0  0  0  0  0  0  0  0  0  0  0
    1.9591    8.8732   14.1646 O   0  0  0  0  0  0  0  0  0  0  0  0
    1.3821    7.6700   14.2750 N   0  0  0  0  0  0  0  0  0  0  0  0
    2.1694    6.5375   14.5345 C   0  0  0  0  0  0  0  0  0  0  0  0
    3.4089    6.6848   14.6577 O   0  0  0  0  0  0  0  0  0  0  0  0
    2.0319    9.3171   15.0666 H   0  0  0  0  0  0  0  0  0  0  0  0
    0.3571    7.5905   14.1668 H   0  0  0  0  0  0  0  0  0  0  0  0
    0.4858    3.9247   12.9734 C   0  0  0  0  0  0  0  0  0  0  0  0
    0.0974    4.7374   11.7716 C   0  0  0  0  0  0  0  0  0  0  0  0
   -1.2309    5.0471   11.5245 C   0  0  0  0  0  0  0  0  0  0  0  0
   -1.5793    5.7868   10.4177 C   0  0  0  0  0  0  0  0  0  0  0  0
   -0.6585    6.2562    9.5068 C   0  0  0  0  0  0  0  0  0  0  0  0
    0.6740    5.9459    9.7541 C   0  0  0  0  0  0  0  0  0  0  0  0
    1.0206    5.2046   10.8632 C   0  0  0  0  0  0  0  0  0  0  0  0
   -1.0460    7.0174    8.3734 N   0  0  0  0  0  0  0  0  0  0  0  0
   -2.3098    6.9704    7.8548 O   0  0  0  0  0  0  0  0  0  0  0  0
   -0.2155    7.7566    7.8246 O   0  0  0  0  0  0  0  0  0  0  0  0
 15 16  1  0  0  0
 16 17  1  0  0  0
 17 18  2  0  0  0
 17 14  1  0  0  0
 14  1  1  0  0  0
  1 21  1  0  0  0
 21 22  1  0  0  0
 22 23  2  0  0  0
 23 24  1  0  0  0
 24 25  2  0  0  0
 25 26  1  0  0  0
 26 27  2  0  0  0
 25 28  1  0  0  0
 28 29  1  0  0  0
 28 30  2  0  0  0
  1  2  1  0  0  0
  2  3  2  0  0  0
  2  4  2  0  0  0
  2  5  1  0  0  0
  5  6  2  0  0  0
  6  7  1  0  0  0
  7  8  2  0  0  0
  8  9  1  0  0  0
  9 10  2  0  0  0
  8 11  1  0  0  0
 11 12  1  0  0  0
 11 13  2  0  0  0
 27 22  1  0  0  0
 10  5  1  0  0  0
 15 19  1  0  0  0
 16 20  1  0  0  0
M  CHG 1  11   1
M  CHG 1  12  -1
M  CHG 1  28   1
M  CHG 1  29  -1
M  END
> <minimizedAffinity>
-6.38810

> <CNNscore>
0.3902531266

> <CNNaffinity>
5.2157998085

> <CNN_VS>
2.0354821682

> <CNNaffinity_variance>
0.0600877889

$$$$
[H]ON([H])C(=O)C([H])([H])N(C([H])([H])c1c([H])c([H])c([N+](=O)[O-])c([H])c1[H])S(=O)(=O)c1c([H])c([H])c([N+](=O)[O-])c([H])c1[H]


 30 31  0  0  0  0  0  0  0  0999 V2000
    5.5890    6.2671   18.9933 N   0  0  0  0  0  0  0  0  0  0  0  0
    6.0437    6.4965   20.5778 S   0  0  0  0  0  0  0  0  0  0  0  0
    5.4745    7.7107   21.2460 O   0  0  0  0  0  0  0  0  0  0  0  0
    7.5387    6.5554   20.6940 O   0  0  0  0  0  0  0  0  0  0  0  0
    5.5196    5.1188   21.5621 C   0  0  0  0  0  0  0  0  0  0  0  0
    4.2605    5.0056   22.0607 C   0  0  0  0  0  0  0  0  0  0  0  0
    3.8912    3.9079   22.8284 C   0  0  0  0  0  0  0  0  0  0  0  0
    4.7832    2.9004   23.1102 C   0  0  0  0  0  0  0  0  0  0  0  0
    6.0566    3.0035   22.6126 C   0  0  0  0  0  0  0  0  0  0  0  0
    6.4237    4.1056   21.8430 C   0  0  0  0  0  0  0  0  0  0  0  0
    4.4528    1.7626   23.8880 N   0  0  0  0  0  0  0  0  0  0  0  0
    3.5853    0.8322   23.3438 O   0  0  0  0  0  0  0  0  0  0  0  0
    4.9252    1.5980   25.0281 O   0  0  0  0  0  0  0  0  0  0  0  0
    4.2282    6.4528   18.6489 C   0  0  0  0  0  0  0  0  0  0  0  0
    2.7359    9.8362   18.9229 O   0  0  0  0  0  0  0  0  0  0  0  0
    3.0981    8.5870   19.2411 N   0  0  0  0  0  0  0  0  0  0  0  0
    3.8246    7.8136   18.3225 C   0  0  0  0  0  0  0  0  0  0  0  0
    4.1190    8.3200   17.2134 O   0  0  0  0  0  0  0  0  0  0  0  0
    3.4597   10.4913   19.1737 H   0  0  0  0  0  0  0  0  0  0  0  0
    2.8360    8.2060   20.1656 H   0  0  0  0  0  0  0  0  0  0  0  0
    6.2585    5.2834   18.2204 C   0  0  0  0  0  0  0  0  0  0  0  0
    5.3508    4.1623   17.8023 C   0  0  0  0  0  0  0  0  0  0  0  0
    4.7583    4.1598   16.5491 C   0  0  0  0  0  0  0  0  0  0  0  0
    3.9228    3.1322   16.1758 C   0  0  0  0  0  0  0  0  0  0  0  0
    3.6271    2.0671   16.9981 C   0  0  0  0  0  0  0  0  0  0  0  0
    4.2210    2.0690   18.2551 C   0  0  0  0  0  0  0  0  0  0  0  0
    5.0574    3.0995   18.6270 C   0  0  0  0  0  0  0  0  0  0  0  0
    2.7615    1.0202   16.5869 N   0  0  0  0  0  0  0  0  0  0  0  0
    2.3378    0.0403   17.4403 O   0  0  0  0  0  0  0  0  0  0  0  0
    2.3681    0.9829   15.4117 O   0  0  0  0  0  0  0  0  0  0  0  0
 15 16  1  0  0  0
 16 17  1  0  0  0
 17 18  2  0  0  0
 17 14  1  0  0  0
 14  1  1  0  0  0
  1 21  1  0  0  0
 21 22  1  0  0  0
 22 23  2  0  0  0
 23 24  1  0  0  0
 24 25  2  0  0  0
 25 26  1  0  0  0
 26 27  2  0  0  0
 25 28  1  0  0  0
 28 29  1  0  0  0
 28 30  2  0  0  0
  1  2  1  0  0  0
  2  3  2  0  0  0
  2  4  2  0  0  0
  2  5  1  0  0  0
  5  6  2  0  0  0
  6  7  1  0  0  0
  7  8  2  0  0  0
  8  9  1  0  0  0
  9 10  2  0  0  0
  8 11  1  0  0  0
 11 12  1  0  0  0
 11 13  2  0  0  0
 27 22  1  0  0  0
 10  5  1  0  0  0
 15 19  1  0  0  0
 16 20  1  0  0  0
M  CHG 1  11   1
M  CHG 1  12  -1
M  CHG 1  28   1
M  CHG 1  29  -1
M  END
> <minimizedAffinity>
-8.20597

> <CNNscore>
0.3814820051

> <CNNaffinity>
5.8991336823

> <CNN_VS>
2.2504134178

> <CNNaffinity_variance>
0.1868628711

$$$$
[H]ON([H])C(=O)C([H])([H])N(C([H])([H])c1c([H])c([H])c([N+](=O)[O-])c([H])c1[H])S(=O)(=O)c1c([H])c([H])c([N+](=O)[O-])c([H])c1[H]


 30 31  0  0  0  0  0  0  0  0999 V2000
    3.2551    3.6083   16.9988 N   0  0  0  0  0  0  0  0  0  0  0  0
    4.6991    3.1030   17.6545 S   0  0  0  0  0  0  0  0  0  0  0  0
    5.8788    3.9851   17.3809 O   0  0  0  0  0  0  0  0  0  0  0  0
    5.0331    1.7162   17.1885 O   0  0  0  0  0  0  0  0  0  0  0  0
    4.5641    3.0184   19.4198 C   0  0  0  0  0  0  0  0  0  0  0  0
    4.0204    1.9546   20.0674 C   0  0  0  0  0  0  0  0  0  0  0  0
    3.9338    1.9292   21.4540 C   0  0  0  0  0  0  0  0  0  0  0  0
    4.3937    2.9757   22.2179 C   0  0  0  0  0  0  0  0  0  0  0  0
    4.9443    4.0547   21.5757 C   0  0  0  0  0  0  0  0  0  0  0  0
    5.0296    4.0769   20.1850 C   0  0  0  0  0  0  0  0  0  0  0  0
    4.3269    2.9950   23.6334 N   0  0  0  0  0  0  0  0  0  0  0  0
    3.5854    3.9957   24.2361 O   0  0  0  0  0  0  0  0  0  0  0  0
    4.9152    2.1403   24.3213 O   0  0  0  0  0  0  0  0  0  0  0  0
    2.5330    4.6284   17.6642 C   0  0  0  0  0  0  0  0  0  0  0  0
    3.6272    7.8398   16.1678 O   0  0  0  0  0  0  0  0  0  0  0  0
    3.1448    6.5949   16.2710 N   0  0  0  0  0  0  0  0  0  0  0  0
    3.0548    5.9815   17.5301 C   0  0  0  0  0  0  0  0  0  0  0  0
    3.4336    6.6243   18.5383 O   0  0  0  0  0  0  0  0  0  0  0  0
    2.8893    8.5176   16.2775 H   0  0  0  0  0  0  0  0  0  0  0  0
    2.8429    6.0987   15.4159 H   0  0  0  0  0  0  0  0  0  0  0  0
    2.4421    2.6669   16.3160 C   0  0  0  0  0  0  0  0  0  0  0  0
    2.5844    2.7572   14.8237 C   0  0  0  0  0  0  0  0  0  0  0  0
    3.5010    3.6247   14.2502 C   0  0  0  0  0  0  0  0  0  0  0  0
    3.6210    3.7062   12.8818 C   0  0  0  0  0  0  0  0  0  0  0  0
    2.8606    2.9532   12.0142 C   0  0  0  0  0  0  0  0  0  0  0  0
    1.9411    2.0830   12.5887 C   0  0  0  0  0  0  0  0  0  0  0  0
    1.8225    2.0031   13.9596 C   0  0  0  0  0  0  0  0  0  0  0  0
    3.0054    3.0576   10.6063 N   0  0  0  0  0  0  0  0  0  0  0  0
    3.8148    2.2229    9.8877 O   0  0  0  0  0  0  0  0  0  0  0  0
    2.3790    3.9352    9.9941 O   0  0  0  0  0  0  0  0  0  0  0  0
 15 16  1  0  0  0
 16 17  1  0  0  0
 17 18  2  0  0  0
 17 14  1  0  0  0
 14  1  1  0  0  0
  1 21  1  0  0  0
 21 22  1  0  0  0
 22 23  2  0  0  0
 23 24  1  0  0  0
 24 25  2  0  0  0
 25 26  1  0  0  0
 26 27  2  0  0  0
 25 28  1  0  0  0
 28 29  1  0  0  0
 28 30  2  0  0  0
  1  2  1  0  0  0
  2  3  2  0  0  0
  2  4  2  0  0  0
  2  5  1  0  0  0
  5  6  2  0  0  0
  6  7  1  0  0  0
  7  8  2  0  0  0
  8  9  1  0  0  0
  9 10  2  0  0  0
  8 11  1  0  0  0
 11 12  1  0  0  0
 11 13  2  0  0  0
 27 22  1  0  0  0
 10  5  1  0  0  0
 15 19  1  0  0  0
 16 20  1  0  0  0
M  CHG 1  11   1
M  CHG 1  12  -1
M  CHG 1  28   1
M  CHG 1  29  -1
M  END
> <minimizedAffinity>
-6.91161

> <CNNscore>
0.3745217323

> <CNNaffinity>
5.5617008209

> <CNN_VS>
2.0829777718

> <CNNaffinity_variance>
0.0783592090

$$$$
[H]ON([H])C(=O)C([H])([H])N(C([H])([H])c1c([H])c([H])c([N+](=O)[O-])c([H])c1[H])S(=O)(=O)c1c([H])c([H])c([N+](=O)[O-])c([H])c1[H]


 30 31  0  0  0  0  0  0  0  0999 V2000
    2.8135    4.6056   13.7116 N   0  0  0  0  0  0  0  0  0  0  0  0
    1.8323    4.6257   12.3674 S   0  0  0  0  0  0  0  0  0  0  0  0
    0.3985    4.9814   12.6172 O   0  0  0  0  0  0  0  0  0  0  0  0
    1.8707    3.2992   11.6668 O   0  0  0  0  0  0  0  0  0  0  0  0
    2.4266    5.8233   11.2037 C   0  0  0  0  0  0  0  0  0  0  0  0
    1.8768    7.0590   11.0718 C   0  0  0  0  0  0  0  0  0  0  0  0
    2.3740    7.9680   10.1459 C   0  0  0  0  0  0  0  0  0  0  0  0
    3.4363    7.6510    9.3329 C   0  0  0  0  0  0  0  0  0  0  0  0
    3.9994    6.4071    9.4568 C   0  0  0  0  0  0  0  0  0  0  0  0
    3.4984    5.4979   10.3863 C   0  0  0  0  0  0  0  0  0  0  0  0
    3.9775    8.5441    8.3747 N   0  0  0  0  0  0  0  0  0  0  0  0
    3.1087    9.1412    7.4784 O   0  0  0  0  0  0  0  0  0  0  0  0
    5.1974    8.7895    8.3342 O   0  0  0  0  0  0  0  0  0  0  0  0
    3.1815    5.8417   14.2961 C   0  0  0  0  0  0  0  0  0  0  0  0
    3.2635    6.9756   17.8255 O   0  0  0  0  0  0  0  0  0  0  0  0
    3.6127    6.8158   16.5428 N   0  0  0  0  0  0  0  0  0  0  0  0
    2.8193    6.0281   15.6944 C   0  0  0  0  0  0  0  0  0  0  0  0
    1.7907    5.4877   16.1667 O   0  0  0  0  0  0  0  0  0  0  0  0
    2.6395    7.7604   17.9293 H   0  0  0  0  0  0  0  0  0  0  0  0
    4.4682    7.2781   16.1918 H   0  0  0  0  0  0  0  0  0  0  0  0
    3.7935    3.5867   13.8335 C   0  0  0  0  0  0  0  0  0  0  0  0
    3.5854    2.7288   15.0486 C   0  0  0  0  0  0  0  0  0  0  0  0
    2.6751    1.6836   15.0308 C   0  0  0  0  0  0  0  0  0  0  0  0
    2.4854    0.9060   16.1501 C   0  0  0  0  0  0  0  0  0  0  0  0
    3.1676    1.1076   17.3300 C   0  0  0  0  0  0  0  0  0  0  0  0
    4.0807    2.1558   17.3485 C   0  0  0  0  0  0  0  0  0  0  0  0
    4.2688    2.9335   16.2262 C   0  0  0  0  0  0  0  0  0  0  0  0
    2.9521    0.2898   18.4697 N   0  0  0  0  0  0  0  0  0  0  0  0
    2.0649   -0.7499   18.4700 O   0  0  0  0  0  0  0  0  0  0  0  0
    3.5869    0.5174   19.5101 O   0  0  0  0  0  0  0  0  0  0  0  0
 15 16  1  0  0  0
 16 17  1  0  0  0
 17 18  2  0  0  0
 17 14  1  0  0  0
 14  1  1  0  0  0
  1 21  1  0  0  0
 21 22  1  0  0  0
 22 23  2  0  0  0
 23 24  1  0  0  0
 24 25  2  0  0  0
 25 26  1  0  0  0
 26 27  2  0  0  0
 25 28  1  0  0  0
 28 29  1  0  0  0
 28 30  2  0  0  0
  1  2  1  0  0  0
  2  3  2  0  0  0
  2  4  2  0  0  0
  2  5  1  0  0  0
  5  6  2  0  0  0
  6  7  1  0  0  0
  7  8  2  0  0  0
  8  9  1  0  0  0
  9 10  2  0  0  0
  8 11  1  0  0  0
 11 12  1  0  0  0
 11 13  2  0  0  0
 27 22  1  0  0  0
 10  5  1  0  0  0
 15 19  1  0  0  0
 16 20  1  0  0  0
M  CHG 1  11   1
M  CHG 1  12  -1
M  CHG 1  28   1
M  CHG 1  29  -1
M  END
> <minimizedAffinity>
-6.36383

> <CNNscore>
0.3740164638

> <CNNaffinity>
5.4140934944

> <CNN_VS>
2.0249600410

> <CNNaffinity_variance>
0.0985508710

$$$$
[H]ON([H])C(=O)C([H])([H])N(C([H])([H])c1c([H])c([H])c([N+](=O)[O-])c([H])c1[H])S(=O)(=O)c1c([H])c([H])c([N+](=O)[O-])c([H])c1[H]


 30 31  0  0  0  0  0  0  0  0999 V2000
    1.5034    5.0238   12.1359 N   0  0  0  0  0  0  0  0  0  0  0  0
    3.0448    4.4276   12.3329 S   0  0  0  0  0  0  0  0  0  0  0  0
    4.1210    5.4566   12.4992 O   0  0  0  0  0  0  0  0  0  0  0  0
    3.4183    3.5410   11.1812 O   0  0  0  0  0  0  0  0  0  0  0  0
    3.1203    3.4169   13.7870 C   0  0  0  0  0  0  0  0  0  0  0  0
    3.8220    3.7714   14.8954 C   0  0  0  0  0  0  0  0  0  0  0  0
    3.8547    2.9487   16.0147 C   0  0  0  0  0  0  0  0  0  0  0  0
    3.1805    1.7508   16.0409 C   0  0  0  0  0  0  0  0  0  0  0  0
    2.4689    1.3824   14.9283 C   0  0  0  0  0  0  0  0  0  0  0  0
    2.4383    2.2098   13.8075 C   0  0  0  0  0  0  0  0  0  0  0  0
    3.1843    0.8791   17.1584 N   0  0  0  0  0  0  0  0  0  0  0  0
    2.3580   -0.2301   17.1211 O   0  0  0  0  0  0  0  0  0  0  0  0
    3.9071    1.0980   18.1482 O   0  0  0  0  0  0  0  0  0  0  0  0
    0.9096    5.7260   13.2126 C   0  0  0  0  0  0  0  0  0  0  0  0
    2.0784    8.9998   14.5031 O   0  0  0  0  0  0  0  0  0  0  0  0
    1.8125    7.6888   14.4432 N   0  0  0  0  0  0  0  0  0  0  0  0
    1.2072    7.1491   13.2978 C   0  0  0  0  0  0  0  0  0  0  0  0
    0.9277    7.9195   12.3482 O   0  0  0  0  0  0  0  0  0  0  0  0
    2.9874    9.1966   14.1144 H   0  0  0  0  0  0  0  0  0  0  0  0
    2.0583    7.0873   15.2472 H   0  0  0  0  0  0  0  0  0  0  0  0
    0.5841    4.3031   11.3303 C   0  0  0  0  0  0  0  0  0  0  0  0
   -0.0951    5.1727   10.3116 C   0  0  0  0  0  0  0  0  0  0  0  0
    0.6462    5.9611    9.4453 C   0  0  0  0  0  0  0  0  0  0  0  0
    0.0163    6.7601    8.5189 C   0  0  0  0  0  0  0  0  0  0  0  0
   -1.3540    6.8287    8.3930 C   0  0  0  0  0  0  0  0  0  0  0  0
   -2.0981    6.0382    9.2615 C   0  0  0  0  0  0  0  0  0  0  0  0
   -1.4649    5.2388   10.1889 C   0  0  0  0  0  0  0  0  0  0  0  0
   -1.9774    7.6619    7.4279 N   0  0  0  0  0  0  0  0  0  0  0  0
   -1.4447    8.8585    7.0374 O   0  0  0  0  0  0  0  0  0  0  0  0
   -3.0458    7.3011    6.9126 O   0  0  0  0  0  0  0  0  0  0  0  0
 15 16  1  0  0  0
 16 17  1  0  0  0
 17 18  2  0  0  0
 17 14  1  0  0  0
 14  1  1  0  0  0
  1 21  1  0  0  0
 21 22  1  0  0  0
 22 23  2  0  0  0
 23 24  1  0  0  0
 24 25  2  0  0  0
 25 26  1  0  0  0
 26 27  2  0  0  0
 25 28  1  0  0  0
 28 29  1  0  0  0
 28 30  2  0  0  0
  1  2  1  0  0  0
  2  3  2  0  0  0
  2  4  2  0  0  0
  2  5  1  0  0  0
  5  6  2  0  0  0
  6  7  1  0  0  0
  7  8  2  0  0  0
  8  9  1  0  0  0
  9 10  2  0  0  0
  8 11  1  0  0  0
 11 12  1  0  0  0
 11 13  2  0  0  0
 27 22  1  0  0  0
 10  5  1  0  0  0
 15 19  1  0  0  0
 16 20  1  0  0  0
M  CHG 1  11   1
M  CHG 1  12  -1
M  CHG 1  28   1
M  CHG 1  29  -1
M  END
> <minimizedAffinity>
-6.28866

> <CNNscore>
0.3631260991

> <CNNaffinity>
4.9790468216

> <CNN_VS>
1.8080219030

> <CNNaffinity_variance>
0.0933076218

$$$$
[H]ON([H])C(=O)C([H])([H])N(C([H])([H])c1c([H])c([H])c([N+](=O)[O-])c([H])c1[H])S(=O)(=O)c1c([H])c([H])c([N+](=O)[O-])c([H])c1[H]


 30 31  0  0  0  0  0  0  0  0999 V2000
    5.3036    7.8426   20.9127 N   0  0  0  0  0  0  0  0  0  0  0  0
    5.0624    7.8412   19.2659 S   0  0  0  0  0  0  0  0  0  0  0  0
    6.1673    8.4380   18.4487 O   0  0  0  0  0  0  0  0  0  0  0  0
    3.7869    8.5519   18.9193 O   0  0  0  0  0  0  0  0  0  0  0  0
    4.8816    6.1769   18.6834 C   0  0  0  0  0  0  0  0  0  0  0  0
    5.8497    5.5329   17.9801 C   0  0  0  0  0  0  0  0  0  0  0  0
    5.6666    4.2270   17.5419 C   0  0  0  0  0  0  0  0  0  0  0  0
    4.5036    3.5421   17.8033 C   0  0  0  0  0  0  0  0  0  0  0  0
    3.5195    4.1815   18.5121 C   0  0  0  0  0  0  0  0  0  0  0  0
    3.7063    5.4911   18.9501 C   0  0  0  0  0  0  0  0  0  0  0  0
    4.2714    2.2104   17.3773 N   0  0  0  0  0  0  0  0  0  0  0  0
    3.7942    2.0119   16.0938 O   0  0  0  0  0  0  0  0  0  0  0  0
    4.4881    1.2426   18.1298 O   0  0  0  0  0  0  0  0  0  0  0  0
    5.1155    9.0545   21.6204 C   0  0  0  0  0  0  0  0  0  0  0  0
    7.0546    9.8356   24.6829 O   0  0  0  0  0  0  0  0  0  0  0  0
    6.0434    9.4544   23.8923 N   0  0  0  0  0  0  0  0  0  0  0  0
    6.2028    9.4653   22.4980 C   0  0  0  0  0  0  0  0  0  0  0  0
    7.3028    9.8367   22.0234 O   0  0  0  0  0  0  0  0  0  0  0  0
    7.6535    9.0535   24.8968 H   0  0  0  0  0  0  0  0  0  0  0  0
    5.1524    9.1550   24.3225 H   0  0  0  0  0  0  0  0  0  0  0  0
    6.2966    6.9920   21.4638 C   0  0  0  0  0  0  0  0  0  0  0  0
    5.7326    5.6890   21.9536 C   0  0  0  0  0  0  0  0  0  0  0  0
    6.4399    4.5071   21.7973 C   0  0  0  0  0  0  0  0  0  0  0  0
    5.9136    3.3164   22.2430 C   0  0  0  0  0  0  0  0  0  0  0  0
    4.6840    3.2208   22.8571 C   0  0  0  0  0  0  0  0  0  0  0  0
    3.9742    4.4059   23.0141 C   0  0  0  0  0  0  0  0  0  0  0  0
    4.5032    5.5974   22.5667 C   0  0  0  0  0  0  0  0  0  0  0  0
    4.1654    1.9789   23.3074 N   0  0  0  0  0  0  0  0  0  0  0  0
    4.4334    1.4790   24.5509 O   0  0  0  0  0  0  0  0  0  0  0  0
    3.4405    1.3134   22.5530 O   0  0  0  0  0  0  0  0  0  0  0  0
 15 16  1  0  0  0
 16 17  1  0  0  0
 17 18  2  0  0  0
 17 14  1  0  0  0
 14  1  1  0  0  0
  1 21  1  0  0  0
 21 22  1  0  0  0
 22 23  2  0  0  0
 23 24  1  0  0  0
 24 25  2  0  0  0
 25 26  1  0  0  0
 26 27  2  0  0  0
 25 28  1  0  0  0
 28 29  1  0  0  0
 28 30  2  0  0  0
  1  2  1  0  0  0
  2  3  2  0  0  0
  2  4  2  0  0  0
  2  5  1  0  0  0
  5  6  2  0  0  0
  6  7  1  0  0  0
  7  8  2  0  0  0
  8  9  1  0  0  0
  9 10  2  0  0  0
  8 11  1  0  0  0
 11 12  1  0  0  0
 11 13  2  0  0  0
 27 22  1  0  0  0
 10  5  1  0  0  0
 15 19  1  0  0  0
 16 20  1  0  0  0
M  CHG 1  11   1
M  CHG 1  12  -1
M  CHG 1  28   1
M  CHG 1  29  -1
M  END
> <minimizedAffinity>
-7.98320

> <CNNscore>
0.3571457863

> <CNNaffinity>
5.5103921890

> <CNN_VS>
1.9680134058

> <CNNaffinity_variance>
0.1480391771

$$$$
[H]ON([H])C(=O)C([H])([H])N(C([H])([H])c1c([H])c([H])c([N+](=O)[O-])c([H])c1[H])S(=O)(=O)c1c([H])c([H])c([N+](=O)[O-])c([H])c1[H]


 30 31  0  0  0  0  0  0  0  0999 V2000
    3.6302    4.7809   17.1198 N   0  0  0  0  0  0  0  0  0  0  0  0
    4.9197    3.8017   17.5052 S   0  0  0  0  0  0  0  0  0  0  0  0
    6.2747    4.3675   17.2073 O   0  0  0  0  0  0  0  0  0  0  0  0
    4.8020    2.4770   16.8100 O   0  0  0  0  0  0  0  0  0  0  0  0
    4.9172    3.4561   19.2437 C   0  0  0  0  0  0  0  0  0  0  0  0
    4.2644    2.3933   19.7830 C   0  0  0  0  0  0  0  0  0  0  0  0
    4.2882    2.1591   21.1525 C   0  0  0  0  0  0  0  0  0  0  0  0
    4.9709    2.9912   22.0079 C   0  0  0  0  0  0  0  0  0  0  0  0
    5.6334    4.0670   21.4753 C   0  0  0  0  0  0  0  0  0  0  0  0
    5.6075    4.2990   20.1015 C   0  0  0  0  0  0  0  0  0  0  0  0
    5.0237    2.7931   23.4102 N   0  0  0  0  0  0  0  0  0  0  0  0
    4.0786    3.4318   24.1935 O   0  0  0  0  0  0  0  0  0  0  0  0
    5.8916    2.0672   23.9296 O   0  0  0  0  0  0  0  0  0  0  0  0
    3.0034    5.5103   18.1590 C   0  0  0  0  0  0  0  0  0  0  0  0
    4.0330    8.5825   19.9618 O   0  0  0  0  0  0  0  0  0  0  0  0
    3.5369    7.3602   19.7324 N   0  0  0  0  0  0  0  0  0  0  0  0
    3.5382    6.8376   18.4299 C   0  0  0  0  0  0  0  0  0  0  0  0
    4.0102    7.5389   17.5033 O   0  0  0  0  0  0  0  0  0  0  0  0
    5.0234    8.5363   20.1435 H   0  0  0  0  0  0  0  0  0  0  0  0
    3.1569    6.8136   20.5233 H   0  0  0  0  0  0  0  0  0  0  0  0
    2.7574    4.3893   16.0718 C   0  0  0  0  0  0  0  0  0  0  0  0
    3.2290    4.8550   14.7241 C   0  0  0  0  0  0  0  0  0  0  0  0
    3.7185    3.9520   13.7934 C   0  0  0  0  0  0  0  0  0  0  0  0
    4.1546    4.3873   12.5630 C   0  0  0  0  0  0  0  0  0  0  0  0
    4.1348    5.7116   12.1837 C   0  0  0  0  0  0  0  0  0  0  0  0
    3.6439    6.6179   13.1168 C   0  0  0  0  0  0  0  0  0  0  0  0
    3.2078    6.1796   14.3487 C   0  0  0  0  0  0  0  0  0  0  0  0
    4.5910    6.1328   10.9075 N   0  0  0  0  0  0  0  0  0  0  0  0
    4.7703    7.4501   10.5901 O   0  0  0  0  0  0  0  0  0  0  0  0
    4.8396    5.2828   10.0398 O   0  0  0  0  0  0  0  0  0  0  0  0
 15 16  1  0  0  0
 16 17  1  0  0  0
 17 18  2  0  0  0
 17 14  1  0  0  0
 14  1  1  0  0  0
  1 21  1  0  0  0
 21 22  1  0  0  0
 22 23  2  0  0  0
 23 24  1  0  0  0
 24 25  2  0  0  0
 25 26  1  0  0  0
 26 27  2  0  0  0
 25 28  1  0  0  0
 28 29  1  0  0  0
 28 30  2  0  0  0
  1  2  1  0  0  0
  2  3  2  0  0  0
  2  4  2  0  0  0
  2  5  1  0  0  0
  5  6  2  0  0  0
  6  7  1  0  0  0
  7  8  2  0  0  0
  8  9  1  0  0  0
  9 10  2  0  0  0
  8 11  1  0  0  0
 11 12  1  0  0  0
 11 13  2  0  0  0
 27 22  1  0  0  0
 10  5  1  0  0  0
 15 19  1  0  0  0
 16 20  1  0  0  0
M  CHG 1  11   1
M  CHG 1  12  -1
M  CHG 1  28   1
M  CHG 1  29  -1
M  END
> <minimizedAffinity>
-6.96306

> <CNNscore>
0.3454461098

> <CNNaffinity>
5.5807900429

> <CNN_VS>
1.9278621674

> <CNNaffinity_variance>
0.1964673549

$$$$
[H]ON([H])C(=O)C([H])([H])N(C([H])([H])c1c([H])c([H])c([N+](=O)[O-])c([H])c1[H])S(=O)(=O)c1c([H])c([H])c([N+](=O)[O-])c([H])c1[H]


 30 31  0  0  0  0  0  0  0  0999 V2000
    4.5321    2.0005   21.6359 N   0  0  0  0  0  0  0  0  0  0  0  0
    6.1049    2.2243   22.1321 S   0  0  0  0  0  0  0  0  0  0  0  0
    7.1217    1.3358   21.4828 O   0  0  0  0  0  0  0  0  0  0  0  0
    6.2176    2.0565   23.6190 O   0  0  0  0  0  0  0  0  0  0  0  0
    6.6207    3.8821   21.7753 C   0  0  0  0  0  0  0  0  0  0  0  0
    7.4096    4.6050   22.6130 C   0  0  0  0  0  0  0  0  0  0  0  0
    7.7909    5.9027   22.2944 C   0  0  0  0  0  0  0  0  0  0  0  0
    7.3851    6.4997   21.1243 C   0  0  0  0  0  0  0  0  0  0  0  0
    6.5888    5.7801   20.2711 C   0  0  0  0  0  0  0  0  0  0  0  0
    6.2083    4.4790   20.5936 C   0  0  0  0  0  0  0  0  0  0  0  0
    7.7481    7.8195   20.7567 N   0  0  0  0  0  0  0  0  0  0  0  0
    8.1760    8.6781   21.7538 O   0  0  0  0  0  0  0  0  0  0  0  0
    7.6864    8.2025   19.5737 O   0  0  0  0  0  0  0  0  0  0  0  0
    3.4887    2.4634   22.4736 C   0  0  0  0  0  0  0  0  0  0  0  0
    3.5546    6.1624   22.2230 O   0  0  0  0  0  0  0  0  0  0  0  0
    3.5116    4.8735   21.8625 N   0  0  0  0  0  0  0  0  0  0  0  0
    3.5347    3.8711   22.8445 C   0  0  0  0  0  0  0  0  0  0  0  0
    3.5958    4.2138   24.0495 O   0  0  0  0  0  0  0  0  0  0  0  0
    2.6258    6.5161   22.3909 H   0  0  0  0  0  0  0  0  0  0  0  0
    3.4615    4.6322   20.8586 H   0  0  0  0  0  0  0  0  0  0  0  0
    4.2061    0.8439   20.8812 C   0  0  0  0  0  0  0  0  0  0  0  0
    3.9315    1.1555   19.4380 C   0  0  0  0  0  0  0  0  0  0  0  0
    3.0753    0.3608   18.6917 C   0  0  0  0  0  0  0  0  0  0  0  0
    2.8337    0.6492   17.3681 C   0  0  0  0  0  0  0  0  0  0  0  0
    3.4093    1.7162   16.7138 C   0  0  0  0  0  0  0  0  0  0  0  0
    4.2682    2.5137   17.4617 C   0  0  0  0  0  0  0  0  0  0  0  0
    4.5089    2.2228   18.7874 C   0  0  0  0  0  0  0  0  0  0  0  0
    3.1421    1.9905   15.3473 N   0  0  0  0  0  0  0  0  0  0  0  0
    2.1316    1.3786   14.6598 O   0  0  0  0  0  0  0  0  0  0  0  0
    3.8450    2.8145   14.7438 O   0  0  0  0  0  0  0  0  0  0  0  0
 15 16  1  0  0  0
 16 17  1  0  0  0
 17 18  2  0  0  0
 17 14  1  0  0  0
 14  1  1  0  0  0
  1 21  1  0  0  0
 21 22  1  0  0  0
 22 23  2  0  0  0
 23 24  1  0  0  0
 24 25  2  0  0  0
 25 26  1  0  0  0
 26 27  2  0  0  0
 25 28  1  0  0  0
 28 29  1  0  0  0
 28 30  2  0  0  0
  1  2  1  0  0  0
  2  3  2  0  0  0
  2  4  2  0  0  0
  2  5  1  0  0  0
  5  6  2  0  0  0
  6  7  1  0  0  0
  7  8  2  0  0  0
  8  9  1  0  0  0
  9 10  2  0  0  0
  8 11  1  0  0  0
 11 12  1  0  0  0
 11 13  2  0  0  0
 27 22  1  0  0  0
 10  5  1  0  0  0
 15 19  1  0  0  0
 16 20  1  0  0  0
M  CHG 1  11   1
M  CHG 1  12  -1
M  CHG 1  28   1
M  CHG 1  29  -1
M  END
> <minimizedAffinity>
-6.92173

> <CNNscore>
0.3301120400

> <CNNaffinity>
5.7460732460

> <CNN_VS>
1.8968479633

> <CNNaffinity_variance>
0.1726896763

$$$$
[H]OC(=O)C([H])(C([H])([H])c1c([H])c([H])c([H])c([H])c1[H])C([H])([H])P(=O)(O[H])C([H])(C([H])([H])c1c([H])c([H])c([H])c([H])c1[H])C([H])([H])P(=O)(O[H])C([H])([H])C(=O)O[H]


 35 36  0  0  0  0  0  0  0  0999 V2000
    3.9896    4.4100   18.2605 C   0  0  0  0  0  0  0  0  0  0  0  0
    4.9750    5.8876   18.1606 P   0  0  0  0  0  0  0  0  0  0  0  0
    5.7784    5.8916   16.6291 O   0  0  0  0  0  0  0  0  0  0  0  0
    4.0945    7.1512   18.0865 O   0  0  0  0  0  0  0  0  0  0  0  0
    6.1135    4.9798   16.4933 H   0  0  0  0  0  0  0  0  0  0  0  0
    6.1754    6.0172   19.4663 C   0  0  0  0  0  0  0  0  0  0  0  0
    5.7108    6.5848   20.7670 C   0  0  0  0  0  0  0  0  0  0  0  0
    4.1648    8.5889   20.7495 O   0  0  0  0  0  0  0  0  0  0  0  0
    5.4393    8.0258   20.7703 C   0  0  0  0  0  0  0  0  0  0  0  0
    6.3782    8.8976   20.7932 O   0  0  0  0  0  0  0  0  0  0  0  0
    3.9447    9.4512   20.2919 H   0  0  0  0  0  0  0  0  0  0  0  0
    6.4608    6.0711   21.9614 C   0  0  0  0  0  0  0  0  0  0  0  0
    5.7114    4.9484   22.6000 C   0  0  0  0  0  0  0  0  0  0  0  0
    6.3568    3.7841   22.9455 C   0  0  0  0  0  0  0  0  0  0  0  0
    5.6643    2.7631   23.5320 C   0  0  0  0  0  0  0  0  0  0  0  0
    4.3194    2.8985   23.7778 C   0  0  0  0  0  0  0  0  0  0  0  0
    3.6667    4.0742   23.4291 C   0  0  0  0  0  0  0  0  0  0  0  0
    4.3818    5.0968   22.8370 C   0  0  0  0  0  0  0  0  0  0  0  0
    3.6459    3.8493   19.5864 C   0  0  0  0  0  0  0  0  0  0  0  0
    4.2636    2.6286   20.0595 C   0  0  0  0  0  0  0  0  0  0  0  0
    3.4467    1.6154   20.5988 C   0  0  0  0  0  0  0  0  0  0  0  0
    3.9366    0.4039   21.0220 C   0  0  0  0  0  0  0  0  0  0  0  0
    5.2771    0.1013   20.9434 C   0  0  0  0  0  0  0  0  0  0  0  0
    6.1065    1.0682   20.4203 C   0  0  0  0  0  0  0  0  0  0  0  0
    5.5894    2.2829   19.9994 C   0  0  0  0  0  0  0  0  0  0  0  0
    2.7548    4.4429   17.3569 C   0  0  0  0  0  0  0  0  0  0  0  0
    3.1465    3.7583   15.7473 P   0  0  0  0  0  0  0  0  0  0  0  0
    2.0146    2.5564   15.2983 O   0  0  0  0  0  0  0  0  0  0  0  0
    4.5502    3.2471   15.6333 O   0  0  0  0  0  0  0  0  0  0  0  0
    1.1311    2.8126   15.6804 H   0  0  0  0  0  0  0  0  0  0  0  0
    2.9697    5.0448   14.4463 C   0  0  0  0  0  0  0  0  0  0  0  0
    3.3659    4.3970   13.1691 C   0  0  0  0  0  0  0  0  0  0  0  0
    4.6750    4.3557   12.7171 O   0  0  0  0  0  0  0  0  0  0  0  0
    2.4974    3.8463   12.4310 O   0  0  0  0  0  0  0  0  0  0  0  0
    5.3178    3.6031   12.9320 H   0  0  0  0  0  0  0  0  0  0  0  0
  8  9  1  0  0  0
  9 10  2  0  0  0
  9  7  1  0  0  0
  7 12  1  0  0  0
 12 13  1  0  0  0
 13 14  2  0  0  0
 14 15  1  0  0  0
 15 16  2  0  0  0
 16 17  1  0  0  0
 17 18  2  0  0  0
  7  6  1  0  0  0
  6  2  1  0  0  0
  2  3  1  0  0  0
  2  4  2  0  0  0
  2  1  1  0  0  0
  1 19  1  0  0  0
 19 20  1  0  0  0
 20 21  2  0  0  0
 21 22  1  0  0  0
 22 23  2  0  0  0
 23 24  1  0  0  0
 24 25  2  0  0  0
  1 26  1  0  0  0
 26 27  1  0  0  0
 27 28  1  0  0  0
 27 29  2  0  0  0
 27 31  1  0  0  0
 31 32  1  0  0  0
 32 33  1  0  0  0
 32 34  2  0  0  0
 18 13  1  0  0  0
 25 20  1  0  0  0
  8 11  1  0  0  0
  3  5  1  0  0  0
 28 30  1  0  0  0
 33 35  1  0  0  0
M  END
> <minimizedAffinity>
-6.21367

> <CNNscore>
0.3392077386

> <CNNaffinity>
5.1043877602

> <CNN_VS>
1.7314478159

> <CNNaffinity_variance>
0.2586890459

$$$$
[H]OC(=O)C([H])(C([H])([H])c1c([H])c([H])c([H])c([H])c1[H])C([H])([H])P(=O)(O[H])C([H])(C([H])([H])c1c([H])c([H])c([H])c([H])c1[H])C([H])([H])P(=O)(O[H])C([H])([H])C(=O)O[H]


 35 36  0  0  0  0  0  0  0  0999 V2000
    5.2941    6.1931   20.0606 C   0  0  0  0  0  0  0  0  0  0  0  0
    4.3343    6.6664   18.6396 P   0  0  0  0  0  0  0  0  0  0  0  0
    3.0621    7.7076   19.1766 O   0  0  0  0  0  0  0  0  0  0  0  0
    5.1400    7.5753   17.6896 O   0  0  0  0  0  0  0  0  0  0  0  0
    2.6998    7.2993   19.9916 H   0  0  0  0  0  0  0  0  0  0  0  0
    3.6439    5.2785   17.7682 C   0  0  0  0  0  0  0  0  0  0  0  0
    4.4003    4.7700   16.5853 C   0  0  0  0  0  0  0  0  0  0  0  0
    4.2316    4.4887   14.0756 O   0  0  0  0  0  0  0  0  0  0  0  0
    3.6600    4.7474   15.3198 C   0  0  0  0  0  0  0  0  0  0  0  0
    2.3993    4.9696   15.2620 O   0  0  0  0  0  0  0  0  0  0  0  0
    3.9206    4.9086   13.2221 H   0  0  0  0  0  0  0  0  0  0  0  0
    5.2267    3.5489   16.8664 C   0  0  0  0  0  0  0  0  0  0  0  0
    4.3428    2.3813   17.1586 C   0  0  0  0  0  0  0  0  0  0  0  0
    3.5906    1.8068   16.1607 C   0  0  0  0  0  0  0  0  0  0  0  0
    2.7868    0.7370   16.4360 C   0  0  0  0  0  0  0  0  0  0  0  0
    2.7288    0.2330   17.7128 C   0  0  0  0  0  0  0  0  0  0  0  0
    3.4882    0.8129   18.7213 C   0  0  0  0  0  0  0  0  0  0  0  0
    4.2957    1.8937   18.4259 C   0  0  0  0  0  0  0  0  0  0  0  0
    5.6543    4.7713   20.2583 C   0  0  0  0  0  0  0  0  0  0  0  0
    5.2519    4.0625   21.4547 C   0  0  0  0  0  0  0  0  0  0  0  0
    5.8183    2.8007   21.7229 C   0  0  0  0  0  0  0  0  0  0  0  0
    5.5387    2.0800   22.8583 C   0  0  0  0  0  0  0  0  0  0  0  0
    4.6743    2.5547   23.8187 C   0  0  0  0  0  0  0  0  0  0  0  0
    4.1018    3.7863   23.5905 C   0  0  0  0  0  0  0  0  0  0  0  0
    4.3994    4.4953   22.4378 C   0  0  0  0  0  0  0  0  0  0  0  0
    6.5105    7.0913   20.2966 C   0  0  0  0  0  0  0  0  0  0  0  0
    6.2084    8.1934   21.6776 P   0  0  0  0  0  0  0  0  0  0  0  0
    4.5361    8.3033   22.0221 O   0  0  0  0  0  0  0  0  0  0  0  0
    6.8152    9.5529   21.5099 O   0  0  0  0  0  0  0  0  0  0  0  0
    4.1238    7.4209   21.8131 H   0  0  0  0  0  0  0  0  0  0  0  0
    6.9358    7.5015   23.2174 C   0  0  0  0  0  0  0  0  0  0  0  0
    7.0139    8.6304   24.1802 C   0  0  0  0  0  0  0  0  0  0  0  0
    5.9655    9.5090   24.4012 O   0  0  0  0  0  0  0  0  0  0  0  0
    8.0693    8.8333   24.8491 O   0  0  0  0  0  0  0  0  0  0  0  0
    5.2567    9.3673   25.1105 H   0  0  0  0  0  0  0  0  0  0  0  0
  8  9  1  0  0  0
  9 10  2  0  0  0
  9  7  1  0  0  0
  7 12  1  0  0  0
 12 13  1  0  0  0
 13 14  2  0  0  0
 14 15  1  0  0  0
 15 16  2  0  0  0
 16 17  1  0  0  0
 17 18  2  0  0  0
  7  6  1  0  0  0
  6  2  1  0  0  0
  2  3  1  0  0  0
  2  4  2  0  0  0
  2  1  1  0  0  0
  1 19  1  0  0  0
 19 20  1  0  0  0
 20 21  2  0  0  0
 21 22  1  0  0  0
 22 23  2  0  0  0
 23 24  1  0  0  0
 24 25  2  0  0  0
  1 26  1  0  0  0
 26 27  1  0  0  0
 27 28  1  0  0  0
 27 29  2  0  0  0
 27 31  1  0  0  0
 31 32  1  0  0  0
 32 33  1  0  0  0
 32 34  2  0  0  0
 18 13  1  0  0  0
 25 20  1  0  0  0
  8 11  1  0  0  0
  3  5  1  0  0  0
 28 30  1  0  0  0
 33 35  1  0  0  0
M  END
> <minimizedAffinity>
-8.56912

> <CNNscore>
0.3042880595

> <CNNaffinity>
5.5531978607

> <CNN_VS>
1.6897717714

> <CNNaffinity_variance>
0.2726484835

$$$$
[H]OC(=O)C([H])(C([H])([H])c1c([H])c([H])c([H])c([H])c1[H])C([H])([H])P(=O)(O[H])C([H])(C([H])([H])c1c([H])c([H])c([H])c([H])c1[H])C([H])([H])P(=O)(O[H])C([H])([H])C(=O)O[H]


 35 36  0  0  0  0  0  0  0  0999 V2000
    4.2455    5.4277   17.0988 C   0  0  0  0  0  0  0  0  0  0  0  0
    4.1951    5.9090   18.8106 P   0  0  0  0  0  0  0  0  0  0  0  0
    4.1250    7.6357   18.8784 O   0  0  0  0  0  0  0  0  0  0  0  0
    2.8705    5.4879   19.4781 O   0  0  0  0  0  0  0  0  0  0  0  0
    4.7740    7.9622   18.2195 H   0  0  0  0  0  0  0  0  0  0  0  0
    5.5956    5.3301   19.7412 C   0  0  0  0  0  0  0  0  0  0  0  0
    5.4347    5.2240   21.2220 C   0  0  0  0  0  0  0  0  0  0  0  0
    4.3979    7.3993   21.9963 O   0  0  0  0  0  0  0  0  0  0  0  0
    5.4560    6.4934   21.9557 C   0  0  0  0  0  0  0  0  0  0  0  0
    6.4756    6.8744   22.6319 O   0  0  0  0  0  0  0  0  0  0  0  0
    4.5165    8.3916   22.0490 H   0  0  0  0  0  0  0  0  0  0  0  0
    6.2250    4.1103   21.8449 C   0  0  0  0  0  0  0  0  0  0  0  0
    5.4838    2.8194   21.7254 C   0  0  0  0  0  0  0  0  0  0  0  0
    6.0969    1.7076   21.1967 C   0  0  0  0  0  0  0  0  0  0  0  0
    5.4125    0.5298   21.0936 C   0  0  0  0  0  0  0  0  0  0  0  0
    4.1082    0.4546   21.5187 C   0  0  0  0  0  0  0  0  0  0  0  0
    3.4883    1.5774   22.0528 C   0  0  0  0  0  0  0  0  0  0  0  0
    4.1945    2.7602   22.1500 C   0  0  0  0  0  0  0  0  0  0  0  0
    4.9543    4.1885   16.7089 C   0  0  0  0  0  0  0  0  0  0  0  0
    4.2625    2.9174   16.6714 C   0  0  0  0  0  0  0  0  0  0  0  0
    4.1985    2.1408   17.8451 C   0  0  0  0  0  0  0  0  0  0  0  0
    3.5189    0.9494   17.9190 C   0  0  0  0  0  0  0  0  0  0  0  0
    2.8479    0.4337   16.8333 C   0  0  0  0  0  0  0  0  0  0  0  0
    2.8880    1.1666   15.6681 C   0  0  0  0  0  0  0  0  0  0  0  0
    3.5797    2.3662   15.6174 C   0  0  0  0  0  0  0  0  0  0  0  0
    2.8824    5.5049   16.4073 C   0  0  0  0  0  0  0  0  0  0  0  0
    3.0294    6.3656   14.8419 P   0  0  0  0  0  0  0  0  0  0  0  0
    1.5628    7.1433   14.4277 O   0  0  0  0  0  0  0  0  0  0  0  0
    3.5169    5.5005   13.7200 O   0  0  0  0  0  0  0  0  0  0  0  0
    1.1239    7.4352   15.2730 H   0  0  0  0  0  0  0  0  0  0  0  0
    4.2395    7.7422   14.9816 C   0  0  0  0  0  0  0  0  0  0  0  0
    3.4613    8.9338   15.4082 C   0  0  0  0  0  0  0  0  0  0  0  0
    3.3649    9.3399   16.7295 O   0  0  0  0  0  0  0  0  0  0  0  0
    2.8434    9.6371   14.5562 O   0  0  0  0  0  0  0  0  0  0  0  0
    4.0046    9.9954   17.1615 H   0  0  0  0  0  0  0  0  0  0  0  0
  8  9  1  0  0  0
  9 10  2  0  0  0
  9  7  1  0  0  0
  7 12  1  0  0  0
 12 13  1  0  0  0
 13 14  2  0  0  0
 14 15  1  0  0  0
 15 16  2  0  0  0
 16 17  1  0  0  0
 17 18  2  0  0  0
  7  6  1  0  0  0
  6  2  1  0  0  0
  2  3  1  0  0  0
  2  4  2  0  0  0
  2  1  1  0  0  0
  1 19  1  0  0  0
 19 20  1  0  0  0
 20 21  2  0  0  0
 21 22  1  0  0  0
 22 23  2  0  0  0
 23 24  1  0  0  0
 24 25  2  0  0  0
  1 26  1  0  0  0
 26 27  1  0  0  0
 27 28  1  0  0  0
 27 29  2  0  0  0
 27 31  1  0  0  0
 31 32  1  0  0  0
 32 33  1  0  0  0
 32 34  2  0  0  0
 18 13  1  0  0  0
 25 20  1  0  0  0
  8 11  1  0  0  0
  3  5  1  0  0  0
 28 30  1  0  0  0
 33 35  1  0  0  0
M  END
> <minimizedAffinity>
-8.35387

> <CNNscore>
0.3028048277

> <CNNaffinity>
5.3206338882

> <CNN_VS>
1.6111136675

> <CNNaffinity_variance>
0.5288331509

$$$$
[H]OC(=O)C([H])(C([H])([H])c1c([H])c([H])c([H])c([H])c1[H])C([H])([H])P(=O)(O[H])C([H])(C([H])([H])c1c([H])c([H])c([H])c([H])c1[H])C([H])([H])P(=O)(O[H])C([H])([H])C(=O)O[H]


 35 36  0  0  0  0  0  0  0  0999 V2000
    5.0727    5.6042   17.8306 C   0  0  0  0  0  0  0  0  0  0  0  0
    3.6489    5.5492   18.8956 P   0  0  0  0  0  0  0  0  0  0  0  0
    3.3743    7.1447   19.5035 O   0  0  0  0  0  0  0  0  0  0  0  0
    2.3591    5.2606   18.1016 O   0  0  0  0  0  0  0  0  0  0  0  0
    4.2543    7.4968   19.7560 H   0  0  0  0  0  0  0  0  0  0  0  0
    3.8344    4.4154   20.2530 C   0  0  0  0  0  0  0  0  0  0  0  0
    3.9347    5.0010   21.6230 C   0  0  0  0  0  0  0  0  0  0  0  0
    4.4303    7.4421   22.0727 O   0  0  0  0  0  0  0  0  0  0  0  0
    4.8390    6.1473   21.7590 C   0  0  0  0  0  0  0  0  0  0  0  0
    6.1055    6.0414   21.5953 O   0  0  0  0  0  0  0  0  0  0  0  0
    4.8761    8.2667   21.7226 H   0  0  0  0  0  0  0  0  0  0  0  0
    4.0245    3.9801   22.7197 C   0  0  0  0  0  0  0  0  0  0  0  0
    4.5648    2.6939   22.1871 C   0  0  0  0  0  0  0  0  0  0  0  0
    5.9088    2.5526   21.9315 C   0  0  0  0  0  0  0  0  0  0  0  0
    6.3951    1.3715   21.4471 C   0  0  0  0  0  0  0  0  0  0  0  0
    5.5403    0.3215   21.2140 C   0  0  0  0  0  0  0  0  0  0  0  0
    4.1827    0.4636   21.4718 C   0  0  0  0  0  0  0  0  0  0  0  0
    3.7074    1.6643   21.9615 C   0  0  0  0  0  0  0  0  0  0  0  0
    5.6199    4.3455   17.2768 C   0  0  0  0  0  0  0  0  0  0  0  0
    4.7663    3.1967   17.0594 C   0  0  0  0  0  0  0  0  0  0  0  0
    4.0283    3.1121   15.8623 C   0  0  0  0  0  0  0  0  0  0  0  0
    3.2356    2.0360   15.5453 C   0  0  0  0  0  0  0  0  0  0  0  0
    3.1124    0.9574   16.3916 C   0  0  0  0  0  0  0  0  0  0  0  0
    3.8205    1.0049   17.5718 C   0  0  0  0  0  0  0  0  0  0  0  0
    4.6142    2.1009   17.8699 C   0  0  0  0  0  0  0  0  0  0  0  0
    4.9709    6.6704   16.7374 C   0  0  0  0  0  0  0  0  0  0  0  0
    5.9384    8.1114   17.1851 P   0  0  0  0  0  0  0  0  0  0  0  0
    4.9854    9.2532   18.0309 O   0  0  0  0  0  0  0  0  0  0  0  0
    6.6438    8.7491   16.0275 O   0  0  0  0  0  0  0  0  0  0  0  0
    4.3117    8.7508   18.5656 H   0  0  0  0  0  0  0  0  0  0  0  0
    7.2516    7.6506   18.3859 C   0  0  0  0  0  0  0  0  0  0  0  0
    7.3019    8.7499   19.3842 C   0  0  0  0  0  0  0  0  0  0  0  0
    6.7222    8.6579   20.6394 O   0  0  0  0  0  0  0  0  0  0  0  0
    7.8919    9.8369   19.1145 O   0  0  0  0  0  0  0  0  0  0  0  0
    7.2114    8.3174   21.4581 H   0  0  0  0  0  0  0  0  0  0  0  0
  8  9  1  0  0  0
  9 10  2  0  0  0
  9  7  1  0  0  0
  7 12  1  0  0  0
 12 13  1  0  0  0
 13 14  2  0  0  0
 14 15  1  0  0  0
 15 16  2  0  0  0
 16 17  1  0  0  0
 17 18  2  0  0  0
  7  6  1  0  0  0
  6  2  1  0  0  0
  2  3  1  0  0  0
  2  4  2  0  0  0
  2  1  1  0  0  0
  1 19  1  0  0  0
 19 20  1  0  0  0
 20 21  2  0  0  0
 21 22  1  0  0  0
 22 23  2  0  0  0
 23 24  1  0  0  0
 24 25  2  0  0  0
  1 26  1  0  0  0
 26 27  1  0  0  0
 27 28  1  0  0  0
 27 29  2  0  0  0
 27 31  1  0  0  0
 31 32  1  0  0  0
 32 33  1  0  0  0
 32 34  2  0  0  0
 18 13  1  0  0  0
 25 20  1  0  0  0
  8 11  1  0  0  0
  3  5  1  0  0  0
 28 30  1  0  0  0
 33 35  1  0  0  0
M  END
> <minimizedAffinity>
-8.42771

> <CNNscore>
0.2969329357

> <CNNaffinity>
5.4890570641

> <CNN_VS>
1.6298818588

> <CNNaffinity_variance>
0.3334773183

$$$$
[H]OC(=O)C([H])(C([H])([H])c1c([H])c([H])c([H])c([H])c1[H])C([H])([H])P(=O)(O[H])C([H])(C([H])([H])c1c([H])c([H])c([H])c([H])c1[H])C([H])([H])P(=O)(O[H])C([H])([H])C(=O)O[H]


 35 36  0  0  0  0  0  0  0  0999 V2000
    5.7594    5.1582   22.1604 C   0  0  0  0  0  0  0  0  0  0  0  0
    4.6808    5.5869   20.8123 P   0  0  0  0  0  0  0  0  0  0  0  0
    3.0706    5.7031   21.4323 O   0  0  0  0  0  0  0  0  0  0  0  0
    4.9533    7.0162   20.3020 O   0  0  0  0  0  0  0  0  0  0  0  0
    2.9503    4.9333   22.0281 H   0  0  0  0  0  0  0  0  0  0  0  0
    4.7254    4.4100   19.4798 C   0  0  0  0  0  0  0  0  0  0  0  0
    4.6958    4.9522   18.0887 C   0  0  0  0  0  0  0  0  0  0  0  0
    3.3251    6.6939   16.8665 O   0  0  0  0  0  0  0  0  0  0  0  0
    3.4289    5.5611   17.6712 C   0  0  0  0  0  0  0  0  0  0  0  0
    2.2930    5.0845   18.0244 O   0  0  0  0  0  0  0  0  0  0  0  0
    2.5963    7.3741   16.9542 H   0  0  0  0  0  0  0  0  0  0  0  0
    5.3445    4.0602   17.0706 C   0  0  0  0  0  0  0  0  0  0  0  0
    4.4752    2.8796   16.7873 C   0  0  0  0  0  0  0  0  0  0  0  0
    4.3769    1.8501   17.6940 C   0  0  0  0  0  0  0  0  0  0  0  0
    3.5770    0.7751   17.4283 C   0  0  0  0  0  0  0  0  0  0  0  0
    2.8686    0.7209   16.2524 C   0  0  0  0  0  0  0  0  0  0  0  0
    2.9675    1.7604   15.3360 C   0  0  0  0  0  0  0  0  0  0  0  0
    3.7806    2.8400   15.6203 C   0  0  0  0  0  0  0  0  0  0  0  0
    5.4693    3.9568   22.9744 C   0  0  0  0  0  0  0  0  0  0  0  0
    5.1991    2.6811   22.3458 C   0  0  0  0  0  0  0  0  0  0  0  0
    3.8840    2.1760   22.3654 C   0  0  0  0  0  0  0  0  0  0  0  0
    3.5228    1.0026   21.7493 C   0  0  0  0  0  0  0  0  0  0  0  0
    4.4386    0.2368   21.0640 C   0  0  0  0  0  0  0  0  0  0  0  0
    5.7348    0.7001   21.0230 C   0  0  0  0  0  0  0  0  0  0  0  0
    6.0756    1.8870   21.6517 C   0  0  0  0  0  0  0  0  0  0  0  0
    7.2431    5.2075   21.7885 C   0  0  0  0  0  0  0  0  0  0  0  0
    8.0343    6.6074   22.5806 P   0  0  0  0  0  0  0  0  0  0  0  0
    8.9663    6.1070   23.9253 O   0  0  0  0  0  0  0  0  0  0  0  0
    7.0855    7.7032   22.9593 O   0  0  0  0  0  0  0  0  0  0  0  0
    9.3324    5.2031   23.7224 H   0  0  0  0  0  0  0  0  0  0  0  0
    9.2629    7.3717   21.4469 C   0  0  0  0  0  0  0  0  0  0  0  0
    8.5190    7.7249   20.2101 C   0  0  0  0  0  0  0  0  0  0  0  0
    7.4277    8.5787   20.2025 O   0  0  0  0  0  0  0  0  0  0  0  0
    8.8664    7.2448   19.0916 O   0  0  0  0  0  0  0  0  0  0  0  0
    7.5011    9.5795   20.0661 H   0  0  0  0  0  0  0  0  0  0  0  0
  8  9  1  0  0  0
  9 10  2  0  0  0
  9  7  1  0  0  0
  7 12  1  0  0  0
 12 13  1  0  0  0
 13 14  2  0  0  0
 14 15  1  0  0  0
 15 16  2  0  0  0
 16 17  1  0  0  0
 17 18  2  0  0  0
  7  6  1  0  0  0
  6  2  1  0  0  0
  2  3  1  0  0  0
  2  4  2  0  0  0
  2  1  1  0  0  0
  1 19  1  0  0  0
 19 20  1  0  0  0
 20 21  2  0  0  0
 21 22  1  0  0  0
 22 23  2  0  0  0
 23 24  1  0  0  0
 24 25  2  0  0  0
  1 26  1  0  0  0
 26 27  1  0  0  0
 27 28  1  0  0  0
 27 29  2  0  0  0
 27 31  1  0  0  0
 31 32  1  0  0  0
 32 33  1  0  0  0
 32 34  2  0  0  0
 18 13  1  0  0  0
 25 20  1  0  0  0
  8 11  1  0  0  0
  3  5  1  0  0  0
 28 30  1  0  0  0
 33 35  1  0  0  0
M  END
> <minimizedAffinity>
-8.27633

> <CNNscore>
0.2604883611

> <CNNaffinity>
5.5043606758

> <CNN_VS>
1.4338219166

> <CNNaffinity_variance>
0.4053175449

$$$$
[H]OC(=O)C([H])(C([H])([H])c1c([H])c([H])c([H])c([H])c1[H])C([H])([H])P(=O)(O[H])C([H])(C([H])([H])c1c([H])c([H])c([H])c([H])c1[H])C([H])([H])P(=O)(O[H])C([H])([H])C(=O)O[H]


 35 36  0  0  0  0  0  0  0  0999 V2000
    3.8994    5.0958   17.0298 C   0  0  0  0  0  0  0  0  0  0  0  0
    3.9357    6.2263   18.4027 P   0  0  0  0  0  0  0  0  0  0  0  0
    3.4948    7.7927   17.8170 O   0  0  0  0  0  0  0  0  0  0  0  0
    2.8194    5.9167   19.4204 O   0  0  0  0  0  0  0  0  0  0  0  0
    3.9783    7.9152   16.9724 H   0  0  0  0  0  0  0  0  0  0  0  0
    5.5241    6.3100   19.1979 C   0  0  0  0  0  0  0  0  0  0  0  0
    5.5379    6.5400   20.6733 C   0  0  0  0  0  0  0  0  0  0  0  0
    4.4856    8.4863   21.9027 O   0  0  0  0  0  0  0  0  0  0  0  0
    5.4849    7.9426   21.0979 C   0  0  0  0  0  0  0  0  0  0  0  0
    6.3767    8.7951   20.7517 O   0  0  0  0  0  0  0  0  0  0  0  0
    4.1536    9.4266   21.8189 H   0  0  0  0  0  0  0  0  0  0  0  0
    6.5192    5.6818   21.4170 C   0  0  0  0  0  0  0  0  0  0  0  0
    5.8000    4.6405   22.2098 C   0  0  0  0  0  0  0  0  0  0  0  0
    4.5395    4.8841   22.7032 C   0  0  0  0  0  0  0  0  0  0  0  0
    3.8874    3.9250   23.4250 C   0  0  0  0  0  0  0  0  0  0  0  0
    4.4915    2.7136   23.6596 C   0  0  0  0  0  0  0  0  0  0  0  0
    5.7648    2.4669   23.1616 C   0  0  0  0  0  0  0  0  0  0  0  0
    6.4100    3.4473   22.4337 C   0  0  0  0  0  0  0  0  0  0  0  0
    4.7481    3.8836   17.0589 C   0  0  0  0  0  0  0  0  0  0  0  0
    4.3505    2.7166   17.8176 C   0  0  0  0  0  0  0  0  0  0  0  0
    4.5605    2.7046   19.2106 C   0  0  0  0  0  0  0  0  0  0  0  0
    4.1672    1.6658   20.0187 C   0  0  0  0  0  0  0  0  0  0  0  0
    3.5334    0.5556   19.5082 C   0  0  0  0  0  0  0  0  0  0  0  0
    3.3104    0.5327   18.1494 C   0  0  0  0  0  0  0  0  0  0  0  0
    3.7159    1.5926   17.3542 C   0  0  0  0  0  0  0  0  0  0  0  0
    2.4822    4.7460   16.5701 C   0  0  0  0  0  0  0  0  0  0  0  0
    2.1672    5.4420   14.9485 P   0  0  0  0  0  0  0  0  0  0  0  0
    0.7420    6.3887   14.9520 O   0  0  0  0  0  0  0  0  0  0  0  0
    2.1362    4.4242   13.8496 O   0  0  0  0  0  0  0  0  0  0  0  0
    0.6597    6.8113   15.8503 H   0  0  0  0  0  0  0  0  0  0  0  0
    3.4922    6.6334   14.4970 C   0  0  0  0  0  0  0  0  0  0  0  0
    2.8103    7.9254   14.2262 C   0  0  0  0  0  0  0  0  0  0  0  0
    2.5664    8.8716   15.2086 O   0  0  0  0  0  0  0  0  0  0  0  0
    2.4186    8.2132   13.0573 O   0  0  0  0  0  0  0  0  0  0  0  0
    3.2091    9.6205   15.4362 H   0  0  0  0  0  0  0  0  0  0  0  0
  8  9  1  0  0  0
  9 10  2  0  0  0
  9  7  1  0  0  0
  7 12  1  0  0  0
 12 13  1  0  0  0
 13 14  2  0  0  0
 14 15  1  0  0  0
 15 16  2  0  0  0
 16 17  1  0  0  0
 17 18  2  0  0  0
  7  6  1  0  0  0
  6  2  1  0  0  0
  2  3  1  0  0  0
  2  4  2  0  0  0
  2  1  1  0  0  0
  1 19  1  0  0  0
 19 20  1  0  0  0
 20 21  2  0  0  0
 21 22  1  0  0  0
 22 23  2  0  0  0
 23 24  1  0  0  0
 24 25  2  0  0  0
  1 26  1  0  0  0
 26 27  1  0  0  0
 27 28  1  0  0  0
 27 29  2  0  0  0
 27 31  1  0  0  0
 31 32  1  0  0  0
 32 33  1  0  0  0
 32 34  2  0  0  0
 18 13  1  0  0  0
 25 20  1  0  0  0
  8 11  1  0  0  0
  3  5  1  0  0  0
 28 30  1  0  0  0
 33 35  1  0  0  0
M  END
> <minimizedAffinity>
-8.38860

> <CNNscore>
0.2409030348

> <CNNaffinity>
5.1985735893

> <CNN_VS>
1.2523521185

> <CNNaffinity_variance>
0.5216975212

$$$$
[H]OC(=O)C([H])(C([H])([H])c1c([H])c([H])c([H])c([H])c1[H])C([H])([H])P(=O)(O[H])C([H])(C([H])([H])c1c([H])c([H])c([H])c([H])c1[H])C([H])([H])P(=O)(O[H])C([H])([H])C(=O)O[H]


 35 36  0  0  0  0  0  0  0  0999 V2000
    5.3414    5.7327   19.6193 C   0  0  0  0  0  0  0  0  0  0  0  0
    5.5620    5.7517   21.3844 P   0  0  0  0  0  0  0  0  0  0  0  0
    6.6306    7.0541   21.7754 O   0  0  0  0  0  0  0  0  0  0  0  0
    4.2619    6.1475   22.1129 O   0  0  0  0  0  0  0  0  0  0  0  0
    7.3564    7.0199   21.1166 H   0  0  0  0  0  0  0  0  0  0  0  0
    6.2176    4.2273   22.0237 C   0  0  0  0  0  0  0  0  0  0  0  0
    5.2550    3.1054   22.2348 C   0  0  0  0  0  0  0  0  0  0  0  0
    3.5719    3.9313   23.9353 O   0  0  0  0  0  0  0  0  0  0  0  0
    4.5966    3.0715   23.5446 C   0  0  0  0  0  0  0  0  0  0  0  0
    4.9226    2.2268   24.4513 O   0  0  0  0  0  0  0  0  0  0  0  0
    3.4454    4.2564   24.8733 H   0  0  0  0  0  0  0  0  0  0  0  0
    5.7405    1.7790   21.7270 C   0  0  0  0  0  0  0  0  0  0  0  0
    4.6811    1.1188   20.9073 C   0  0  0  0  0  0  0  0  0  0  0  0
    3.8539    0.1722   21.4651 C   0  0  0  0  0  0  0  0  0  0  0  0
    2.8855   -0.4248   20.7088 C   0  0  0  0  0  0  0  0  0  0  0  0
    2.7366   -0.0795   19.3874 C   0  0  0  0  0  0  0  0  0  0  0  0
    3.5719    0.8766   18.8233 C   0  0  0  0  0  0  0  0  0  0  0  0
    4.5458    1.4705   19.6019 C   0  0  0  0  0  0  0  0  0  0  0  0
    3.9841    5.5629   19.0544 C   0  0  0  0  0  0  0  0  0  0  0  0
    3.7644    4.7412   17.8830 C   0  0  0  0  0  0  0  0  0  0  0  0
    4.8601    4.0698   17.3055 C   0  0  0  0  0  0  0  0  0  0  0  0
    4.7390    3.2271   16.2276 C   0  0  0  0  0  0  0  0  0  0  0  0
    3.5198    2.9832   15.6368 C   0  0  0  0  0  0  0  0  0  0  0  0
    2.4253    3.6222   16.1755 C   0  0  0  0  0  0  0  0  0  0  0  0
    2.5719    4.4677   17.2635 C   0  0  0  0  0  0  0  0  0  0  0  0
    6.0811    6.8656   18.9040 C   0  0  0  0  0  0  0  0  0  0  0  0
    5.0651    8.3419   18.8659 P   0  0  0  0  0  0  0  0  0  0  0  0
    4.2636    8.5754   20.3594 O   0  0  0  0  0  0  0  0  0  0  0  0
    4.0977    8.3804   17.7226 O   0  0  0  0  0  0  0  0  0  0  0  0
    4.8595    8.2342   21.0811 H   0  0  0  0  0  0  0  0  0  0  0  0
    6.1188    9.8374   18.6873 C   0  0  0  0  0  0  0  0  0  0  0  0
    7.0571    9.5501   17.5717 C   0  0  0  0  0  0  0  0  0  0  0  0
    8.3451    9.0793   17.7698 O   0  0  0  0  0  0  0  0  0  0  0  0
    6.7019    9.7307   16.3702 O   0  0  0  0  0  0  0  0  0  0  0  0
    8.5822    8.0953   17.8035 H   0  0  0  0  0  0  0  0  0  0  0  0
  8  9  1  0  0  0
  9 10  2  0  0  0
  9  7  1  0  0  0
  7 12  1  0  0  0
 12 13  1  0  0  0
 13 14  2  0  0  0
 14 15  1  0  0  0
 15 16  2  0  0  0
 16 17  1  0  0  0
 17 18  2  0  0  0
  7  6  1  0  0  0
  6  2  1  0  0  0
  2  3  1  0  0  0
  2  4  2  0  0  0
  2  1  1  0  0  0
  1 19  1  0  0  0
 19 20  1  0  0  0
 20 21  2  0  0  0
 21 22  1  0  0  0
 22 23  2  0  0  0
 23 24  1  0  0  0
 24 25  2  0  0  0
  1 26  1  0  0  0
 26 27  1  0  0  0
 27 28  1  0  0  0
 27 29  2  0  0  0
 27 31  1  0  0  0
 31 32  1  0  0  0
 32 33  1  0  0  0
 32 34  2  0  0  0
 18 13  1  0  0  0
 25 20  1  0  0  0
  8 11  1  0  0  0
  3  5  1  0  0  0
 28 30  1  0  0  0
 33 35  1  0  0  0
M  END
> <minimizedAffinity>
-7.69342

> <CNNscore>
0.2245794237

> <CNNaffinity>
5.3948392868

> <CNN_VS>
1.2115699053

> <CNNaffinity_variance>
0.2900694013

$$$$
[H]OC(=O)C([H])(C([H])([H])c1c([H])c([H])c([H])c([H])c1[H])C([H])([H])P(=O)(O[H])C([H])(C([H])([H])c1c([H])c([H])c([H])c([H])c1[H])C([H])([H])P(=O)(O[H])C([H])([H])C(=O)O[H]


 35 36  0  0  0  0  0  0  0  0999 V2000
    5.1476    5.5611   19.6311 C   0  0  0  0  0  0  0  0  0  0  0  0
    4.3306    6.2837   18.2258 P   0  0  0  0  0  0  0  0  0  0  0  0
    2.6246    6.1154   18.4547 O   0  0  0  0  0  0  0  0  0  0  0  0
    4.5196    7.8135   18.1861 O   0  0  0  0  0  0  0  0  0  0  0  0
    2.4811    5.2023   18.7827 H   0  0  0  0  0  0  0  0  0  0  0  0
    4.8036    5.5380   16.6822 C   0  0  0  0  0  0  0  0  0  0  0  0
    3.9741    5.8638   15.4840 C   0  0  0  0  0  0  0  0  0  0  0  0
    5.2251    8.0198   15.0445 O   0  0  0  0  0  0  0  0  0  0  0  0
    4.0666    7.2464   15.0044 C   0  0  0  0  0  0  0  0  0  0  0  0
    3.0630    7.8628   14.4995 O   0  0  0  0  0  0  0  0  0  0  0  0
    5.2285    9.0102   15.1880 H   0  0  0  0  0  0  0  0  0  0  0  0
    2.5872    5.2914   15.5261 C   0  0  0  0  0  0  0  0  0  0  0  0
    2.6407    3.7999   15.4750 C   0  0  0  0  0  0  0  0  0  0  0  0
    2.3843    3.0522   16.6006 C   0  0  0  0  0  0  0  0  0  0  0  0
    2.4325    1.6881   16.5444 C   0  0  0  0  0  0  0  0  0  0  0  0
    2.7379    1.0604   15.3611 C   0  0  0  0  0  0  0  0  0  0  0  0
    2.9970    1.8151   14.2238 C   0  0  0  0  0  0  0  0  0  0  0  0
    2.9440    3.1932   14.2978 C   0  0  0  0  0  0  0  0  0  0  0  0
    5.5597    4.1404   19.5858 C   0  0  0  0  0  0  0  0  0  0  0  0
    4.8176    3.1283   20.3074 C   0  0  0  0  0  0  0  0  0  0  0  0
    4.4574    1.9410   19.6401 C   0  0  0  0  0  0  0  0  0  0  0  0
    3.8015    0.9039   20.2575 C   0  0  0  0  0  0  0  0  0  0  0  0
    3.4508    0.9627   21.5873 C   0  0  0  0  0  0  0  0  0  0  0  0
    3.7877    2.1089   22.2724 C   0  0  0  0  0  0  0  0  0  0  0  0
    4.4498    3.1419   21.6285 C   0  0  0  0  0  0  0  0  0  0  0  0
    6.2791    6.4292   20.1866 C   0  0  0  0  0  0  0  0  0  0  0  0
    5.6729    7.4548   21.5258 P   0  0  0  0  0  0  0  0  0  0  0  0
    4.2418    6.8031   22.2001 O   0  0  0  0  0  0  0  0  0  0  0  0
    5.4856    8.8926   21.1488 O   0  0  0  0  0  0  0  0  0  0  0  0
    4.3008    5.8106   22.1382 H   0  0  0  0  0  0  0  0  0  0  0  0
    6.8662    7.4500   22.9240 C   0  0  0  0  0  0  0  0  0  0  0  0
    6.9909    8.8635   23.3646 C   0  0  0  0  0  0  0  0  0  0  0  0
    5.9462    9.5716   23.9366 O   0  0  0  0  0  0  0  0  0  0  0  0
    8.0851    9.4853   23.2288 O   0  0  0  0  0  0  0  0  0  0  0  0
    5.7737    9.6067   24.9339 H   0  0  0  0  0  0  0  0  0  0  0  0
  8  9  1  0  0  0
  9 10  2  0  0  0
  9  7  1  0  0  0
  7 12  1  0  0  0
 12 13  1  0  0  0
 13 14  2  0  0  0
 14 15  1  0  0  0
 15 16  2  0  0  0
 16 17  1  0  0  0
 17 18  2  0  0  0
  7  6  1  0  0  0
  6  2  1  0  0  0
  2  3  1  0  0  0
  2  4  2  0  0  0
  2  1  1  0  0  0
  1 19  1  0  0  0
 19 20  1  0  0  0
 20 21  2  0  0  0
 21 22  1  0  0  0
 22 23  2  0  0  0
 23 24  1  0  0  0
 24 25  2  0  0  0
  1 26  1  0  0  0
 26 27  1  0  0  0
 27 28  1  0  0  0
 27 29  2  0  0  0
 27 31  1  0  0  0
 31 32  1  0  0  0
 32 33  1  0  0  0
 32 34  2  0  0  0
 18 13  1  0  0  0
 25 20  1  0  0  0
  8 11  1  0  0  0
  3  5  1  0  0  0
 28 30  1  0  0  0
 33 35  1  0  0  0
M  END
> <minimizedAffinity>
-7.40004

> <CNNscore>
0.2172315866

> <CNNaffinity>
5.3716444969

> <CNN_VS>
1.1668908596

> <CNNaffinity_variance>
0.1926475465

$$$$
[H]OC(=O)C([H])(C([H])([H])c1c([H])c([H])c([H])c([H])c1[H])C([H])([H])P(=O)(O[H])C([H])(C([H])([H])c1c([H])c([H])c([H])c([H])c1[H])C([H])([H])P(=O)(O[H])C([H])([H])C(=O)O[H]


 35 36  0  0  0  0  0  0  0  0999 V2000
    4.1694    5.2729   16.8086 C   0  0  0  0  0  0  0  0  0  0  0  0
    4.0207    6.3146   18.2429 P   0  0  0  0  0  0  0  0  0  0  0  0
    3.6333    7.9121   17.7053 O   0  0  0  0  0  0  0  0  0  0  0  0
    2.7922    5.9343   19.0937 O   0  0  0  0  0  0  0  0  0  0  0  0
    4.2152    8.0908   16.9362 H   0  0  0  0  0  0  0  0  0  0  0  0
    5.4980    6.3579   19.2318 C   0  0  0  0  0  0  0  0  0  0  0  0
    5.3407    6.6848   20.6804 C   0  0  0  0  0  0  0  0  0  0  0  0
    4.4905    8.5466   22.1694 O   0  0  0  0  0  0  0  0  0  0  0  0
    5.0749    8.0936   20.9883 C   0  0  0  0  0  0  0  0  0  0  0  0
    5.3679    9.0379   20.1731 O   0  0  0  0  0  0  0  0  0  0  0  0
    3.8895    9.3450   22.2224 H   0  0  0  0  0  0  0  0  0  0  0  0
    6.3435    6.0120   21.5718 C   0  0  0  0  0  0  0  0  0  0  0  0
    5.7200    4.8456   22.2651 C   0  0  0  0  0  0  0  0  0  0  0  0
    6.4014    3.6568   22.3838 C   0  0  0  0  0  0  0  0  0  0  0  0
    5.8248    2.5955   23.0221 C   0  0  0  0  0  0  0  0  0  0  0  0
    4.5608    2.7149   23.5471 C   0  0  0  0  0  0  0  0  0  0  0  0
    3.8719    3.9154   23.4275 C   0  0  0  0  0  0  0  0  0  0  0  0
    4.4695    4.9785   22.7793 C   0  0  0  0  0  0  0  0  0  0  0  0
    4.9910    4.0440   16.8802 C   0  0  0  0  0  0  0  0  0  0  0  0
    4.5428    2.8938   17.6364 C   0  0  0  0  0  0  0  0  0  0  0  0
    4.7686    2.8613   19.0266 C   0  0  0  0  0  0  0  0  0  0  0  0
    4.3318    1.8386   19.8329 C   0  0  0  0  0  0  0  0  0  0  0  0
    3.6355    0.7662   19.3233 C   0  0  0  0  0  0  0  0  0  0  0  0
    3.3954    0.7643   17.9673 C   0  0  0  0  0  0  0  0  0  0  0  0
    3.8454    1.8073   17.1738 C   0  0  0  0  0  0  0  0  0  0  0  0
    2.8290    4.9818   16.1296 C   0  0  0  0  0  0  0  0  0  0  0  0
    2.8122    5.6661   14.4729 P   0  0  0  0  0  0  0  0  0  0  0  0
    4.2694    5.3154   13.6480 O   0  0  0  0  0  0  0  0  0  0  0  0
    2.5059    7.1320   14.4276 O   0  0  0  0  0  0  0  0  0  0  0  0
    4.5918    4.4273   13.9639 H   0  0  0  0  0  0  0  0  0  0  0  0
    1.5172    4.8474   13.4573 C   0  0  0  0  0  0  0  0  0  0  0  0
    0.6040    5.9282   13.0039 C   0  0  0  0  0  0  0  0  0  0  0  0
    0.9487    6.8486   12.0272 O   0  0  0  0  0  0  0  0  0  0  0  0
   -0.5509    6.0478   13.5083 O   0  0  0  0  0  0  0  0  0  0  0  0
    0.7655    6.7127   11.0406 H   0  0  0  0  0  0  0  0  0  0  0  0
  8  9  1  0  0  0
  9 10  2  0  0  0
  9  7  1  0  0  0
  7 12  1  0  0  0
 12 13  1  0  0  0
 13 14  2  0  0  0
 14 15  1  0  0  0
 15 16  2  0  0  0
 16 17  1  0  0  0
 17 18  2  0  0  0
  7  6  1  0  0  0
  6  2  1  0  0  0
  2  3  1  0  0  0
  2  4  2  0  0  0
  2  1  1  0  0  0
  1 19  1  0  0  0
 19 20  1  0  0  0
 20 21  2  0  0  0
 21 22  1  0  0  0
 22 23  2  0  0  0
 23 24  1  0  0  0
 24 25  2  0  0  0
  1 26  1  0  0  0
 26 27  1  0  0  0
 27 28  1  0  0  0
 27 29  2  0  0  0
 27 31  1  0  0  0
 31 32  1  0  0  0
 32 33  1  0  0  0
 32 34  2  0  0  0
 18 13  1  0  0  0
 25 20  1  0  0  0
  8 11  1  0  0  0
  3  5  1  0  0  0
 28 30  1  0  0  0
 33 35  1  0  0  0
M  END
> <minimizedAffinity>
-7.91524

> <CNNscore>
0.1885979325

> <CNNaffinity>
5.0324158669

> <CNN_VS>
0.9491032362

> <CNNaffinity_variance>
0.3809086680

$$$$
[H]c1nc(N([H])c2c([H])c([H])c(-n3c([H])nc([H])c3[H])c([H])c2OC([H])([H])[H])nc2c1C([H])([H])C([H])([H])c1c(C(=O)N([H])[H])nn(C([H])([H])[H])c1-2


 34 38  0  0  0  0  0  0  0  0999 V2000
    3.2800    1.0218   16.7040 C   0  0  0  0  0  0  0  0  0  0  0  0
    2.6337   -0.0670   17.0694 N   0  0  0  0  0  0  0  0  0  0  0  0
    2.4373   -0.4793   18.3132 C   0  0  0  0  0  0  0  0  0  0  0  0
    2.9712    0.3238   19.3559 C   0  0  0  0  0  0  0  0  0  0  0  0
    2.7561   -0.1007   20.7391 C   0  0  0  0  0  0  0  0  0  0  0  0
    3.3765    0.7180   21.7708 C   0  0  0  0  0  0  0  0  0  0  0  0
    4.0752    1.9324   21.3587 C   0  0  0  0  0  0  0  0  0  0  0  0
    4.7254    2.9418   22.0993 C   0  0  0  0  0  0  0  0  0  0  0  0
    5.1914    3.7983   21.2089 N   0  0  0  0  0  0  0  0  0  0  0  0
    4.9105    3.4477   19.9750 N   0  0  0  0  0  0  0  0  0  0  0  0
    5.2392    4.1086   18.7382 C   0  0  0  0  0  0  0  0  0  0  0  0
    4.2181    2.2920   20.0537 C   0  0  0  0  0  0  0  0  0  0  0  0
    3.6400    1.4484   18.9977 C   0  0  0  0  0  0  0  0  0  0  0  0
    3.8055    1.8143   17.6946 N   0  0  0  0  0  0  0  0  0  0  0  0
    4.8070    2.9359   23.5488 C   0  0  0  0  0  0  0  0  0  0  0  0
    5.8659    2.2786   24.2121 N   0  0  0  0  0  0  0  0  0  0  0  0
    3.9471    3.5104   24.2778 O   0  0  0  0  0  0  0  0  0  0  0  0
    6.7661    2.7603   24.3350 H   0  0  0  0  0  0  0  0  0  0  0  0
    5.7496    1.3134   24.5787 H   0  0  0  0  0  0  0  0  0  0  0  0
    3.4726    1.4332   15.3900 N   0  0  0  0  0  0  0  0  0  0  0  0
    4.3894    1.1230   14.9059 H   0  0  0  0  0  0  0  0  0  0  0  0
    2.8554    3.6044   14.4732 C   0  0  0  0  0  0  0  0  0  0  0  0
    2.0741    4.4086   13.6872 C   0  0  0  0  0  0  0  0  0  0  0  0
    1.0284    3.9265   12.9354 C   0  0  0  0  0  0  0  0  0  0  0  0
    0.8066    2.5771   13.0161 C   0  0  0  0  0  0  0  0  0  0  0  0
    1.5989    1.7389   13.8176 C   0  0  0  0  0  0  0  0  0  0  0  0
    2.6349    2.2156   14.5627 C   0  0  0  0  0  0  0  0  0  0  0  0
    0.2078    4.7420   12.1154 N   0  0  0  0  0  0  0  0  0  0  0  0
   -1.1284    4.8742   12.2040 C   0  0  0  0  0  0  0  0  0  0  0  0
   -1.5933    5.7458   11.2518 C   0  0  0  0  0  0  0  0  0  0  0  0
   -0.5058    6.1506   10.5693 N   0  0  0  0  0  0  0  0  0  0  0  0
    0.5907    5.5350   11.1004 C   0  0  0  0  0  0  0  0  0  0  0  0
    3.8094    5.4573   15.6657 C   0  0  0  0  0  0  0  0  0  0  0  0
    3.8996    4.1201   15.2172 O   0  0  0  0  0  0  0  0  0  0  0  0
 33 34  1  0  0  0
 34 22  1  0  0  0
 22 23  2  0  0  0
 23 24  1  0  0  0
 24 25  2  0  0  0
 25 26  1  0  0  0
 26 27  2  0  0  0
 27 20  1  0  0  0
 20  1  1  0  0  0
  1  2  2  0  0  0
  2  3  1  0  0  0
  3  4  2  0  0  0
  4  5  1  0  0  0
  5  6  1  0  0  0
  6  7  1  0  0  0
  7  8  1  0  0  0
  8  9  2  0  0  0
  9 10  1  0  0  0
 10 11  1  0  0  0
 10 12  1  0  0  0
 12 13  1  0  0  0
 13 14  2  0  0  0
  8 15  1  0  0  0
 15 16  1  0  0  0
 15 17  2  0  0  0
 24 28  1  0  0  0
 28 29  1  0  0  0
 29 30  2  0  0  0
 30 31  1  0  0  0
 31 32  2  0  0  0
 27 22  1  0  0  0
 14  1  1  0  0  0
 32 28  1  0  0  0
 13  4  1  0  0  0
 12  7  2  0  0  0
 20 21  1  0  0  0
 16 18  1  0  0  0
 16 19  1  0  0  0
M  END
> <minimizedAffinity>
-8.78818

> <CNNscore>
0.8407840133

> <CNNaffinity>
7.4335646629

> <CNN_VS>
6.2500224113

> <CNNaffinity_variance>
0.2288472950

$$$$
[H]c1nc(N([H])c2c([H])c([H])c(-n3c([H])nc([H])c3[H])c([H])c2OC([H])([H])[H])nc2c1C([H])([H])C([H])([H])c1c(C(=O)N([H])[H])nn(C([H])([H])[H])c1-2


 34 38  0  0  0  0  0  0  0  0999 V2000
    3.1653    0.9372   16.7578 C   0  0  0  0  0  0  0  0  0  0  0  0
    2.5459   -0.1596   17.1451 N   0  0  0  0  0  0  0  0  0  0  0  0
    2.3890   -0.5688   18.3956 C   0  0  0  0  0  0  0  0  0  0  0  0
    2.9381    0.2473   19.4200 C   0  0  0  0  0  0  0  0  0  0  0  0
    2.7666   -0.1737   20.8103 C   0  0  0  0  0  0  0  0  0  0  0  0
    3.4016    0.6594   21.8214 C   0  0  0  0  0  0  0  0  0  0  0  0
    4.0702    1.8823   21.3854 C   0  0  0  0  0  0  0  0  0  0  0  0
    4.7243    2.9051   22.1039 C   0  0  0  0  0  0  0  0  0  0  0  0
    5.1531    3.7644   21.1976 N   0  0  0  0  0  0  0  0  0  0  0  0
    4.8448    3.4036   19.9732 N   0  0  0  0  0  0  0  0  0  0  0  0
    5.1302    4.0634   18.7252 C   0  0  0  0  0  0  0  0  0  0  0  0
    4.1727    2.2378   20.0756 C   0  0  0  0  0  0  0  0  0  0  0  0
    3.5798    1.3804   19.0391 C   0  0  0  0  0  0  0  0  0  0  0  0
    3.7047    1.7425   17.7304 N   0  0  0  0  0  0  0  0  0  0  0  0
    4.8446    2.9075   23.5507 C   0  0  0  0  0  0  0  0  0  0  0  0
    5.9215    2.2547   24.1891 N   0  0  0  0  0  0  0  0  0  0  0  0
    4.0041    3.4855   24.2992 O   0  0  0  0  0  0  0  0  0  0  0  0
    6.8242    2.7378   24.2853 H   0  0  0  0  0  0  0  0  0  0  0  0
    5.8158    1.2915   24.5641 H   0  0  0  0  0  0  0  0  0  0  0  0
    3.3164    1.3452   15.4372 N   0  0  0  0  0  0  0  0  0  0  0  0
    3.5966    0.5880   14.7166 H   0  0  0  0  0  0  0  0  0  0  0  0
    2.1742    2.8321   13.8816 C   0  0  0  0  0  0  0  0  0  0  0  0
    1.9775    4.0562   13.3005 C   0  0  0  0  0  0  0  0  0  0  0  0
    2.7154    5.1672   13.6356 C   0  0  0  0  0  0  0  0  0  0  0  0
    3.6731    4.9808   14.5971 C   0  0  0  0  0  0  0  0  0  0  0  0
    3.8872    3.7317   15.2025 C   0  0  0  0  0  0  0  0  0  0  0  0
    3.1567    2.6306   14.8713 C   0  0  0  0  0  0  0  0  0  0  0  0
    2.5275    6.4431   13.0461 N   0  0  0  0  0  0  0  0  0  0  0  0
    1.4394    6.8585   12.3720 C   0  0  0  0  0  0  0  0  0  0  0  0
    1.6009    8.1508   11.9402 C   0  0  0  0  0  0  0  0  0  0  0  0
    2.8217    8.5252   12.3662 N   0  0  0  0  0  0  0  0  0  0  0  0
    3.3830    7.4795   13.0406 C   0  0  0  0  0  0  0  0  0  0  0  0
    1.1505    1.5195   12.1510 C   0  0  0  0  0  0  0  0  0  0  0  0
    1.4153    1.7343   13.5226 O   0  0  0  0  0  0  0  0  0  0  0  0
 33 34  1  0  0  0
 34 22  1  0  0  0
 22 23  2  0  0  0
 23 24  1  0  0  0
 24 25  2  0  0  0
 25 26  1  0  0  0
 26 27  2  0  0  0
 27 20  1  0  0  0
 20  1  1  0  0  0
  1  2  2  0  0  0
  2  3  1  0  0  0
  3  4  2  0  0  0
  4  5  1  0  0  0
  5  6  1  0  0  0
  6  7  1  0  0  0
  7  8  1  0  0  0
  8  9  2  0  0  0
  9 10  1  0  0  0
 10 11  1  0  0  0
 10 12  1  0  0  0
 12 13  1  0  0  0
 13 14  2  0  0  0
  8 15  1  0  0  0
 15 16  1  0  0  0
 15 17  2  0  0  0
 24 28  1  0  0  0
 28 29  1  0  0  0
 29 30  2  0  0  0
 30 31  1  0  0  0
 31 32  2  0  0  0
 27 22  1  0  0  0
 14  1  1  0  0  0
 32 28  1  0  0  0
 13  4  1  0  0  0
 12  7  2  0  0  0
 20 21  1  0  0  0
 16 18  1  0  0  0
 16 19  1  0  0  0
M  END
> <minimizedAffinity>
-8.62292

> <CNNscore>
0.7773500681

> <CNNaffinity>
7.4072518349

> <CNN_VS>
5.7580275536

> <CNNaffinity_variance>
0.1380065680

$$$$
[H]c1nc(N([H])c2c([H])c([H])c(-n3c([H])nc([H])c3[H])c([H])c2OC([H])([H])[H])nc2c1C([H])([H])C([H])([H])c1c(C(=O)N([H])[H])nn(C([H])([H])[H])c1-2


 34 38  0  0  0  0  0  0  0  0999 V2000
    3.4782    2.3159   15.6716 C   0  0  0  0  0  0  0  0  0  0  0  0
    2.9299    1.1277   15.8269 N   0  0  0  0  0  0  0  0  0  0  0  0
    2.8489    0.4461   16.9602 C   0  0  0  0  0  0  0  0  0  0  0  0
    3.4036    1.0475   18.1212 C   0  0  0  0  0  0  0  0  0  0  0  0
    3.3147    0.3229   19.3888 C   0  0  0  0  0  0  0  0  0  0  0  0
    3.9537    0.9486   20.5375 C   0  0  0  0  0  0  0  0  0  0  0  0
    4.5429    2.2732   20.3611 C   0  0  0  0  0  0  0  0  0  0  0  0
    5.1788    3.1489   21.2661 C   0  0  0  0  0  0  0  0  0  0  0  0
    5.5250    4.2087   20.5587 N   0  0  0  0  0  0  0  0  0  0  0  0
    5.1799    4.1083   19.2957 N   0  0  0  0  0  0  0  0  0  0  0  0
    5.3773    5.0407   18.2159 C   0  0  0  0  0  0  0  0  0  0  0  0
    4.5696    2.9123   19.1597 C   0  0  0  0  0  0  0  0  0  0  0  0
    3.9726    2.2709   17.9794 C   0  0  0  0  0  0  0  0  0  0  0  0
    4.0215    2.9175   16.7799 N   0  0  0  0  0  0  0  0  0  0  0  0
    5.3634    2.8408   22.6727 C   0  0  0  0  0  0  0  0  0  0  0  0
    4.6708    3.5622   23.6693 N   0  0  0  0  0  0  0  0  0  0  0  0
    6.1416    1.9252   23.0690 O   0  0  0  0  0  0  0  0  0  0  0  0
    3.7083    3.2954   23.9142 H   0  0  0  0  0  0  0  0  0  0  0  0
    5.1195    4.3604   24.1603 H   0  0  0  0  0  0  0  0  0  0  0  0
    3.5504    3.0113   14.4698 N   0  0  0  0  0  0  0  0  0  0  0  0
    4.4119    3.6490   14.3206 H   0  0  0  0  0  0  0  0  0  0  0  0
    1.6516    4.0092   13.3146 C   0  0  0  0  0  0  0  0  0  0  0  0
    0.7538    4.0604   12.2821 C   0  0  0  0  0  0  0  0  0  0  0  0
    0.7589    3.1578   11.2447 C   0  0  0  0  0  0  0  0  0  0  0  0
    1.7258    2.1890   11.3003 C   0  0  0  0  0  0  0  0  0  0  0  0
    2.6539    2.1229   12.3524 C   0  0  0  0  0  0  0  0  0  0  0  0
    2.6496    3.0166   13.3805 C   0  0  0  0  0  0  0  0  0  0  0  0
   -0.1616    3.1935   10.1667 N   0  0  0  0  0  0  0  0  0  0  0  0
   -0.8815    4.2578    9.7668 C   0  0  0  0  0  0  0  0  0  0  0  0
   -1.6698    3.9334    8.6917 C   0  0  0  0  0  0  0  0  0  0  0  0
   -1.4180    2.6359    8.4362 N   0  0  0  0  0  0  0  0  0  0  0  0
   -0.4969    2.1892    9.3392 C   0  0  0  0  0  0  0  0  0  0  0  0
    1.8306    6.2941   14.0306 C   0  0  0  0  0  0  0  0  0  0  0  0
    1.6200    4.9319   14.3429 O   0  0  0  0  0  0  0  0  0  0  0  0
 33 34  1  0  0  0
 34 22  1  0  0  0
 22 23  2  0  0  0
 23 24  1  0  0  0
 24 25  2  0  0  0
 25 26  1  0  0  0
 26 27  2  0  0  0
 27 20  1  0  0  0
 20  1  1  0  0  0
  1  2  2  0  0  0
  2  3  1  0  0  0
  3  4  2  0  0  0
  4  5  1  0  0  0
  5  6  1  0  0  0
  6  7  1  0  0  0
  7  8  1  0  0  0
  8  9  2  0  0  0
  9 10  1  0  0  0
 10 11  1  0  0  0
 10 12  1  0  0  0
 12 13  1  0  0  0
 13 14  2  0  0  0
  8 15  1  0  0  0
 15 16  1  0  0  0
 15 17  2  0  0  0
 24 28  1  0  0  0
 28 29  1  0  0  0
 29 30  2  0  0  0
 30 31  1  0  0  0
 31 32  2  0  0  0
 27 22  1  0  0  0
 14  1  1  0  0  0
 32 28  1  0  0  0
 13  4  1  0  0  0
 12  7  2  0  0  0
 20 21  1  0  0  0
 16 18  1  0  0  0
 16 19  1  0  0  0
M  END
> <minimizedAffinity>
-7.76936

> <CNNscore>
0.2790935934

> <CNNaffinity>
6.6234178543

> <CNN_VS>
1.8485535383

> <CNNaffinity_variance>
0.3328590691

$$$$
[H]c1nc(N([H])c2c([H])c([H])c(-n3c([H])nc([H])c3[H])c([H])c2OC([H])([H])[H])nc2c1C([H])([H])C([H])([H])c1c(C(=O)N([H])[H])nn(C([H])([H])[H])c1-2


 34 38  0  0  0  0  0  0  0  0999 V2000
    5.1693    2.0338   21.0056 C   0  0  0  0  0  0  0  0  0  0  0  0
    4.4971    0.9547   21.3523 N   0  0  0  0  0  0  0  0  0  0  0  0
    3.6918    0.2504   20.5705 C   0  0  0  0  0  0  0  0  0  0  0  0
    3.5341    0.6952   19.2310 C   0  0  0  0  0  0  0  0  0  0  0  0
    2.6622   -0.0726   18.3422 C   0  0  0  0  0  0  0  0  0  0  0  0
    2.4802    0.4574   16.9985 C   0  0  0  0  0  0  0  0  0  0  0  0
    3.2427    1.6429   16.6167 C   0  0  0  0  0  0  0  0  0  0  0  0
    3.3265    2.3581   15.4035 C   0  0  0  0  0  0  0  0  0  0  0  0
    4.1634    3.3541   15.6296 N   0  0  0  0  0  0  0  0  0  0  0  0
    4.6267    3.3561   16.8583 N   0  0  0  0  0  0  0  0  0  0  0  0
    5.5494    4.2657   17.4872 C   0  0  0  0  0  0  0  0  0  0  0  0
    4.0636    2.2996   17.4813 C   0  0  0  0  0  0  0  0  0  0  0  0
    4.2187    1.8051   18.8569 C   0  0  0  0  0  0  0  0  0  0  0  0
    5.0327    2.4834   19.7153 N   0  0  0  0  0  0  0  0  0  0  0  0
    2.5914    1.9843   14.2087 C   0  0  0  0  0  0  0  0  0  0  0  0
    1.2118    1.6904   14.2692 N   0  0  0  0  0  0  0  0  0  0  0  0
    3.1417    1.9049   13.0721 O   0  0  0  0  0  0  0  0  0  0  0  0
    0.5268    2.4569   14.2425 H   0  0  0  0  0  0  0  0  0  0  0  0
    0.8771    0.7093   14.3404 H   0  0  0  0  0  0  0  0  0  0  0  0
    6.0094    2.7559   21.8459 N   0  0  0  0  0  0  0  0  0  0  0  0
    6.6340    2.1890   22.5238 H   0  0  0  0  0  0  0  0  0  0  0  0
    5.0590    4.9704   22.2042 C   0  0  0  0  0  0  0  0  0  0  0  0
    5.1689    6.3302   22.3210 C   0  0  0  0  0  0  0  0  0  0  0  0
    6.3682    6.9933   22.2073 C   0  0  0  0  0  0  0  0  0  0  0  0
    7.4648    6.2081   21.9671 C   0  0  0  0  0  0  0  0  0  0  0  0
    7.3686    4.8123   21.8448 C   0  0  0  0  0  0  0  0  0  0  0  0
    6.1810    4.1545   21.9572 C   0  0  0  0  0  0  0  0  0  0  0  0
    6.5033    8.3999   22.3249 N   0  0  0  0  0  0  0  0  0  0  0  0
    6.4624    9.2925   21.3187 C   0  0  0  0  0  0  0  0  0  0  0  0
    6.6283   10.5683   21.7956 C   0  0  0  0  0  0  0  0  0  0  0  0
    6.7735   10.4411   23.1278 N   0  0  0  0  0  0  0  0  0  0  0  0
    6.6965    9.1158   23.4457 C   0  0  0  0  0  0  0  0  0  0  0  0
    3.3705    4.0141   23.6185 C   0  0  0  0  0  0  0  0  0  0  0  0
    3.8383    4.3336   22.3237 O   0  0  0  0  0  0  0  0  0  0  0  0
 33 34  1  0  0  0
 34 22  1  0  0  0
 22 23  2  0  0  0
 23 24  1  0  0  0
 24 25  2  0  0  0
 25 26  1  0  0  0
 26 27  2  0  0  0
 27 20  1  0  0  0
 20  1  1  0  0  0
  1  2  2  0  0  0
  2  3  1  0  0  0
  3  4  2  0  0  0
  4  5  1  0  0  0
  5  6  1  0  0  0
  6  7  1  0  0  0
  7  8  1  0  0  0
  8  9  2  0  0  0
  9 10  1  0  0  0
 10 11  1  0  0  0
 10 12  1  0  0  0
 12 13  1  0  0  0
 13 14  2  0  0  0
  8 15  1  0  0  0
 15 16  1  0  0  0
 15 17  2  0  0  0
 24 28  1  0  0  0
 28 29  1  0  0  0
 29 30  2  0  0  0
 30 31  1  0  0  0
 31 32  2  0  0  0
 27 22  1  0  0  0
 14  1  1  0  0  0
 32 28  1  0  0  0
 13  4  1  0  0  0
 12  7  2  0  0  0
 20 21  1  0  0  0
 16 18  1  0  0  0
 16 19  1  0  0  0
M  END
> <minimizedAffinity>
-9.11369

> <CNNscore>
0.2312264144

> <CNNaffinity>
6.6631040573

> <CNN_VS>
1.5406856537

> <CNNaffinity_variance>
0.1927889585

$$$$
[H]c1nc(N([H])c2c([H])c([H])c(-n3c([H])nc([H])c3[H])c([H])c2OC([H])([H])[H])nc2c1C([H])([H])C([H])([H])c1c(C(=O)N([H])[H])nn(C([H])([H])[H])c1-2


 34 38  0  0  0  0  0  0  0  0999 V2000
    2.7726    2.6408   15.9030 C   0  0  0  0  0  0  0  0  0  0  0  0
    2.9980    1.3788   16.2080 N   0  0  0  0  0  0  0  0  0  0  0  0
    3.5851    0.9334   17.3092 C   0  0  0  0  0  0  0  0  0  0  0  0
    4.0143    1.9028   18.2542 C   0  0  0  0  0  0  0  0  0  0  0  0
    4.6524    1.4376   19.4856 C   0  0  0  0  0  0  0  0  0  0  0  0
    5.1339    2.4685   20.3939 C   0  0  0  0  0  0  0  0  0  0  0  0
    4.8639    3.8637   20.0572 C   0  0  0  0  0  0  0  0  0  0  0  0
    5.1478    5.0677   20.7354 C   0  0  0  0  0  0  0  0  0  0  0  0
    4.6848    6.0338   19.9635 N   0  0  0  0  0  0  0  0  0  0  0  0
    4.1336    5.5798   18.8615 N   0  0  0  0  0  0  0  0  0  0  0  0
    3.5217    6.3052   17.7780 C   0  0  0  0  0  0  0  0  0  0  0  0
    4.2379    4.2351   18.9072 C   0  0  0  0  0  0  0  0  0  0  0  0
    3.7906    3.2073   17.9561 C   0  0  0  0  0  0  0  0  0  0  0  0
    3.1790    3.5966   16.8012 N   0  0  0  0  0  0  0  0  0  0  0  0
    5.8224    5.1158   22.0201 C   0  0  0  0  0  0  0  0  0  0  0  0
    5.1243    5.4805   23.1918 N   0  0  0  0  0  0  0  0  0  0  0  0
    7.0498    4.8375   22.1513 O   0  0  0  0  0  0  0  0  0  0  0  0
    4.5774    4.7727   23.6992 H   0  0  0  0  0  0  0  0  0  0  0  0
    5.1544    6.4553   23.5502 H   0  0  0  0  0  0  0  0  0  0  0  0
    2.1535    3.0829   14.7392 N   0  0  0  0  0  0  0  0  0  0  0  0
    1.1696    3.5221   14.8409 H   0  0  0  0  0  0  0  0  0  0  0  0
    3.4607    4.0797   12.9412 C   0  0  0  0  0  0  0  0  0  0  0  0
    3.9412    4.0952   11.6591 C   0  0  0  0  0  0  0  0  0  0  0  0
    3.6431    3.1168   10.7398 C   0  0  0  0  0  0  0  0  0  0  0  0
    2.8266    2.1098   11.1824 C   0  0  0  0  0  0  0  0  0  0  0  0
    2.3257    2.0797   12.4942 C   0  0  0  0  0  0  0  0  0  0  0  0
    2.6204    3.0483   13.4055 C   0  0  0  0  0  0  0  0  0  0  0  0
    4.1302    3.1144    9.4081 N   0  0  0  0  0  0  0  0  0  0  0  0
    4.1199    2.0726    8.5565 C   0  0  0  0  0  0  0  0  0  0  0  0
    4.6711    2.4267    7.3509 C   0  0  0  0  0  0  0  0  0  0  0  0
    5.0239    3.7193    7.4796 N   0  0  0  0  0  0  0  0  0  0  0  0
    4.6917    4.1342    8.7369 C   0  0  0  0  0  0  0  0  0  0  0  0
    3.1812    6.3484   13.6763 C   0  0  0  0  0  0  0  0  0  0  0  0
    3.7792    5.0786   13.8416 O   0  0  0  0  0  0  0  0  0  0  0  0
 33 34  1  0  0  0
 34 22  1  0  0  0
 22 23  2  0  0  0
 23 24  1  0  0  0
 24 25  2  0  0  0
 25 26  1  0  0  0
 26 27  2  0  0  0
 27 20  1  0  0  0
 20  1  1  0  0  0
  1  2  2  0  0  0
  2  3  1  0  0  0
  3  4  2  0  0  0
  4  5  1  0  0  0
  5  6  1  0  0  0
  6  7  1  0  0  0
  7  8  1  0  0  0
  8  9  2  0  0  0
  9 10  1  0  0  0
 10 11  1  0  0  0
 10 12  1  0  0  0
 12 13  1  0  0  0
 13 14  2  0  0  0
  8 15  1  0  0  0
 15 16  1  0  0  0
 15 17  2  0  0  0
 24 28  1  0  0  0
 28 29  1  0  0  0
 29 30  2  0  0  0
 30 31  1  0  0  0
 31 32  2  0  0  0
 27 22  1  0  0  0
 14  1  1  0  0  0
 32 28  1  0  0  0
 13  4  1  0  0  0
 12  7  2  0  0  0
 20 21  1  0  0  0
 16 18  1  0  0  0
 16 19  1  0  0  0
M  END
> <minimizedAffinity>
-7.58923

> <CNNscore>
0.2076659948

> <CNNaffinity>
6.3512563705

> <CNN_VS>
1.3189399242

> <CNNaffinity_variance>
0.6254162788

$$$$
[H]c1nc(N([H])c2c([H])c([H])c(-n3c([H])nc([H])c3[H])c([H])c2OC([H])([H])[H])nc2c1C([H])([H])C([H])([H])c1c(C(=O)N([H])[H])nn(C([H])([H])[H])c1-2


 34 38  0  0  0  0  0  0  0  0999 V2000
    3.6677    2.2154   17.8650 C   0  0  0  0  0  0  0  0  0  0  0  0
    3.7192    1.1621   18.6552 N   0  0  0  0  0  0  0  0  0  0  0  0
    4.2777    1.1119   19.8557 C   0  0  0  0  0  0  0  0  0  0  0  0
    4.8794    2.3027   20.3427 C   0  0  0  0  0  0  0  0  0  0  0  0
    5.4904    2.2791   21.6715 C   0  0  0  0  0  0  0  0  0  0  0  0
    6.1512    3.5030   22.1014 C   0  0  0  0  0  0  0  0  0  0  0  0
    6.0737    4.6708   21.2279 C   0  0  0  0  0  0  0  0  0  0  0  0
    6.5553    5.9888   21.3731 C   0  0  0  0  0  0  0  0  0  0  0  0
    6.2077    6.6231   20.2684 N   0  0  0  0  0  0  0  0  0  0  0  0
    5.5542    5.8541   19.4283 N   0  0  0  0  0  0  0  0  0  0  0  0
    5.0125    6.1683   18.1313 C   0  0  0  0  0  0  0  0  0  0  0  0
    5.4640    4.6403   20.0113 C   0  0  0  0  0  0  0  0  0  0  0  0
    4.8358    3.3970   19.5418 C   0  0  0  0  0  0  0  0  0  0  0  0
    4.2429    3.3786   18.3140 N   0  0  0  0  0  0  0  0  0  0  0  0
    7.2790    6.4453   22.5459 C   0  0  0  0  0  0  0  0  0  0  0  0
    8.4843    5.8249   22.9404 N   0  0  0  0  0  0  0  0  0  0  0  0
    6.8722    7.4065   23.2611 O   0  0  0  0  0  0  0  0  0  0  0  0
    9.3692    6.1049   22.4976 H   0  0  0  0  0  0  0  0  0  0  0  0
    8.4911    5.0880   23.6729 H   0  0  0  0  0  0  0  0  0  0  0  0
    3.0745    2.2424   16.6077 N   0  0  0  0  0  0  0  0  0  0  0  0
    2.8463    1.2887   16.1501 H   0  0  0  0  0  0  0  0  0  0  0  0
    2.6718    3.2107   14.4087 C   0  0  0  0  0  0  0  0  0  0  0  0
    2.3275    4.2524   13.5895 C   0  0  0  0  0  0  0  0  0  0  0  0
    1.9990    5.4992   14.0676 C   0  0  0  0  0  0  0  0  0  0  0  0
    2.0354    5.6457   15.4292 C   0  0  0  0  0  0  0  0  0  0  0  0
    2.3866    4.5871   16.2828 C   0  0  0  0  0  0  0  0  0  0  0  0
    2.7121    3.3517   15.8101 C   0  0  0  0  0  0  0  0  0  0  0  0
    1.6398    6.5906   13.2367 N   0  0  0  0  0  0  0  0  0  0  0  0
    2.4184    7.6405   12.9172 C   0  0  0  0  0  0  0  0  0  0  0  0
    1.7477    8.5079   12.0923 C   0  0  0  0  0  0  0  0  0  0  0  0
    0.5295    7.9652   11.9094 N   0  0  0  0  0  0  0  0  0  0  0  0
    0.4688    6.7952   12.6099 C   0  0  0  0  0  0  0  0  0  0  0  0
    2.7139    1.7074   12.5368 C   0  0  0  0  0  0  0  0  0  0  0  0
    2.9968    1.9689   13.8965 O   0  0  0  0  0  0  0  0  0  0  0  0
 33 34  1  0  0  0
 34 22  1  0  0  0
 22 23  2  0  0  0
 23 24  1  0  0  0
 24 25  2  0  0  0
 25 26  1  0  0  0
 26 27  2  0  0  0
 27 20  1  0  0  0
 20  1  1  0  0  0
  1  2  2  0  0  0
  2  3  1  0  0  0
  3  4  2  0  0  0
  4  5  1  0  0  0
  5  6  1  0  0  0
  6  7  1  0  0  0
  7  8  1  0  0  0
  8  9  2  0  0  0
  9 10  1  0  0  0
 10 11  1  0  0  0
 10 12  1  0  0  0
 12 13  1  0  0  0
 13 14  2  0  0  0
  8 15  1  0  0  0
 15 16  1  0  0  0
 15 17  2  0  0  0
 24 28  1  0  0  0
 28 29  1  0  0  0
 29 30  2  0  0  0
 30 31  1  0  0  0
 31 32  2  0  0  0
 27 22  1  0  0  0
 14  1  1  0  0  0
 32 28  1  0  0  0
 13  4  1  0  0  0
 12  7  2  0  0  0
 20 21  1  0  0  0
 16 18  1  0  0  0
 16 19  1  0  0  0
M  END
> <minimizedAffinity>
-7.89742

> <CNNscore>
0.1848960817

> <CNNaffinity>
6.4318032265

> <CNN_VS>
1.1892151833

> <CNNaffinity_variance>
0.5334818363

$$$$
[H]c1nc(N([H])c2c([H])c([H])c(-n3c([H])nc([H])c3[H])c([H])c2OC([H])([H])[H])nc2c1C([H])([H])C([H])([H])c1c(C(=O)N([H])[H])nn(C([H])([H])[H])c1-2


 34 38  0  0  0  0  0  0  0  0999 V2000
    4.5715    3.3524   17.0848 C   0  0  0  0  0  0  0  0  0  0  0  0
    4.0527    2.1654   16.8432 N   0  0  0  0  0  0  0  0  0  0  0  0
    3.8120    1.2200   17.7398 C   0  0  0  0  0  0  0  0  0  0  0  0
    4.1422    1.5070   19.0911 C   0  0  0  0  0  0  0  0  0  0  0  0
    3.8732    0.4862   20.1037 C   0  0  0  0  0  0  0  0  0  0  0  0
    4.2876    0.7994   21.4637 C   0  0  0  0  0  0  0  0  0  0  0  0
    4.8448    2.1235   21.7262 C   0  0  0  0  0  0  0  0  0  0  0  0
    5.2865    2.7402   22.9156 C   0  0  0  0  0  0  0  0  0  0  0  0
    5.7029    3.9431   22.5645 N   0  0  0  0  0  0  0  0  0  0  0  0
    5.5762    4.1659   21.2767 N   0  0  0  0  0  0  0  0  0  0  0  0
    5.9128    5.3400   20.5134 C   0  0  0  0  0  0  0  0  0  0  0  0
    5.0449    3.0452   20.7448 C   0  0  0  0  0  0  0  0  0  0  0  0
    4.6778    2.7245   19.3579 C   0  0  0  0  0  0  0  0  0  0  0  0
    4.8992    3.6529   18.3840 N   0  0  0  0  0  0  0  0  0  0  0  0
    5.2475    2.0864   24.2112 C   0  0  0  0  0  0  0  0  0  0  0  0
    6.4071    1.9940   25.0113 N   0  0  0  0  0  0  0  0  0  0  0  0
    4.1893    1.5753   24.6803 O   0  0  0  0  0  0  0  0  0  0  0  0
    6.6759    2.7851   25.6107 H   0  0  0  0  0  0  0  0  0  0  0  0
    6.9946    1.1370   25.0037 H   0  0  0  0  0  0  0  0  0  0  0  0
    4.8143    4.3284   16.1248 N   0  0  0  0  0  0  0  0  0  0  0  0
    5.7513    4.8654   16.1942 H   0  0  0  0  0  0  0  0  0  0  0  0
    3.4223    6.0238   15.0647 C   0  0  0  0  0  0  0  0  0  0  0  0
    2.6317    6.4741   14.0416 C   0  0  0  0  0  0  0  0  0  0  0  0
    2.3520    5.7178   12.9276 C   0  0  0  0  0  0  0  0  0  0  0  0
    2.9158    4.4697   12.8958 C   0  0  0  0  0  0  0  0  0  0  0  0
    3.7289    3.9932   13.9371 C   0  0  0  0  0  0  0  0  0  0  0  0
    4.0065    4.7417   15.0410 C   0  0  0  0  0  0  0  0  0  0  0  0
    1.5361    6.1655   11.8578 N   0  0  0  0  0  0  0  0  0  0  0  0
    0.4796    5.5169   11.3343 C   0  0  0  0  0  0  0  0  0  0  0  0
   -0.0758    6.2424   10.3107 C   0  0  0  0  0  0  0  0  0  0  0  0
    0.6675    7.3606   10.2143 N   0  0  0  0  0  0  0  0  0  0  0  0
    1.6499    7.3087   11.1606 C   0  0  0  0  0  0  0  0  0  0  0  0
    4.4421    7.9887   15.9945 C   0  0  0  0  0  0  0  0  0  0  0  0
    3.6845    6.8089   16.1714 O   0  0  0  0  0  0  0  0  0  0  0  0
 33 34  1  0  0  0
 34 22  1  0  0  0
 22 23  2  0  0  0
 23 24  1  0  0  0
 24 25  2  0  0  0
 25 26  1  0  0  0
 26 27  2  0  0  0
 27 20  1  0  0  0
 20  1  1  0  0  0
  1  2  2  0  0  0
  2  3  1  0  0  0
  3  4  2  0  0  0
  4  5  1  0  0  0
  5  6  1  0  0  0
  6  7  1  0  0  0
  7  8  1  0  0  0
  8  9  2  0  0  0
  9 10  1  0  0  0
 10 11  1  0  0  0
 10 12  1  0  0  0
 12 13  1  0  0  0
 13 14  2  0  0  0
  8 15  1  0  0  0
 15 16  1  0  0  0
 15 17  2  0  0  0
 24 28  1  0  0  0
 28 29  1  0  0  0
 29 30  2  0  0  0
 30 31  1  0  0  0
 31 32  2  0  0  0
 27 22  1  0  0  0
 14  1  1  0  0  0
 32 28  1  0  0  0
 13  4  1  0  0  0
 12  7  2  0  0  0
 20 21  1  0  0  0
 16 18  1  0  0  0
 16 19  1  0  0  0
M  END
> <minimizedAffinity>
-8.14566

> <CNNscore>
0.1713969409

> <CNNaffinity>
6.4846906662

> <CNN_VS>
1.1114561558

> <CNNaffinity_variance>
0.3029556870

$$$$
[H]c1nc(N([H])c2c([H])c([H])c(-n3c([H])nc([H])c3[H])c([H])c2OC([H])([H])[H])nc2c1C([H])([H])C([H])([H])c1c(C(=O)N([H])[H])nn(C([H])([H])[H])c1-2


 34 38  0  0  0  0  0  0  0  0999 V2000
    3.3833    5.4376   15.1910 C   0  0  0  0  0  0  0  0  0  0  0  0
    3.8934    6.5261   15.7309 N   0  0  0  0  0  0  0  0  0  0  0  0
    4.4604    6.6146   16.9252 C   0  0  0  0  0  0  0  0  0  0  0  0
    4.5279    5.4275   17.7019 C   0  0  0  0  0  0  0  0  0  0  0  0
    5.1621    5.4940   19.0184 C   0  0  0  0  0  0  0  0  0  0  0  0
    5.1502    4.2687   19.8046 C   0  0  0  0  0  0  0  0  0  0  0  0
    4.5996    3.0628   19.1920 C   0  0  0  0  0  0  0  0  0  0  0  0
    4.4881    1.7362   19.6591 C   0  0  0  0  0  0  0  0  0  0  0  0
    3.8975    1.0615   18.6898 N   0  0  0  0  0  0  0  0  0  0  0  0
    3.6172    1.8121   17.6495 N   0  0  0  0  0  0  0  0  0  0  0  0
    2.9817    1.4546   16.4074 C   0  0  0  0  0  0  0  0  0  0  0  0
    4.0476    3.0559   17.9478 C   0  0  0  0  0  0  0  0  0  0  0  0
    4.0071    4.2973   17.1616 C   0  0  0  0  0  0  0  0  0  0  0  0
    3.4367    4.2772   15.9232 N   0  0  0  0  0  0  0  0  0  0  0  0
    4.9606    1.3114   20.9644 C   0  0  0  0  0  0  0  0  0  0  0  0
    6.2041    0.6584   21.1076 N   0  0  0  0  0  0  0  0  0  0  0  0
    4.2921    1.5023   22.0217 O   0  0  0  0  0  0  0  0  0  0  0  0
    7.0669    1.2148   21.1670 H   0  0  0  0  0  0  0  0  0  0  0  0
    6.2612   -0.3780   21.1537 H   0  0  0  0  0  0  0  0  0  0  0  0
    2.7931    5.3707   13.9339 N   0  0  0  0  0  0  0  0  0  0  0  0
    3.4442    5.1651   13.0943 H   0  0  0  0  0  0  0  0  0  0  0  0
    0.7863    4.5080   12.8549 C   0  0  0  0  0  0  0  0  0  0  0  0
   -0.5254    4.6139   12.4770 C   0  0  0  0  0  0  0  0  0  0  0  0
   -1.2966    5.7160   12.7631 C   0  0  0  0  0  0  0  0  0  0  0  0
   -0.6722    6.7183   13.4575 C   0  0  0  0  0  0  0  0  0  0  0  0
    0.6725    6.6247   13.8522 C   0  0  0  0  0  0  0  0  0  0  0  0
    1.4371    5.5335   13.5693 C   0  0  0  0  0  0  0  0  0  0  0  0
   -2.6560    5.8452   12.3810 N   0  0  0  0  0  0  0  0  0  0  0  0
   -3.2586    5.2215   11.3521 C   0  0  0  0  0  0  0  0  0  0  0  0
   -4.5806    5.5805   11.2749 C   0  0  0  0  0  0  0  0  0  0  0  0
   -4.7807    6.4457   12.2865 N   0  0  0  0  0  0  0  0  0  0  0  0
   -3.6030    6.6039   12.9584 C   0  0  0  0  0  0  0  0  0  0  0  0
    1.2225    2.1730   13.2057 C   0  0  0  0  0  0  0  0  0  0  0  0
    1.5347    3.3864   12.5518 O   0  0  0  0  0  0  0  0  0  0  0  0
 33 34  1  0  0  0
 34 22  1  0  0  0
 22 23  2  0  0  0
 23 24  1  0  0  0
 24 25  2  0  0  0
 25 26  1  0  0  0
 26 27  2  0  0  0
 27 20  1  0  0  0
 20  1  1  0  0  0
  1  2  2  0  0  0
  2  3  1  0  0  0
  3  4  2  0  0  0
  4  5  1  0  0  0
  5  6  1  0  0  0
  6  7  1  0  0  0
  7  8  1  0  0  0
  8  9  2  0  0  0
  9 10  1  0  0  0
 10 11  1  0  0  0
 10 12  1  0  0  0
 12 13  1  0  0  0
 13 14  2  0  0  0
  8 15  1  0  0  0
 15 16  1  0  0  0
 15 17  2  0  0  0
 24 28  1  0  0  0
 28 29  1  0  0  0
 29 30  2  0  0  0
 30 31  1  0  0  0
 31 32  2  0  0  0
 27 22  1  0  0  0
 14  1  1  0  0  0
 32 28  1  0  0  0
 13  4  1  0  0  0
 12  7  2  0  0  0
 20 21  1  0  0  0
 16 18  1  0  0  0
 16 19  1  0  0  0
M  END
> <minimizedAffinity>
-7.89171

> <CNNscore>
0.1343710572

> <CNNaffinity>
6.2008600235

> <CNN_VS>
0.8332161307

> <CNNaffinity_variance>
0.2249495685

$$$$
[H]c1nc(N([H])c2c([H])c([H])c(-n3c([H])nc([H])c3[H])c([H])c2OC([H])([H])[H])nc2c1C([H])([H])C([H])([H])c1c(C(=O)N([H])[H])nn(C([H])([H])[H])c1-2


 34 38  0  0  0  0  0  0  0  0999 V2000
    2.8401    2.7183   15.8716 C   0  0  0  0  0  0  0  0  0  0  0  0
    3.0360    1.4486   16.1650 N   0  0  0  0  0  0  0  0  0  0  0  0
    3.5952    0.9790   17.2706 C   0  0  0  0  0  0  0  0  0  0  0  0
    4.0264    1.9286   18.2346 C   0  0  0  0  0  0  0  0  0  0  0  0
    4.6339    1.4366   19.4710 C   0  0  0  0  0  0  0  0  0  0  0  0
    5.1191    2.4472   20.3999 C   0  0  0  0  0  0  0  0  0  0  0  0
    4.8817    3.8512   20.0757 C   0  0  0  0  0  0  0  0  0  0  0  0
    5.1766    5.0414   20.7734 C   0  0  0  0  0  0  0  0  0  0  0  0
    4.7456    6.0253   20.0055 N   0  0  0  0  0  0  0  0  0  0  0  0
    4.2051    5.5952   18.8887 N   0  0  0  0  0  0  0  0  0  0  0  0
    3.6261    6.3451   17.8038 C   0  0  0  0  0  0  0  0  0  0  0  0
    4.2830    4.2483   18.9197 C   0  0  0  0  0  0  0  0  0  0  0  0
    3.8328    3.2406   17.9487 C   0  0  0  0  0  0  0  0  0  0  0  0
    3.2489    3.6553   16.7883 N   0  0  0  0  0  0  0  0  0  0  0  0
    5.8296    5.0612   22.0699 C   0  0  0  0  0  0  0  0  0  0  0  0
    5.1016    5.3557   23.2432 N   0  0  0  0  0  0  0  0  0  0  0  0
    7.0635    4.8192   22.2105 O   0  0  0  0  0  0  0  0  0  0  0  0
    4.5716    4.6104   23.7135 H   0  0  0  0  0  0  0  0  0  0  0  0
    5.0930    6.3160   23.6398 H   0  0  0  0  0  0  0  0  0  0  0  0
    2.2498    3.1861   14.7028 N   0  0  0  0  0  0  0  0  0  0  0  0
    1.2314    2.8768   14.5072 H   0  0  0  0  0  0  0  0  0  0  0  0
    2.3158    5.3499   13.5852 C   0  0  0  0  0  0  0  0  0  0  0  0
    2.8006    6.2060   12.6330 C   0  0  0  0  0  0  0  0  0  0  0  0
    3.7712    5.8427   11.7291 C   0  0  0  0  0  0  0  0  0  0  0  0
    4.2345    4.5578   11.8339 C   0  0  0  0  0  0  0  0  0  0  0  0
    3.7475    3.6676   12.8051 C   0  0  0  0  0  0  0  0  0  0  0  0
    2.7861    4.0267   13.7008 C   0  0  0  0  0  0  0  0  0  0  0  0
    4.2864    6.7137   10.7358 N   0  0  0  0  0  0  0  0  0  0  0  0
    3.6378    7.1458    9.6388 C   0  0  0  0  0  0  0  0  0  0  0  0
    4.4393    7.9771    8.8978 C   0  0  0  0  0  0  0  0  0  0  0  0
    5.6049    8.0481    9.5674 N   0  0  0  0  0  0  0  0  0  0  0  0
    5.5064    7.2752   10.6884 C   0  0  0  0  0  0  0  0  0  0  0  0
    0.2146    6.4419   13.9824 C   0  0  0  0  0  0  0  0  0  0  0  0
    1.3396    5.7460   14.4797 O   0  0  0  0  0  0  0  0  0  0  0  0
 33 34  1  0  0  0
 34 22  1  0  0  0
 22 23  2  0  0  0
 23 24  1  0  0  0
 24 25  2  0  0  0
 25 26  1  0  0  0
 26 27  2  0  0  0
 27 20  1  0  0  0
 20  1  1  0  0  0
  1  2  2  0  0  0
  2  3  1  0  0  0
  3  4  2  0  0  0
  4  5  1  0  0  0
  5  6  1  0  0  0
  6  7  1  0  0  0
  7  8  1  0  0  0
  8  9  2  0  0  0
  9 10  1  0  0  0
 10 11  1  0  0  0
 10 12  1  0  0  0
 12 13  1  0  0  0
 13 14  2  0  0  0
  8 15  1  0  0  0
 15 16  1  0  0  0
 15 17  2  0  0  0
 24 28  1  0  0  0
 28 29  1  0  0  0
 29 30  2  0  0  0
 30 31  1  0  0  0
 31 32  2  0  0  0
 27 22  1  0  0  0
 14  1  1  0  0  0
 32 28  1  0  0  0
 13  4  1  0  0  0
 12  7  2  0  0  0
 20 21  1  0  0  0
 16 18  1  0  0  0
 16 19  1  0  0  0
M  END
> <minimizedAffinity>
-7.94198

> <CNNscore>
0.0930270702

> <CNNaffinity>
6.2243919373

> <CNN_VS>
0.5790369511

> <CNNaffinity_variance>
0.5304692984

$$$$
[H]c1nc2sc(C([H])([H])[H])c([H])c2c(N([H])c2c([H])c([H])c3c(c([H])c([H])n3[H])c2C([H])([H])[H])c1C#N


 25 28  0  0  0  0  0  0  0  0999 V2000
    4.4898    2.0298   18.4532 N   0  0  0  0  0  0  0  0  0  0  0  0
    5.2510    1.4960   17.9452 H   0  0  0  0  0  0  0  0  0  0  0  0
    3.6587    1.6002   15.7404 C   0  0  0  0  0  0  0  0  0  0  0  0
    3.4035    2.8848   16.4745 C   0  0  0  0  0  0  0  0  0  0  0  0
    3.8140    3.0625   17.7763 C   0  0  0  0  0  0  0  0  0  0  0  0
    3.5577    4.2697   18.4216 C   0  0  0  0  0  0  0  0  0  0  0  0
    2.8961    5.2882   17.7671 C   0  0  0  0  0  0  0  0  0  0  0  0
    2.4719    5.1340   16.4543 C   0  0  0  0  0  0  0  0  0  0  0  0
    1.8185    5.9264   15.5719 N   0  0  0  0  0  0  0  0  0  0  0  0
    1.6515    5.2766   14.4033 C   0  0  0  0  0  0  0  0  0  0  0  0
    2.2235    4.0272   14.5614 C   0  0  0  0  0  0  0  0  0  0  0  0
    2.7429    3.9292   15.8513 C   0  0  0  0  0  0  0  0  0  0  0  0
    1.4965    6.9009   15.7830 H   0  0  0  0  0  0  0  0  0  0  0  0
    4.2093    1.6545   19.7940 C   0  0  0  0  0  0  0  0  0  0  0  0
    3.3077    0.6399   20.0066 C   0  0  0  0  0  0  0  0  0  0  0  0
    2.9528    0.1863   21.2513 C   0  0  0  0  0  0  0  0  0  0  0  0
    3.5466    0.7993   22.2912 N   0  0  0  0  0  0  0  0  0  0  0  0
    4.4357    1.7988   22.1037 C   0  0  0  0  0  0  0  0  0  0  0  0
    5.3440    2.7595   23.2029 S   0  0  0  0  0  0  0  0  0  0  0  0
    6.1753    3.7382   22.0824 C   0  0  0  0  0  0  0  0  0  0  0  0
    7.1601    4.8221   22.3767 C   0  0  0  0  0  0  0  0  0  0  0  0
    5.7199    3.2871   20.8764 C   0  0  0  0  0  0  0  0  0  0  0  0
    4.8216    2.2857   20.8885 C   0  0  0  0  0  0  0  0  0  0  0  0
    2.6549   -0.0355   18.8924 C   0  0  0  0  0  0  0  0  0  0  0  0
    2.1370   -0.5540   17.9974 N   0  0  0  0  0  0  0  0  0  0  0  0
  3  4  1  0  0  0
  4  5  2  0  0  0
  5  1  1  0  0  0
  1 14  1  0  0  0
 14 15  2  0  0  0
 15 16  1  0  0  0
 16 17  2  0  0  0
 17 18  1  0  0  0
 18 19  1  0  0  0
 19 20  1  0  0  0
 20 21  1  0  0  0
 20 22  2  0  0  0
 22 23  1  0  0  0
 15 24  1  0  0  0
 24 25  3  0  0  0
  5  6  1  0  0  0
  6  7  2  0  0  0
  7  8  1  0  0  0
  8  9  1  0  0  0
  9 10  1  0  0  0
 10 11  2  0  0  0
 11 12  1  0  0  0
 12  4  1  0  0  0
 23 14  1  0  0  0
 12  8  2  0  0  0
 23 18  2  0  0  0
  1  2  1  0  0  0
  9 13  1  0  0  0
M  END
> <minimizedAffinity>
-8.06550

> <CNNscore>
0.8249760866

> <CNNaffinity>
6.7961692810

> <CNN_VS>
5.6066770554

> <CNNaffinity_variance>
0.0942294598

$$$$
[H]c1nc2sc(C([H])([H])[H])c([H])c2c(N([H])c2c([H])c([H])c3c(c([H])c([H])n3[H])c2C([H])([H])[H])c1C#N


 25 28  0  0  0  0  0  0  0  0999 V2000
    4.6912    1.9571   18.1623 N   0  0  0  0  0  0  0  0  0  0  0  0
    5.2431    1.1020   17.8678 H   0  0  0  0  0  0  0  0  0  0  0  0
    3.6462    0.3237   20.2775 C   0  0  0  0  0  0  0  0  0  0  0  0
    4.3048    1.6501   20.5250 C   0  0  0  0  0  0  0  0  0  0  0  0
    4.7970    2.4123   19.4900 C   0  0  0  0  0  0  0  0  0  0  0  0
    5.4009    3.6374   19.7622 C   0  0  0  0  0  0  0  0  0  0  0  0
    5.5098    4.0927   21.0601 C   0  0  0  0  0  0  0  0  0  0  0  0
    5.0213    3.3428   22.1214 C   0  0  0  0  0  0  0  0  0  0  0  0
    4.9812    3.5170   23.4637 N   0  0  0  0  0  0  0  0  0  0  0  0
    4.3816    2.4616   24.0487 C   0  0  0  0  0  0  0  0  0  0  0  0
    4.0327    1.5921   23.0310 C   0  0  0  0  0  0  0  0  0  0  0  0
    4.4323    2.1400   21.8132 C   0  0  0  0  0  0  0  0  0  0  0  0
    5.3652    4.3565   23.9594 H   0  0  0  0  0  0  0  0  0  0  0  0
    3.8785    2.5829   17.1799 C   0  0  0  0  0  0  0  0  0  0  0  0
    2.8852    1.8377   16.5917 C   0  0  0  0  0  0  0  0  0  0  0  0
    2.0356    2.3255   15.6320 C   0  0  0  0  0  0  0  0  0  0  0  0
    2.2235    3.6101   15.2792 N   0  0  0  0  0  0  0  0  0  0  0  0
    3.1942    4.3598   15.8452 C   0  0  0  0  0  0  0  0  0  0  0  0
    3.6758    5.9939   15.6138 S   0  0  0  0  0  0  0  0  0  0  0  0
    4.9569    6.0590   16.7359 C   0  0  0  0  0  0  0  0  0  0  0  0
    5.8339    7.2272   17.0479 C   0  0  0  0  0  0  0  0  0  0  0  0
    4.9741    4.7990   17.2628 C   0  0  0  0  0  0  0  0  0  0  0  0
    4.0636    3.9224   16.8021 C   0  0  0  0  0  0  0  0  0  0  0  0
    2.6671    0.4451   16.9614 C   0  0  0  0  0  0  0  0  0  0  0  0
    2.5129   -0.6610   17.2628 N   0  0  0  0  0  0  0  0  0  0  0  0
  3  4  1  0  0  0
  4  5  2  0  0  0
  5  1  1  0  0  0
  1 14  1  0  0  0
 14 15  2  0  0  0
 15 16  1  0  0  0
 16 17  2  0  0  0
 17 18  1  0  0  0
 18 19  1  0  0  0
 19 20  1  0  0  0
 20 21  1  0  0  0
 20 22  2  0  0  0
 22 23  1  0  0  0
 15 24  1  0  0  0
 24 25  3  0  0  0
  5  6  1  0  0  0
  6  7  2  0  0  0
  7  8  1  0  0  0
  8  9  1  0  0  0
  9 10  1  0  0  0
 10 11  2  0  0  0
 11 12  1  0  0  0
 12  4  1  0  0  0
 23 14  1  0  0  0
 12  8  2  0  0  0
 23 18  2  0  0  0
  1  2  1  0  0  0
  9 13  1  0  0  0
M  END
> <minimizedAffinity>
-7.67498

> <CNNscore>
0.7402030230

> <CNNaffinity>
6.7162537575

> <CNN_VS>
4.9713912010

> <CNNaffinity_variance>
0.0929344222

$$$$
[H]c1nc2sc(C([H])([H])[H])c([H])c2c(N([H])c2c([H])c([H])c3c(c([H])c([H])n3[H])c2C([H])([H])[H])c1C#N


 25 28  0  0  0  0  0  0  0  0999 V2000
    5.0550    2.2904   19.2445 N   0  0  0  0  0  0  0  0  0  0  0  0
    6.0342    1.8882   19.1994 H   0  0  0  0  0  0  0  0  0  0  0  0
    5.9712    4.7446   18.0733 C   0  0  0  0  0  0  0  0  0  0  0  0
    5.2739    4.6890   19.4018 C   0  0  0  0  0  0  0  0  0  0  0  0
    4.8452    3.4965   19.9391 C   0  0  0  0  0  0  0  0  0  0  0  0
    4.2023    3.4881   21.1746 C   0  0  0  0  0  0  0  0  0  0  0  0
    3.9917    4.6647   21.8636 C   0  0  0  0  0  0  0  0  0  0  0  0
    4.4145    5.8804   21.3432 C   0  0  0  0  0  0  0  0  0  0  0  0
    4.3539    7.1643   21.7693 N   0  0  0  0  0  0  0  0  0  0  0  0
    4.9273    7.9794   20.8624 C   0  0  0  0  0  0  0  0  0  0  0  0
    5.3640    7.1726   19.8272 C   0  0  0  0  0  0  0  0  0  0  0  0
    5.0447    5.8482   20.1224 C   0  0  0  0  0  0  0  0  0  0  0  0
    3.9206    7.4634   22.6752 H   0  0  0  0  0  0  0  0  0  0  0  0
    4.0200    1.5699   18.5912 C   0  0  0  0  0  0  0  0  0  0  0  0
    3.3998    0.5580   19.2835 C   0  0  0  0  0  0  0  0  0  0  0  0
    2.3887   -0.2098   18.7647 C   0  0  0  0  0  0  0  0  0  0  0  0
    2.0176    0.0809   17.5047 N   0  0  0  0  0  0  0  0  0  0  0  0
    2.6146    1.0716   16.8069 C   0  0  0  0  0  0  0  0  0  0  0  0
    2.3717    1.6728   15.2146 S   0  0  0  0  0  0  0  0  0  0  0  0
    3.5542    2.9000   15.2063 C   0  0  0  0  0  0  0  0  0  0  0  0
    3.8839    3.8375   14.0912 C   0  0  0  0  0  0  0  0  0  0  0  0
    4.1086    2.8070   16.4511 C   0  0  0  0  0  0  0  0  0  0  0  0
    3.6228    1.8626   17.2768 C   0  0  0  0  0  0  0  0  0  0  0  0
    3.7885    0.2292   20.6489 C   0  0  0  0  0  0  0  0  0  0  0  0
    4.1026   -0.0123   21.7357 N   0  0  0  0  0  0  0  0  0  0  0  0
  3  4  1  0  0  0
  4  5  2  0  0  0
  5  1  1  0  0  0
  1 14  1  0  0  0
 14 15  2  0  0  0
 15 16  1  0  0  0
 16 17  2  0  0  0
 17 18  1  0  0  0
 18 19  1  0  0  0
 19 20  1  0  0  0
 20 21  1  0  0  0
 20 22  2  0  0  0
 22 23  1  0  0  0
 15 24  1  0  0  0
 24 25  3  0  0  0
  5  6  1  0  0  0
  6  7  2  0  0  0
  7  8  1  0  0  0
  8  9  1  0  0  0
  9 10  1  0  0  0
 10 11  2  0  0  0
 11 12  1  0  0  0
 12  4  1  0  0  0
 23 14  1  0  0  0
 12  8  2  0  0  0
 23 18  2  0  0  0
  1  2  1  0  0  0
  9 13  1  0  0  0
M  END
> <minimizedAffinity>
-8.55005

> <CNNscore>
0.6267982721

> <CNNaffinity>
6.6436600685

> <CNN_VS>
4.1642346382

> <CNNaffinity_variance>
0.3236943483

$$$$
[H]c1nc2sc(C([H])([H])[H])c([H])c2c(N([H])c2c([H])c([H])c3c(c([H])c([H])n3[H])c2C([H])([H])[H])c1C#N


 25 28  0  0  0  0  0  0  0  0999 V2000
    4.9833    1.7395   19.2880 N   0  0  0  0  0  0  0  0  0  0  0  0
    5.9637    1.3386   19.2624 H   0  0  0  0  0  0  0  0  0  0  0  0
    5.4237    3.4832   17.0519 C   0  0  0  0  0  0  0  0  0  0  0  0
    4.3521    2.4316   17.0634 C   0  0  0  0  0  0  0  0  0  0  0  0
    4.1640    1.6090   18.1509 C   0  0  0  0  0  0  0  0  0  0  0  0
    3.1584    0.6460   18.1215 C   0  0  0  0  0  0  0  0  0  0  0  0
    2.3499    0.5098   17.0118 C   0  0  0  0  0  0  0  0  0  0  0  0
    2.5193    1.3270   15.9024 C   0  0  0  0  0  0  0  0  0  0  0  0
    1.9027    1.4317   14.7014 N   0  0  0  0  0  0  0  0  0  0  0  0
    2.4713    2.4134   13.9743 C   0  0  0  0  0  0  0  0  0  0  0  0
    3.4845    2.9441   14.7521 C   0  0  0  0  0  0  0  0  0  0  0  0
    3.5215    2.2650   15.9689 C   0  0  0  0  0  0  0  0  0  0  0  0
    1.1013    0.8290   14.3974 H   0  0  0  0  0  0  0  0  0  0  0  0
    4.5701    2.3847   20.4839 C   0  0  0  0  0  0  0  0  0  0  0  0
    4.0099    1.6144   21.4741 C   0  0  0  0  0  0  0  0  0  0  0  0
    3.5718    2.1172   22.6725 C   0  0  0  0  0  0  0  0  0  0  0  0
    3.7195    3.4435   22.8423 N   0  0  0  0  0  0  0  0  0  0  0  0
    4.2678    4.2185   21.8813 C   0  0  0  0  0  0  0  0  0  0  0  0
    4.5858    5.9061   21.7987 S   0  0  0  0  0  0  0  0  0  0  0  0
    5.2756    5.9746   20.2418 C   0  0  0  0  0  0  0  0  0  0  0  0
    5.7887    7.1816   19.5269 C   0  0  0  0  0  0  0  0  0  0  0  0
    5.2390    4.6738   19.8271 C   0  0  0  0  0  0  0  0  0  0  0  0
    4.7183    3.7678   20.6744 C   0  0  0  0  0  0  0  0  0  0  0  0
    3.8421    0.1764   21.3077 C   0  0  0  0  0  0  0  0  0  0  0  0
    3.6885   -0.9625   21.1763 N   0  0  0  0  0  0  0  0  0  0  0  0
  3  4  1  0  0  0
  4  5  2  0  0  0
  5  1  1  0  0  0
  1 14  1  0  0  0
 14 15  2  0  0  0
 15 16  1  0  0  0
 16 17  2  0  0  0
 17 18  1  0  0  0
 18 19  1  0  0  0
 19 20  1  0  0  0
 20 21  1  0  0  0
 20 22  2  0  0  0
 22 23  1  0  0  0
 15 24  1  0  0  0
 24 25  3  0  0  0
  5  6  1  0  0  0
  6  7  2  0  0  0
  7  8  1  0  0  0
  8  9  1  0  0  0
  9 10  1  0  0  0
 10 11  2  0  0  0
 11 12  1  0  0  0
 12  4  1  0  0  0
 23 14  1  0  0  0
 12  8  2  0  0  0
 23 18  2  0  0  0
  1  2  1  0  0  0
  9 13  1  0  0  0
M  END
> <minimizedAffinity>
-8.49463

> <CNNscore>
0.5751760602

> <CNNaffinity>
6.4442839622

> <CNN_VS>
3.7065978050

> <CNNaffinity_variance>
0.4837866426

$$$$
[H]c1nc2sc(C([H])([H])[H])c([H])c2c(N([H])c2c([H])c([H])c3c(c([H])c([H])n3[H])c2C([H])([H])[H])c1C#N


 25 28  0  0  0  0  0  0  0  0999 V2000
    4.8642    1.7113   19.2389 N   0  0  0  0  0  0  0  0  0  0  0  0
    5.4624    0.8399   19.3119 H   0  0  0  0  0  0  0  0  0  0  0  0
    2.8971    0.2098   17.7864 C   0  0  0  0  0  0  0  0  0  0  0  0
    3.5264    1.4611   17.2455 C   0  0  0  0  0  0  0  0  0  0  0  0
    4.4680    2.1610   17.9653 C   0  0  0  0  0  0  0  0  0  0  0  0
    5.0278    3.3173   17.4276 C   0  0  0  0  0  0  0  0  0  0  0  0
    4.6463    3.7667   16.1802 C   0  0  0  0  0  0  0  0  0  0  0  0
    3.6987    3.0788   15.4343 C   0  0  0  0  0  0  0  0  0  0  0  0
    3.1361    3.2646   14.2167 N   0  0  0  0  0  0  0  0  0  0  0  0
    2.2502    2.2816   13.9625 C   0  0  0  0  0  0  0  0  0  0  0  0
    2.2590    1.4475   15.0659 C   0  0  0  0  0  0  0  0  0  0  0  0
    3.1693    1.9428   15.9981 C   0  0  0  0  0  0  0  0  0  0  0  0
    3.3674    4.0620   13.5776 H   0  0  0  0  0  0  0  0  0  0  0  0
    4.5060    2.3634   20.4488 C   0  0  0  0  0  0  0  0  0  0  0  0
    3.8893    1.6203   21.4261 C   0  0  0  0  0  0  0  0  0  0  0  0
    3.4950    2.1324   22.6357 C   0  0  0  0  0  0  0  0  0  0  0  0
    3.7472    3.4394   22.8306 N   0  0  0  0  0  0  0  0  0  0  0  0
    4.3524    4.1876   21.8826 C   0  0  0  0  0  0  0  0  0  0  0  0
    4.8022    5.8462   21.8314 S   0  0  0  0  0  0  0  0  0  0  0  0
    5.4915    5.8907   20.2734 C   0  0  0  0  0  0  0  0  0  0  0  0
    6.0963    7.0673   19.5799 C   0  0  0  0  0  0  0  0  0  0  0  0
    5.3515    4.6052   19.8337 C   0  0  0  0  0  0  0  0  0  0  0  0
    4.7631    3.7266   20.6654 C   0  0  0  0  0  0  0  0  0  0  0  0
    3.6083    0.2035   21.2326 C   0  0  0  0  0  0  0  0  0  0  0  0
    3.4012   -0.9222   21.0660 N   0  0  0  0  0  0  0  0  0  0  0  0
  3  4  1  0  0  0
  4  5  2  0  0  0
  5  1  1  0  0  0
  1 14  1  0  0  0
 14 15  2  0  0  0
 15 16  1  0  0  0
 16 17  2  0  0  0
 17 18  1  0  0  0
 18 19  1  0  0  0
 19 20  1  0  0  0
 20 21  1  0  0  0
 20 22  2  0  0  0
 22 23  1  0  0  0
 15 24  1  0  0  0
 24 25  3  0  0  0
  5  6  1  0  0  0
  6  7  2  0  0  0
  7  8  1  0  0  0
  8  9  1  0  0  0
  9 10  1  0  0  0
 10 11  2  0  0  0
 11 12  1  0  0  0
 12  4  1  0  0  0
 23 14  1  0  0  0
 12  8  2  0  0  0
 23 18  2  0  0  0
  1  2  1  0  0  0
  9 13  1  0  0  0
M  END
> <minimizedAffinity>
-8.21952

> <CNNscore>
0.5596852303

> <CNNaffinity>
6.5142698288

> <CNN_VS>
3.6459405422

> <CNNaffinity_variance>
0.2340469658

$$$$
[H]c1nc2sc(C([H])([H])[H])c([H])c2c(N([H])c2c([H])c([H])c3c(c([H])c([H])n3[H])c2C([H])([H])[H])c1C#N


 25 28  0  0  0  0  0  0  0  0999 V2000
    4.6048    2.3197   17.8015 N   0  0  0  0  0  0  0  0  0  0  0  0
    5.3959    1.8021   17.3234 H   0  0  0  0  0  0  0  0  0  0  0  0
    6.2087    4.6669   17.4109 C   0  0  0  0  0  0  0  0  0  0  0  0
    4.7799    4.5748   16.9589 C   0  0  0  0  0  0  0  0  0  0  0  0
    4.0345    3.4353   17.1599 C   0  0  0  0  0  0  0  0  0  0  0  0
    2.7121    3.3905   16.7254 C   0  0  0  0  0  0  0  0  0  0  0  0
    2.1436    4.4784   16.0955 C   0  0  0  0  0  0  0  0  0  0  0  0
    2.8742    5.6393   15.8808 C   0  0  0  0  0  0  0  0  0  0  0  0
    2.6022    6.8361   15.3087 N   0  0  0  0  0  0  0  0  0  0  0  0
    3.6889    7.6312   15.3624 C   0  0  0  0  0  0  0  0  0  0  0  0
    4.6805    6.9019   15.9935 C   0  0  0  0  0  0  0  0  0  0  0  0
    4.1751    5.6454   16.3235 C   0  0  0  0  0  0  0  0  0  0  0  0
    1.6762    7.0908   14.8899 H   0  0  0  0  0  0  0  0  0  0  0  0
    4.1783    1.8391   19.0681 C   0  0  0  0  0  0  0  0  0  0  0  0
    3.3389    0.7518   19.0983 C   0  0  0  0  0  0  0  0  0  0  0  0
    2.8579    0.1942   20.2553 C   0  0  0  0  0  0  0  0  0  0  0  0
    3.2575    0.7786   21.3993 N   0  0  0  0  0  0  0  0  0  0  0  0
    4.0823    1.8483   21.3915 C   0  0  0  0  0  0  0  0  0  0  0  0
    4.7573    2.7970   22.6565 S   0  0  0  0  0  0  0  0  0  0  0  0
    5.6511    3.9027   21.7169 C   0  0  0  0  0  0  0  0  0  0  0  0
    6.4995    5.0318   22.2034 C   0  0  0  0  0  0  0  0  0  0  0  0
    5.3977    3.5002   20.4366 C   0  0  0  0  0  0  0  0  0  0  0  0
    4.5874    2.4393   20.2697 C   0  0  0  0  0  0  0  0  0  0  0  0
    2.8959    0.1061   17.8693 C   0  0  0  0  0  0  0  0  0  0  0  0
    2.5371   -0.3884   16.8871 N   0  0  0  0  0  0  0  0  0  0  0  0
  3  4  1  0  0  0
  4  5  2  0  0  0
  5  1  1  0  0  0
  1 14  1  0  0  0
 14 15  2  0  0  0
 15 16  1  0  0  0
 16 17  2  0  0  0
 17 18  1  0  0  0
 18 19  1  0  0  0
 19 20  1  0  0  0
 20 21  1  0  0  0
 20 22  2  0  0  0
 22 23  1  0  0  0
 15 24  1  0  0  0
 24 25  3  0  0  0
  5  6  1  0  0  0
  6  7  2  0  0  0
  7  8  1  0  0  0
  8  9  1  0  0  0
  9 10  1  0  0  0
 10 11  2  0  0  0
 11 12  1  0  0  0
 12  4  1  0  0  0
 23 14  1  0  0  0
 12  8  2  0  0  0
 23 18  2  0  0  0
  1  2  1  0  0  0
  9 13  1  0  0  0
M  END
> <minimizedAffinity>
-7.48154

> <CNNscore>
0.5429399610

> <CNNaffinity>
6.4221925735

> <CNN_VS>
3.4868650436

> <CNNaffinity_variance>
0.2028795928

$$$$
[H]c1nc2sc(C([H])([H])[H])c([H])c2c(N([H])c2c([H])c([H])c3c(c([H])c([H])n3[H])c2C([H])([H])[H])c1C#N


 25 28  0  0  0  0  0  0  0  0999 V2000
    5.4724    3.1348   20.2052 N   0  0  0  0  0  0  0  0  0  0  0  0
    6.5081    2.9134   20.2324 H   0  0  0  0  0  0  0  0  0  0  0  0
    6.7431    5.0418   21.9322 C   0  0  0  0  0  0  0  0  0  0  0  0
    5.6563    5.4178   20.9669 C   0  0  0  0  0  0  0  0  0  0  0  0
    5.0647    4.4810   20.1502 C   0  0  0  0  0  0  0  0  0  0  0  0
    4.0598    4.8709   19.2684 C   0  0  0  0  0  0  0  0  0  0  0  0
    3.6528    6.1878   19.2068 C   0  0  0  0  0  0  0  0  0  0  0  0
    4.2337    7.1516   20.0198 C   0  0  0  0  0  0  0  0  0  0  0  0
    4.0543    8.4837   20.1842 N   0  0  0  0  0  0  0  0  0  0  0  0
    4.8972    8.9503   21.1263 C   0  0  0  0  0  0  0  0  0  0  0  0
    5.6335    7.8662   21.5688 C   0  0  0  0  0  0  0  0  0  0  0  0
    5.2215    6.7287   20.8765 C   0  0  0  0  0  0  0  0  0  0  0  0
    3.3571    9.0537   19.6486 H   0  0  0  0  0  0  0  0  0  0  0  0
    4.5675    2.0403   20.2264 C   0  0  0  0  0  0  0  0  0  0  0  0
    4.2798    1.4623   21.4392 C   0  0  0  0  0  0  0  0  0  0  0  0
    3.4240    0.4016   21.5922 C   0  0  0  0  0  0  0  0  0  0  0  0
    2.8586   -0.0645   20.4639 N   0  0  0  0  0  0  0  0  0  0  0  0
    3.1281    0.4896   19.2618 C   0  0  0  0  0  0  0  0  0  0  0  0
    2.5778    0.1294   17.6733 S   0  0  0  0  0  0  0  0  0  0  0  0
    3.4343    1.3258   16.8133 C   0  0  0  0  0  0  0  0  0  0  0  0
    3.4118    1.5792   15.3415 C   0  0  0  0  0  0  0  0  0  0  0  0
    4.1292    1.9764   17.7928 C   0  0  0  0  0  0  0  0  0  0  0  0
    3.9704    1.5438   19.0567 C   0  0  0  0  0  0  0  0  0  0  0  0
    4.8827    1.9538   22.6715 C   0  0  0  0  0  0  0  0  0  0  0  0
    5.3752    2.3289   23.6486 N   0  0  0  0  0  0  0  0  0  0  0  0
  3  4  1  0  0  0
  4  5  2  0  0  0
  5  1  1  0  0  0
  1 14  1  0  0  0
 14 15  2  0  0  0
 15 16  1  0  0  0
 16 17  2  0  0  0
 17 18  1  0  0  0
 18 19  1  0  0  0
 19 20  1  0  0  0
 20 21  1  0  0  0
 20 22  2  0  0  0
 22 23  1  0  0  0
 15 24  1  0  0  0
 24 25  3  0  0  0
  5  6  1  0  0  0
  6  7  2  0  0  0
  7  8  1  0  0  0
  8  9  1  0  0  0
  9 10  1  0  0  0
 10 11  2  0  0  0
 11 12  1  0  0  0
 12  4  1  0  0  0
 23 14  1  0  0  0
 12  8  2  0  0  0
 23 18  2  0  0  0
  1  2  1  0  0  0
  9 13  1  0  0  0
M  END
> <minimizedAffinity>
-8.67282

> <CNNscore>
0.5198170543

> <CNNaffinity>
6.5753645897

> <CNN_VS>
3.4179866314

> <CNNaffinity_variance>
0.2592972219

$$$$
[H]c1nc2sc(C([H])([H])[H])c([H])c2c(N([H])c2c([H])c([H])c3c(c([H])c([H])n3[H])c2C([H])([H])[H])c1C#N


 25 28  0  0  0  0  0  0  0  0999 V2000
    5.3953    3.3732   18.1911 N   0  0  0  0  0  0  0  0  0  0  0  0
    6.3821    3.5688   17.8588 H   0  0  0  0  0  0  0  0  0  0  0  0
    4.2036    5.0562   16.1957 C   0  0  0  0  0  0  0  0  0  0  0  0
    3.8841    3.5947   16.3221 C   0  0  0  0  0  0  0  0  0  0  0  0
    4.4716    2.8116   17.2896 C   0  0  0  0  0  0  0  0  0  0  0  0
    4.1478    1.4596   17.3732 C   0  0  0  0  0  0  0  0  0  0  0  0
    3.2436    0.8993   16.4945 C   0  0  0  0  0  0  0  0  0  0  0  0
    2.6375    1.6677   15.5098 C   0  0  0  0  0  0  0  0  0  0  0  0
    1.7376    1.4124   14.5307 N   0  0  0  0  0  0  0  0  0  0  0  0
    1.4797    2.5376   13.8357 C   0  0  0  0  0  0  0  0  0  0  0  0
    2.2495    3.5370   14.4032 C   0  0  0  0  0  0  0  0  0  0  0  0
    2.9821    2.9970   15.4589 C   0  0  0  0  0  0  0  0  0  0  0  0
    1.3133    0.4710   14.3529 H   0  0  0  0  0  0  0  0  0  0  0  0
    5.0807    3.6980   19.5375 C   0  0  0  0  0  0  0  0  0  0  0  0
    5.2963    4.9878   19.9591 C   0  0  0  0  0  0  0  0  0  0  0  0
    5.0337    5.4257   21.2319 C   0  0  0  0  0  0  0  0  0  0  0  0
    4.5385    4.5055   22.0793 N   0  0  0  0  0  0  0  0  0  0  0  0
    4.3193    3.2324   21.6847 C   0  0  0  0  0  0  0  0  0  0  0  0
    3.7091    1.8544   22.5122 S   0  0  0  0  0  0  0  0  0  0  0  0
    3.7870    0.7207   21.2421 C   0  0  0  0  0  0  0  0  0  0  0  0
    3.3940   -0.7198   21.2837 C   0  0  0  0  0  0  0  0  0  0  0  0
    4.2890    1.4509   20.2028 C   0  0  0  0  0  0  0  0  0  0  0  0
    4.5636    2.7478   20.4324 C   0  0  0  0  0  0  0  0  0  0  0  0
    5.8319    5.9976   19.0553 C   0  0  0  0  0  0  0  0  0  0  0  0
    6.2569    6.8128   18.3532 N   0  0  0  0  0  0  0  0  0  0  0  0
  3  4  1  0  0  0
  4  5  2  0  0  0
  5  1  1  0  0  0
  1 14  1  0  0  0
 14 15  2  0  0  0
 15 16  1  0  0  0
 16 17  2  0  0  0
 17 18  1  0  0  0
 18 19  1  0  0  0
 19 20  1  0  0  0
 20 21  1  0  0  0
 20 22  2  0  0  0
 22 23  1  0  0  0
 15 24  1  0  0  0
 24 25  3  0  0  0
  5  6  1  0  0  0
  6  7  2  0  0  0
  7  8  1  0  0  0
  8  9  1  0  0  0
  9 10  1  0  0  0
 10 11  2  0  0  0
 11 12  1  0  0  0
 12  4  1  0  0  0
 23 14  1  0  0  0
 12  8  2  0  0  0
 23 18  2  0  0  0
  1  2  1  0  0  0
  9 13  1  0  0  0
M  END
> <minimizedAffinity>
-8.01971

> <CNNscore>
0.4597037137

> <CNNaffinity>
6.4189591408

> <CNN_VS>
2.9508192539

> <CNNaffinity_variance>
0.4506598413

$$$$
[H]c1nc2sc(C([H])([H])[H])c([H])c2c(N([H])c2c([H])c([H])c3c(c([H])c([H])n3[H])c2C([H])([H])[H])c1C#N


 25 28  0  0  0  0  0  0  0  0999 V2000
    4.8217    4.6915   16.1398 N   0  0  0  0  0  0  0  0  0  0  0  0
    5.7539    4.7839   15.6450 H   0  0  0  0  0  0  0  0  0  0  0  0
    4.8630    7.4419   15.3228 C   0  0  0  0  0  0  0  0  0  0  0  0
    4.4497    7.0097   16.7000 C   0  0  0  0  0  0  0  0  0  0  0  0
    4.4397    5.6823   17.0638 C   0  0  0  0  0  0  0  0  0  0  0  0
    4.0496    5.3231   18.3516 C   0  0  0  0  0  0  0  0  0  0  0  0
    3.6734    6.2864   19.2649 C   0  0  0  0  0  0  0  0  0  0  0  0
    3.6749    7.6318   18.9225 C   0  0  0  0  0  0  0  0  0  0  0  0
    3.3674    8.7754   19.5791 N   0  0  0  0  0  0  0  0  0  0  0  0
    3.5452    9.8361   18.7672 C   0  0  0  0  0  0  0  0  0  0  0  0
    3.9813    9.3354   17.5538 C   0  0  0  0  0  0  0  0  0  0  0  0
    4.0658    7.9469   17.6433 C   0  0  0  0  0  0  0  0  0  0  0  0
    3.0403    8.8127   20.5738 H   0  0  0  0  0  0  0  0  0  0  0  0
    4.0226    3.5601   15.8261 C   0  0  0  0  0  0  0  0  0  0  0  0
    3.4411    3.5036   14.5825 C   0  0  0  0  0  0  0  0  0  0  0  0
    2.6491    2.4669   14.1597 C   0  0  0  0  0  0  0  0  0  0  0  0
    2.4597    1.4730   15.0463 N   0  0  0  0  0  0  0  0  0  0  0  0
    3.0222    1.5093   16.2738 C   0  0  0  0  0  0  0  0  0  0  0  0
    2.9709    0.4185   17.6018 S   0  0  0  0  0  0  0  0  0  0  0  0
    3.9554    1.2783   18.6954 C   0  0  0  0  0  0  0  0  0  0  0  0
    4.3349    0.8799   20.0840 C   0  0  0  0  0  0  0  0  0  0  0  0
    4.2988    2.3975   17.9919 C   0  0  0  0  0  0  0  0  0  0  0  0
    3.8164    2.5159   16.7416 C   0  0  0  0  0  0  0  0  0  0  0  0
    3.6353    4.5709   13.6094 C   0  0  0  0  0  0  0  0  0  0  0  0
    3.7891    5.4318   12.8523 N   0  0  0  0  0  0  0  0  0  0  0  0
  3  4  1  0  0  0
  4  5  2  0  0  0
  5  1  1  0  0  0
  1 14  1  0  0  0
 14 15  2  0  0  0
 15 16  1  0  0  0
 16 17  2  0  0  0
 17 18  1  0  0  0
 18 19  1  0  0  0
 19 20  1  0  0  0
 20 21  1  0  0  0
 20 22  2  0  0  0
 22 23  1  0  0  0
 15 24  1  0  0  0
 24 25  3  0  0  0
  5  6  1  0  0  0
  6  7  2  0  0  0
  7  8  1  0  0  0
  8  9  1  0  0  0
  9 10  1  0  0  0
 10 11  2  0  0  0
 11 12  1  0  0  0
 12  4  1  0  0  0
 23 14  1  0  0  0
 12  8  2  0  0  0
 23 18  2  0  0  0
  1  2  1  0  0  0
  9 13  1  0  0  0
M  END
> <minimizedAffinity>
-7.61267

> <CNNscore>
0.4038777947

> <CNNaffinity>
5.9728560448

> <CNN_VS>
2.4123039246

> <CNNaffinity_variance>
0.3117648661

$$$$
[H]c1c(Cl)c([H])c2c(C3=C(c4c([H])n([H])c5c([H])c([H])c([H])c([H])c45)C(=O)N([H])C3=O)nc(N3C([H])([H])C([H])([H])N(C([H])([H])[H])C([H])([H])C3([H])[H])nc2c1[H]


 36 41  0  0  0  0  0  0  0  0999 V2000
    3.7696    3.3523   16.6967 C   0  0  0  0  0  0  0  0  0  0  0  0
    4.4262    3.8024   17.7688 N   0  0  0  0  0  0  0  0  0  0  0  0
    4.4975    3.0694   18.9239 C   0  0  0  0  0  0  0  0  0  0  0  0
    3.8572    1.8527   18.9237 C   0  0  0  0  0  0  0  0  0  0  0  0
    3.8549    1.0754   20.0577 C   0  0  0  0  0  0  0  0  0  0  0  0
    3.1750   -0.1367   20.0208 C   0  0  0  0  0  0  0  0  0  0  0  0
    3.1996   -1.0979   21.4876 Cl  0  0  0  0  0  0  0  0  0  0  0  0
    2.5041   -0.5953   18.9076 C   0  0  0  0  0  0  0  0  0  0  0  0
    2.5026    0.1861   17.7695 C   0  0  0  0  0  0  0  0  0  0  0  0
    3.1734    1.3829   17.8062 C   0  0  0  0  0  0  0  0  0  0  0  0
    3.1442    2.1472   16.7094 N   0  0  0  0  0  0  0  0  0  0  0  0
    5.2462    3.6070   20.0557 C   0  0  0  0  0  0  0  0  0  0  0  0
    5.3813    4.9004   20.3645 C   0  0  0  0  0  0  0  0  0  0  0  0
    6.2310    5.0157   21.5835 C   0  0  0  0  0  0  0  0  0  0  0  0
    6.5363    6.1252   22.1272 O   0  0  0  0  0  0  0  0  0  0  0  0
    6.6069    3.7197   21.9895 N   0  0  0  0  0  0  0  0  0  0  0  0
    6.0116    2.8356   21.0584 C   0  0  0  0  0  0  0  0  0  0  0  0
    6.0974    1.5715   21.0432 O   0  0  0  0  0  0  0  0  0  0  0  0
    7.1907    3.4380   22.7900 H   0  0  0  0  0  0  0  0  0  0  0  0
    4.8309    6.0805   19.7207 C   0  0  0  0  0  0  0  0  0  0  0  0
    3.4681    6.4205   19.7090 C   0  0  0  0  0  0  0  0  0  0  0  0
    3.2875    7.5444   19.0018 N   0  0  0  0  0  0  0  0  0  0  0  0
    4.4806    7.9471   18.5527 C   0  0  0  0  0  0  0  0  0  0  0  0
    4.7855    9.0473   17.7709 C   0  0  0  0  0  0  0  0  0  0  0  0
    6.1013    9.2581   17.4115 C   0  0  0  0  0  0  0  0  0  0  0  0
    7.0705    8.3752   17.8358 C   0  0  0  0  0  0  0  0  0  0  0  0
    6.7669    7.2777   18.6160 C   0  0  0  0  0  0  0  0  0  0  0  0
    5.4625    7.0447   18.9902 C   0  0  0  0  0  0  0  0  0  0  0  0
    2.3799    8.0229   18.8300 H   0  0  0  0  0  0  0  0  0  0  0  0
    3.1465    5.9038   11.9149 C   0  0  0  0  0  0  0  0  0  0  0  0
    3.9474    5.5265   13.0495 N   0  0  0  0  0  0  0  0  0  0  0  0
    4.2099    4.1304   13.1499 C   0  0  0  0  0  0  0  0  0  0  0  0
    3.3511    3.4809   14.2215 C   0  0  0  0  0  0  0  0  0  0  0  0
    3.6787    4.0860   15.4870 N   0  0  0  0  0  0  0  0  0  0  0  0
    3.9279    5.5074   15.5246 C   0  0  0  0  0  0  0  0  0  0  0  0
    3.5834    6.1995   14.2506 C   0  0  0  0  0  0  0  0  0  0  0  0
 30 31  1  0  0  0
 31 32  1  0  0  0
 32 33  1  0  0  0
 33 34  1  0  0  0
 34 35  1  0  0  0
 35 36  1  0  0  0
 34  1  1  0  0  0
  1  2  2  0  0  0
  2  3  1  0  0  0
  3 12  1  0  0  0
 12 13  2  0  0  0
 13 14  1  0  0  0
 14 15  2  0  0  0
 14 16  1  0  0  0
 16 17  1  0  0  0
 17 18  2  0  0  0
 13 20  1  0  0  0
 20 21  2  0  0  0
 21 22  1  0  0  0
 22 23  1  0  0  0
 23 24  2  0  0  0
 24 25  1  0  0  0
 25 26  2  0  0  0
 26 27  1  0  0  0
 27 28  2  0  0  0
  3  4  2  0  0  0
  4  5  1  0  0  0
  5  6  2  0  0  0
  6  7  1  0  0  0
  6  8  1  0  0  0
  8  9  2  0  0  0
  9 10  1  0  0  0
 10 11  2  0  0  0
 36 31  1  0  0  0
 11  1  1  0  0  0
 17 12  1  0  0  0
 28 20  1  0  0  0
 10  4  1  0  0  0
 28 23  1  0  0  0
 16 19  1  0  0  0
 22 29  1  0  0  0
M  END
> <minimizedAffinity>
-9.42917

> <CNNscore>
0.3314793706

> <CNNaffinity>
7.0266218185

> <CNN_VS>
2.3291802406

> <CNNaffinity_variance>
0.1620951444

$$$$
[H]c1c(Cl)c([H])c2c(C3=C(c4c([H])n([H])c5c([H])c([H])c([H])c([H])c45)C(=O)N([H])C3=O)nc(N3C([H])([H])C([H])([H])N(C([H])([H])[H])C([H])([H])C3([H])[H])nc2c1[H]


 36 41  0  0  0  0  0  0  0  0999 V2000
    5.2473    4.9942    7.3514 C   0  0  0  0  0  0  0  0  0  0  0  0
    3.9846    4.8458    7.7596 N   0  0  0  0  0  0  0  0  0  0  0  0
    3.5600    3.6939    8.3675 C   0  0  0  0  0  0  0  0  0  0  0  0
    4.4965    2.7007    8.5315 C   0  0  0  0  0  0  0  0  0  0  0  0
    4.1372    1.5025    9.1018 C   0  0  0  0  0  0  0  0  0  0  0  0
    5.1102    0.5174    9.2265 C   0  0  0  0  0  0  0  0  0  0  0  0
    4.6100   -0.9944    9.9617 Cl  0  0  0  0  0  0  0  0  0  0  0  0
    6.4126    0.6816    8.8065 C   0  0  0  0  0  0  0  0  0  0  0  0
    6.7737    1.8831    8.2304 C   0  0  0  0  0  0  0  0  0  0  0  0
    5.8129    2.8554    8.1068 C   0  0  0  0  0  0  0  0  0  0  0  0
    6.1627    4.0061    7.5226 N   0  0  0  0  0  0  0  0  0  0  0  0
    2.1719    3.5992    8.8086 C   0  0  0  0  0  0  0  0  0  0  0  0
    1.7230    3.8361   10.0451 C   0  0  0  0  0  0  0  0  0  0  0  0
    0.2495    3.6143   10.0707 C   0  0  0  0  0  0  0  0  0  0  0  0
   -0.4680    3.7665   11.1108 O   0  0  0  0  0  0  0  0  0  0  0  0
   -0.1653    3.2236    8.7819 N   0  0  0  0  0  0  0  0  0  0  0  0
    1.0064    3.2055    7.9882 C   0  0  0  0  0  0  0  0  0  0  0  0
    1.0930    2.9011    6.7613 O   0  0  0  0  0  0  0  0  0  0  0  0
   -1.1130    2.9922    8.4513 H   0  0  0  0  0  0  0  0  0  0  0  0
    2.4373    4.2615   11.2363 C   0  0  0  0  0  0  0  0  0  0  0  0
    3.0493    5.5158   11.3943 C   0  0  0  0  0  0  0  0  0  0  0  0
    3.6529    5.5784   12.5892 N   0  0  0  0  0  0  0  0  0  0  0  0
    3.4572    4.4123   13.2133 C   0  0  0  0  0  0  0  0  0  0  0  0
    3.9030    4.0120   14.4605 C   0  0  0  0  0  0  0  0  0  0  0  0
    3.5890    2.7411   14.8977 C   0  0  0  0  0  0  0  0  0  0  0  0
    2.8463    1.9092   14.0883 C   0  0  0  0  0  0  0  0  0  0  0  0
    2.4010    2.3082   12.8442 C   0  0  0  0  0  0  0  0  0  0  0  0
    2.6987    3.5713   12.3842 C   0  0  0  0  0  0  0  0  0  0  0  0
    4.1818    6.3899   12.9685 H   0  0  0  0  0  0  0  0  0  0  0  0
    7.0512    9.7116    5.2885 C   0  0  0  0  0  0  0  0  0  0  0  0
    6.3176    8.4794    5.1677 N   0  0  0  0  0  0  0  0  0  0  0  0
    5.1663    8.3927    6.0014 C   0  0  0  0  0  0  0  0  0  0  0  0
    5.4182    7.4975    7.2026 C   0  0  0  0  0  0  0  0  0  0  0  0
    5.7177    6.1735    6.7207 N   0  0  0  0  0  0  0  0  0  0  0  0
    6.5346    6.0416    5.5378 C   0  0  0  0  0  0  0  0  0  0  0  0
    7.1508    7.3264    5.1016 C   0  0  0  0  0  0  0  0  0  0  0  0
 30 31  1  0  0  0
 31 32  1  0  0  0
 32 33  1  0  0  0
 33 34  1  0  0  0
 34 35  1  0  0  0
 35 36  1  0  0  0
 34  1  1  0  0  0
  1  2  2  0  0  0
  2  3  1  0  0  0
  3 12  1  0  0  0
 12 13  2  0  0  0
 13 14  1  0  0  0
 14 15  2  0  0  0
 14 16  1  0  0  0
 16 17  1  0  0  0
 17 18  2  0  0  0
 13 20  1  0  0  0
 20 21  2  0  0  0
 21 22  1  0  0  0
 22 23  1  0  0  0
 23 24  2  0  0  0
 24 25  1  0  0  0
 25 26  2  0  0  0
 26 27  1  0  0  0
 27 28  2  0  0  0
  3  4  2  0  0  0
  4  5  1  0  0  0
  5  6  2  0  0  0
  6  7  1  0  0  0
  6  8  1  0  0  0
  8  9  2  0  0  0
  9 10  1  0  0  0
 10 11  2  0  0  0
 36 31  1  0  0  0
 11  1  1  0  0  0
 17 12  1  0  0  0
 28 20  1  0  0  0
 10  4  1  0  0  0
 28 23  1  0  0  0
 16 19  1  0  0  0
 22 29  1  0  0  0
M  END
> <minimizedAffinity>
-6.23040

> <CNNscore>
0.2776722610

> <CNNaffinity>
5.7987203598

> <CNN_VS>
1.6101437807

> <CNNaffinity_variance>
0.2578759491

$$$$
[H]c1c(Cl)c([H])c2c(C3=C(c4c([H])n([H])c5c([H])c([H])c([H])c([H])c45)C(=O)N([H])C3=O)nc(N3C([H])([H])C([H])([H])N(C([H])([H])[H])C([H])([H])C3([H])[H])nc2c1[H]


 36 41  0  0  0  0  0  0  0  0999 V2000
    3.2945    7.6095    7.9619 C   0  0  0  0  0  0  0  0  0  0  0  0
    3.5882    7.2095    9.2016 N   0  0  0  0  0  0  0  0  0  0  0  0
    2.6240    6.7197   10.0426 C   0  0  0  0  0  0  0  0  0  0  0  0
    1.3424    6.6652    9.5475 C   0  0  0  0  0  0  0  0  0  0  0  0
    0.3149    6.2181   10.3438 C   0  0  0  0  0  0  0  0  0  0  0  0
   -0.9690    6.2020    9.8107 C   0  0  0  0  0  0  0  0  0  0  0  0
   -2.2496    5.6220   10.8595 Cl  0  0  0  0  0  0  0  0  0  0  0  0
   -1.2617    6.6124    8.5279 C   0  0  0  0  0  0  0  0  0  0  0  0
   -0.2311    7.0649    7.7285 C   0  0  0  0  0  0  0  0  0  0  0  0
    1.0362    7.0812    8.2551 C   0  0  0  0  0  0  0  0  0  0  0  0
    2.0249    7.5470    7.4848 N   0  0  0  0  0  0  0  0  0  0  0  0
    3.0107    6.2807   11.3798 C   0  0  0  0  0  0  0  0  0  0  0  0
    3.3660    5.0397   11.7265 C   0  0  0  0  0  0  0  0  0  0  0  0
    3.6711    5.0186   13.1852 C   0  0  0  0  0  0  0  0  0  0  0  0
    4.0444    3.9757   13.8119 O   0  0  0  0  0  0  0  0  0  0  0  0
    3.4735    6.3149   13.7011 N   0  0  0  0  0  0  0  0  0  0  0  0
    3.0632    7.1088   12.6036 C   0  0  0  0  0  0  0  0  0  0  0  0
    2.7705    8.3415   12.6200 O   0  0  0  0  0  0  0  0  0  0  0  0
    3.5931    6.6501   14.6677 H   0  0  0  0  0  0  0  0  0  0  0  0
    3.4936    3.8402   10.9171 C   0  0  0  0  0  0  0  0  0  0  0  0
    2.4976    2.8589   10.7828 C   0  0  0  0  0  0  0  0  0  0  0  0
    2.9417    1.8668    9.9988 N   0  0  0  0  0  0  0  0  0  0  0  0
    4.1884    2.1656    9.6194 C   0  0  0  0  0  0  0  0  0  0  0  0
    5.0488    1.4350    8.8191 C   0  0  0  0  0  0  0  0  0  0  0  0
    6.3096    1.9393    8.5721 C   0  0  0  0  0  0  0  0  0  0  0  0
    6.6777    3.1470    9.1240 C   0  0  0  0  0  0  0  0  0  0  0  0
    5.8196    3.8765    9.9221 C   0  0  0  0  0  0  0  0  0  0  0  0
    4.5555    3.3974   10.1834 C   0  0  0  0  0  0  0  0  0  0  0  0
    2.4125    1.0125    9.7301 H   0  0  0  0  0  0  0  0  0  0  0  0
    6.8125    9.4401    4.2155 C   0  0  0  0  0  0  0  0  0  0  0  0
    6.5218    8.9066    5.5200 N   0  0  0  0  0  0  0  0  0  0  0  0
    6.0129    7.5765    5.5148 C   0  0  0  0  0  0  0  0  0  0  0  0
    4.5147    7.5556    5.7650 C   0  0  0  0  0  0  0  0  0  0  0  0
    4.2693    8.1193    7.0676 N   0  0  0  0  0  0  0  0  0  0  0  0
    5.0548    9.2571    7.4827 C   0  0  0  0  0  0  0  0  0  0  0  0
    5.8770    9.8374    6.3836 C   0  0  0  0  0  0  0  0  0  0  0  0
 30 31  1  0  0  0
 31 32  1  0  0  0
 32 33  1  0  0  0
 33 34  1  0  0  0
 34 35  1  0  0  0
 35 36  1  0  0  0
 34  1  1  0  0  0
  1  2  2  0  0  0
  2  3  1  0  0  0
  3 12  1  0  0  0
 12 13  2  0  0  0
 13 14  1  0  0  0
 14 15  2  0  0  0
 14 16  1  0  0  0
 16 17  1  0  0  0
 17 18  2  0  0  0
 13 20  1  0  0  0
 20 21  2  0  0  0
 21 22  1  0  0  0
 22 23  1  0  0  0
 23 24  2  0  0  0
 24 25  1  0  0  0
 25 26  2  0  0  0
 26 27  1  0  0  0
 27 28  2  0  0  0
  3  4  2  0  0  0
  4  5  1  0  0  0
  5  6  2  0  0  0
  6  7  1  0  0  0
  6  8  1  0  0  0
  8  9  2  0  0  0
  9 10  1  0  0  0
 10 11  2  0  0  0
 36 31  1  0  0  0
 11  1  1  0  0  0
 17 12  1  0  0  0
 28 20  1  0  0  0
 10  4  1  0  0  0
 28 23  1  0  0  0
 16 19  1  0  0  0
 22 29  1  0  0  0
M  END
> <minimizedAffinity>
-6.22672

> <CNNscore>
0.2597727478

> <CNNaffinity>
5.7400450706

> <CNN_VS>
1.4911072254

> <CNNaffinity_variance>
0.2098287642

$$$$
[H]c1c(Cl)c([H])c2c(C3=C(c4c([H])n([H])c5c([H])c([H])c([H])c([H])c45)C(=O)N([H])C3=O)nc(N3C([H])([H])C([H])([H])N(C([H])([H])[H])C([H])([H])C3([H])[H])nc2c1[H]


 36 41  0  0  0  0  0  0  0  0999 V2000
    2.8819    6.0331    8.2827 C   0  0  0  0  0  0  0  0  0  0  0  0
    1.8894    6.2678    9.1446 N   0  0  0  0  0  0  0  0  0  0  0  0
    1.1926    5.2436    9.7295 C   0  0  0  0  0  0  0  0  0  0  0  0
    1.5639    3.9663    9.3816 C   0  0  0  0  0  0  0  0  0  0  0  0
    0.8884    2.8872    9.9005 C   0  0  0  0  0  0  0  0  0  0  0  0
    1.2817    1.6143    9.5033 C   0  0  0  0  0  0  0  0  0  0  0  0
    0.3953    0.2661   10.1911 Cl  0  0  0  0  0  0  0  0  0  0  0  0
    2.3109    1.3816    8.6166 C   0  0  0  0  0  0  0  0  0  0  0  0
    2.9876    2.4646    8.0921 C   0  0  0  0  0  0  0  0  0  0  0  0
    2.5990    3.7213    8.4839 C   0  0  0  0  0  0  0  0  0  0  0  0
    3.2403    4.7662    7.9505 N   0  0  0  0  0  0  0  0  0  0  0  0
    0.1307    5.5641   10.6782 C   0  0  0  0  0  0  0  0  0  0  0  0
    0.2519    5.6029   12.0087 C   0  0  0  0  0  0  0  0  0  0  0  0
   -1.0693    5.9577   12.6002 C   0  0  0  0  0  0  0  0  0  0  0  0
   -1.2721    6.0775   13.8508 O   0  0  0  0  0  0  0  0  0  0  0  0
   -1.9967    6.1244   11.5524 N   0  0  0  0  0  0  0  0  0  0  0  0
   -1.2770    5.8834   10.3578 C   0  0  0  0  0  0  0  0  0  0  0  0
   -1.7279    5.9194    9.1742 O   0  0  0  0  0  0  0  0  0  0  0  0
   -2.9956    6.3698   11.6075 H   0  0  0  0  0  0  0  0  0  0  0  0
    1.4142    5.3803   12.8512 C   0  0  0  0  0  0  0  0  0  0  0  0
    2.3428    6.3720   13.2077 C   0  0  0  0  0  0  0  0  0  0  0  0
    3.3133    5.8349   13.9598 N   0  0  0  0  0  0  0  0  0  0  0  0
    3.0514    4.5319   14.1046 C   0  0  0  0  0  0  0  0  0  0  0  0
    3.7787    3.5729   14.7873 C   0  0  0  0  0  0  0  0  0  0  0  0
    3.3189    2.2716   14.7880 C   0  0  0  0  0  0  0  0  0  0  0  0
    2.1575    1.9617   14.1143 C   0  0  0  0  0  0  0  0  0  0  0  0
    1.4314    2.9181   13.4334 C   0  0  0  0  0  0  0  0  0  0  0  0
    1.8666    4.2243   13.4179 C   0  0  0  0  0  0  0  0  0  0  0  0
    4.1291    6.3397   14.3621 H   0  0  0  0  0  0  0  0  0  0  0  0
    6.0692    9.8375    6.0176 C   0  0  0  0  0  0  0  0  0  0  0  0
    4.8424    9.4326    6.6516 N   0  0  0  0  0  0  0  0  0  0  0  0
    4.9871    9.0113    8.0043 C   0  0  0  0  0  0  0  0  0  0  0  0
    4.9180    7.4985    8.1237 C   0  0  0  0  0  0  0  0  0  0  0  0
    3.6224    7.0705    7.6620 N   0  0  0  0  0  0  0  0  0  0  0  0
    3.0501    7.7310    6.5130 C   0  0  0  0  0  0  0  0  0  0  0  0
    4.0076    8.6363    5.8168 C   0  0  0  0  0  0  0  0  0  0  0  0
 30 31  1  0  0  0
 31 32  1  0  0  0
 32 33  1  0  0  0
 33 34  1  0  0  0
 34 35  1  0  0  0
 35 36  1  0  0  0
 34  1  1  0  0  0
  1  2  2  0  0  0
  2  3  1  0  0  0
  3 12  1  0  0  0
 12 13  2  0  0  0
 13 14  1  0  0  0
 14 15  2  0  0  0
 14 16  1  0  0  0
 16 17  1  0  0  0
 17 18  2  0  0  0
 13 20  1  0  0  0
 20 21  2  0  0  0
 21 22  1  0  0  0
 22 23  1  0  0  0
 23 24  2  0  0  0
 24 25  1  0  0  0
 25 26  2  0  0  0
 26 27  1  0  0  0
 27 28  2  0  0  0
  3  4  2  0  0  0
  4  5  1  0  0  0
  5  6  2  0  0  0
  6  7  1  0  0  0
  6  8  1  0  0  0
  8  9  2  0  0  0
  9 10  1  0  0  0
 10 11  2  0  0  0
 36 31  1  0  0  0
 11  1  1  0  0  0
 17 12  1  0  0  0
 28 20  1  0  0  0
 10  4  1  0  0  0
 28 23  1  0  0  0
 16 19  1  0  0  0
 22 29  1  0  0  0
M  END
> <minimizedAffinity>
-6.45600

> <CNNscore>
0.1555016786

> <CNNaffinity>
5.7154908180

> <CNN_VS>
0.8887684345

> <CNNaffinity_variance>
0.0697002262

$$$$
[H]c1c(Cl)c([H])c2c(C3=C(c4c([H])n([H])c5c([H])c([H])c([H])c([H])c45)C(=O)N([H])C3=O)nc(N3C([H])([H])C([H])([H])N(C([H])([H])[H])C([H])([H])C3([H])[H])nc2c1[H]


 36 41  0  0  0  0  0  0  0  0999 V2000
    3.6306    0.2519    9.1979 C   0  0  0  0  0  0  0  0  0  0  0  0
    2.8799    1.3432    9.3670 N   0  0  0  0  0  0  0  0  0  0  0  0
    3.4133    2.6010    9.2666 C   0  0  0  0  0  0  0  0  0  0  0  0
    4.7572    2.6815    8.9876 C   0  0  0  0  0  0  0  0  0  0  0  0
    5.3714    3.9087    8.9059 C   0  0  0  0  0  0  0  0  0  0  0  0
    6.7366    3.9430    8.6455 C   0  0  0  0  0  0  0  0  0  0  0  0
    7.4795    5.5287    8.5469 Cl  0  0  0  0  0  0  0  0  0  0  0  0
    7.5024    2.8110    8.4674 C   0  0  0  0  0  0  0  0  0  0  0  0
    6.8874    1.5780    8.5528 C   0  0  0  0  0  0  0  0  0  0  0  0
    5.5397    1.5442    8.8104 C   0  0  0  0  0  0  0  0  0  0  0  0
    4.9562    0.3461    8.9195 N   0  0  0  0  0  0  0  0  0  0  0  0
    2.5373    3.7551    9.4432 C   0  0  0  0  0  0  0  0  0  0  0  0
    2.3623    4.4419   10.5764 C   0  0  0  0  0  0  0  0  0  0  0  0
    1.3776    5.5329   10.3284 C   0  0  0  0  0  0  0  0  0  0  0  0
    1.0074    6.3636   11.2186 O   0  0  0  0  0  0  0  0  0  0  0  0
    0.9628    5.4621    8.9835 N   0  0  0  0  0  0  0  0  0  0  0  0
    1.6648    4.3700    8.4200 C   0  0  0  0  0  0  0  0  0  0  0  0
    1.5865    3.9447    7.2289 O   0  0  0  0  0  0  0  0  0  0  0  0
    0.2920    6.0621    8.4826 H   0  0  0  0  0  0  0  0  0  0  0  0
    2.9782    4.2711   11.8808 C   0  0  0  0  0  0  0  0  0  0  0  0
    4.0533    5.0365   12.3618 C   0  0  0  0  0  0  0  0  0  0  0  0
    4.4081    4.6046   13.5799 N   0  0  0  0  0  0  0  0  0  0  0  0
    3.6053    3.5871   13.9082 C   0  0  0  0  0  0  0  0  0  0  0  0
    3.6042    2.8219   15.0611 C   0  0  0  0  0  0  0  0  0  0  0  0
    2.6821    1.8014   15.1757 C   0  0  0  0  0  0  0  0  0  0  0  0
    1.7933    1.5712   14.1482 C   0  0  0  0  0  0  0  0  0  0  0  0
    1.7936    2.3346   12.9981 C   0  0  0  0  0  0  0  0  0  0  0  0
    2.7018    3.3600   12.8584 C   0  0  0  0  0  0  0  0  0  0  0  0
    5.1732    4.9904   14.1697 H   0  0  0  0  0  0  0  0  0  0  0  0
    1.8740   -4.8680    9.8795 C   0  0  0  0  0  0  0  0  0  0  0  0
    2.1508   -3.7289    9.0446 N   0  0  0  0  0  0  0  0  0  0  0  0
    3.5312   -3.3953    8.9384 C   0  0  0  0  0  0  0  0  0  0  0  0
    3.8740   -2.1804    9.7834 C   0  0  0  0  0  0  0  0  0  0  0  0
    3.1085   -1.0626    9.2940 N   0  0  0  0  0  0  0  0  0  0  0  0
    1.7448   -1.2927    8.8801 C   0  0  0  0  0  0  0  0  0  0  0  0
    1.2422   -2.6495    9.2371 C   0  0  0  0  0  0  0  0  0  0  0  0
 30 31  1  0  0  0
 31 32  1  0  0  0
 32 33  1  0  0  0
 33 34  1  0  0  0
 34 35  1  0  0  0
 35 36  1  0  0  0
 34  1  1  0  0  0
  1  2  2  0  0  0
  2  3  1  0  0  0
  3 12  1  0  0  0
 12 13  2  0  0  0
 13 14  1  0  0  0
 14 15  2  0  0  0
 14 16  1  0  0  0
 16 17  1  0  0  0
 17 18  2  0  0  0
 13 20  1  0  0  0
 20 21  2  0  0  0
 21 22  1  0  0  0
 22 23  1  0  0  0
 23 24  2  0  0  0
 24 25  1  0  0  0
 25 26  2  0  0  0
 26 27  1  0  0  0
 27 28  2  0  0  0
  3  4  2  0  0  0
  4  5  1  0  0  0
  5  6  2  0  0  0
  6  7  1  0  0  0
  6  8  1  0  0  0
  8  9  2  0  0  0
  9 10  1  0  0  0
 10 11  2  0  0  0
 36 31  1  0  0  0
 11  1  1  0  0  0
 17 12  1  0  0  0
 28 20  1  0  0  0
 10  4  1  0  0  0
 28 23  1  0  0  0
 16 19  1  0  0  0
 22 29  1  0  0  0
M  END
> <minimizedAffinity>
-6.60700

> <CNNscore>
0.1549042314

> <CNNaffinity>
5.7221798897

> <CNN_VS>
0.8863898516

> <CNNaffinity_variance>
0.1232404560

$$$$
[H]c1c(Cl)c([H])c2c(C3=C(c4c([H])n([H])c5c([H])c([H])c([H])c([H])c45)C(=O)N([H])C3=O)nc(N3C([H])([H])C([H])([H])N(C([H])([H])[H])C([H])([H])C3([H])[H])nc2c1[H]


 36 41  0  0  0  0  0  0  0  0999 V2000
    3.6649    4.7814   11.0411 C   0  0  0  0  0  0  0  0  0  0  0  0
    3.8436    5.1242   12.3192 N   0  0  0  0  0  0  0  0  0  0  0  0
    2.8140    5.6124   13.0796 C   0  0  0  0  0  0  0  0  0  0  0  0
    1.5926    5.7345   12.4601 C   0  0  0  0  0  0  0  0  0  0  0  0
    0.5197    6.2496   13.1482 C   0  0  0  0  0  0  0  0  0  0  0  0
   -0.6905    6.3777   12.4760 C   0  0  0  0  0  0  0  0  0  0  0  0
   -2.0335    7.0366   13.3916 Cl  0  0  0  0  0  0  0  0  0  0  0  0
   -0.8666    6.0164   11.1576 C   0  0  0  0  0  0  0  0  0  0  0  0
    0.2111    5.5025   10.4646 C   0  0  0  0  0  0  0  0  0  0  0  0
    1.4059    5.3765   11.1281 C   0  0  0  0  0  0  0  0  0  0  0  0
    2.4523    4.9042   10.4427 N   0  0  0  0  0  0  0  0  0  0  0  0
    3.0676    5.9518   14.4764 C   0  0  0  0  0  0  0  0  0  0  0  0
    2.9865    5.1145   15.5150 C   0  0  0  0  0  0  0  0  0  0  0  0
    3.3104    5.8644   16.7616 C   0  0  0  0  0  0  0  0  0  0  0  0
    3.3227    5.3355   17.9191 O   0  0  0  0  0  0  0  0  0  0  0  0
    3.5851    7.2032   16.4181 N   0  0  0  0  0  0  0  0  0  0  0  0
    3.4382    7.2790   15.0125 C   0  0  0  0  0  0  0  0  0  0  0  0
    3.5865    8.3048   14.2835 O   0  0  0  0  0  0  0  0  0  0  0  0
    3.8418    7.9879   17.0339 H   0  0  0  0  0  0  0  0  0  0  0  0
    2.6703    3.6972   15.5543 C   0  0  0  0  0  0  0  0  0  0  0  0
    1.6508    3.0863   14.8058 C   0  0  0  0  0  0  0  0  0  0  0  0
    1.5955    1.7793   15.0973 N   0  0  0  0  0  0  0  0  0  0  0  0
    2.5395    1.5180   16.0073 C   0  0  0  0  0  0  0  0  0  0  0  0
    2.8483    0.3130   16.6133 C   0  0  0  0  0  0  0  0  0  0  0  0
    3.8649    0.2844   17.5464 C   0  0  0  0  0  0  0  0  0  0  0  0
    4.5410    1.4461   17.8494 C   0  0  0  0  0  0  0  0  0  0  0  0
    4.2336    2.6484   17.2448 C   0  0  0  0  0  0  0  0  0  0  0  0
    3.2250    2.7050   16.3093 C   0  0  0  0  0  0  0  0  0  0  0  0
    0.9355    1.0864   14.6894 H   0  0  0  0  0  0  0  0  0  0  0  0
    7.9258    2.8426    8.2394 C   0  0  0  0  0  0  0  0  0  0  0  0
    6.6933    3.5820    8.3114 N   0  0  0  0  0  0  0  0  0  0  0  0
    6.7614    4.7699    9.0940 C   0  0  0  0  0  0  0  0  0  0  0  0
    6.0992    4.5799   10.4480 C   0  0  0  0  0  0  0  0  0  0  0  0
    4.7092    4.2722   10.2286 N   0  0  0  0  0  0  0  0  0  0  0  0
    4.3631    3.4051    9.1276 C   0  0  0  0  0  0  0  0  0  0  0  0
    5.5463    2.7579    8.4936 C   0  0  0  0  0  0  0  0  0  0  0  0
 30 31  1  0  0  0
 31 32  1  0  0  0
 32 33  1  0  0  0
 33 34  1  0  0  0
 34 35  1  0  0  0
 35 36  1  0  0  0
 34  1  1  0  0  0
  1  2  2  0  0  0
  2  3  1  0  0  0
  3 12  1  0  0  0
 12 13  2  0  0  0
 13 14  1  0  0  0
 14 15  2  0  0  0
 14 16  1  0  0  0
 16 17  1  0  0  0
 17 18  2  0  0  0
 13 20  1  0  0  0
 20 21  2  0  0  0
 21 22  1  0  0  0
 22 23  1  0  0  0
 23 24  2  0  0  0
 24 25  1  0  0  0
 25 26  2  0  0  0
 26 27  1  0  0  0
 27 28  2  0  0  0
  3  4  2  0  0  0
  4  5  1  0  0  0
  5  6  2  0  0  0
  6  7  1  0  0  0
  6  8  1  0  0  0
  8  9  2  0  0  0
  9 10  1  0  0  0
 10 11  2  0  0  0
 36 31  1  0  0  0
 11  1  1  0  0  0
 17 12  1  0  0  0
 28 20  1  0  0  0
 10  4  1  0  0  0
 28 23  1  0  0  0
 16 19  1  0  0  0
 22 29  1  0  0  0
M  END
> <minimizedAffinity>
-7.83184

> <CNNscore>
0.1515835077

> <CNNaffinity>
6.1933603287

> <CNN_VS>
0.9388113022

> <CNNaffinity_variance>
0.1715976000

$$$$
[H]c1c(Cl)c([H])c2c(C3=C(c4c([H])n([H])c5c([H])c([H])c([H])c([H])c45)C(=O)N([H])C3=O)nc(N3C([H])([H])C([H])([H])N(C([H])([H])[H])C([H])([H])C3([H])[H])nc2c1[H]


 36 41  0  0  0  0  0  0  0  0999 V2000
    3.7095    4.2823   13.4846 C   0  0  0  0  0  0  0  0  0  0  0  0
    4.5385    4.0334   12.4678 N   0  0  0  0  0  0  0  0  0  0  0  0
    4.5480    4.8171   11.3442 C   0  0  0  0  0  0  0  0  0  0  0  0
    3.6605    5.8668   11.3159 C   0  0  0  0  0  0  0  0  0  0  0  0
    3.5870    6.6768   10.2075 C   0  0  0  0  0  0  0  0  0  0  0  0
    2.6589    7.7119   10.2119 C   0  0  0  0  0  0  0  0  0  0  0  0
    2.6001    8.7225    8.7796 Cl  0  0  0  0  0  0  0  0  0  0  0  0
    1.8105    7.9641   11.2684 C   0  0  0  0  0  0  0  0  0  0  0  0
    1.8809    7.1491   12.3805 C   0  0  0  0  0  0  0  0  0  0  0  0
    2.7969    6.1270   12.3759 C   0  0  0  0  0  0  0  0  0  0  0  0
    2.8402    5.3246   13.4446 N   0  0  0  0  0  0  0  0  0  0  0  0
    5.4908    4.5053   10.2744 C   0  0  0  0  0  0  0  0  0  0  0  0
    5.3129    3.5955    9.3115 C   0  0  0  0  0  0  0  0  0  0  0  0
    6.5171    3.5853    8.4334 C   0  0  0  0  0  0  0  0  0  0  0  0
    6.6443    2.8249    7.4209 O   0  0  0  0  0  0  0  0  0  0  0  0
    7.4350    4.5353    8.9241 N   0  0  0  0  0  0  0  0  0  0  0  0
    6.8220    5.1126   10.0617 C   0  0  0  0  0  0  0  0  0  0  0  0
    7.3031    6.0105   10.8152 O   0  0  0  0  0  0  0  0  0  0  0  0
    8.3650    4.7835    8.5575 H   0  0  0  0  0  0  0  0  0  0  0  0
    4.1834    2.7220    9.0441 C   0  0  0  0  0  0  0  0  0  0  0  0
    2.9099    3.1632    8.6485 C   0  0  0  0  0  0  0  0  0  0  0  0
    2.0864    2.1137    8.5199 N   0  0  0  0  0  0  0  0  0  0  0  0
    2.7759    1.0077    8.8178 C   0  0  0  0  0  0  0  0  0  0  0  0
    2.3410   -0.3058    8.8351 C   0  0  0  0  0  0  0  0  0  0  0  0
    3.2361   -1.2934    9.1933 C   0  0  0  0  0  0  0  0  0  0  0  0
    4.5293   -0.9503    9.5225 C   0  0  0  0  0  0  0  0  0  0  0  0
    4.9639    0.3598    9.5050 C   0  0  0  0  0  0  0  0  0  0  0  0
    4.0921    1.3646    9.1499 C   0  0  0  0  0  0  0  0  0  0  0  0
    1.0856    2.1491    8.2381 H   0  0  0  0  0  0  0  0  0  0  0  0
    3.6112    0.9110   17.7727 C   0  0  0  0  0  0  0  0  0  0  0  0
    3.2396    2.1415   17.1255 N   0  0  0  0  0  0  0  0  0  0  0  0
    2.3823    1.9818   15.9996 C   0  0  0  0  0  0  0  0  0  0  0  0
    3.1425    2.1540   14.6958 C   0  0  0  0  0  0  0  0  0  0  0  0
    3.6764    3.4914   14.6607 N   0  0  0  0  0  0  0  0  0  0  0  0
    4.2015    4.0535   15.8823 C   0  0  0  0  0  0  0  0  0  0  0  0
    4.3202    3.0582   16.9850 C   0  0  0  0  0  0  0  0  0  0  0  0
 30 31  1  0  0  0
 31 32  1  0  0  0
 32 33  1  0  0  0
 33 34  1  0  0  0
 34 35  1  0  0  0
 35 36  1  0  0  0
 34  1  1  0  0  0
  1  2  2  0  0  0
  2  3  1  0  0  0
  3 12  1  0  0  0
 12 13  2  0  0  0
 13 14  1  0  0  0
 14 15  2  0  0  0
 14 16  1  0  0  0
 16 17  1  0  0  0
 17 18  2  0  0  0
 13 20  1  0  0  0
 20 21  2  0  0  0
 21 22  1  0  0  0
 22 23  1  0  0  0
 23 24  2  0  0  0
 24 25  1  0  0  0
 25 26  2  0  0  0
 26 27  1  0  0  0
 27 28  2  0  0  0
  3  4  2  0  0  0
  4  5  1  0  0  0
  5  6  2  0  0  0
  6  7  1  0  0  0
  6  8  1  0  0  0
  8  9  2  0  0  0
  9 10  1  0  0  0
 10 11  2  0  0  0
 36 31  1  0  0  0
 11  1  1  0  0  0
 17 12  1  0  0  0
 28 20  1  0  0  0
 10  4  1  0  0  0
 28 23  1  0  0  0
 16 19  1  0  0  0
 22 29  1  0  0  0
M  END
> <minimizedAffinity>
-6.88763

> <CNNscore>
0.1497470886

> <CNNaffinity>
5.5411729813

> <CNN_VS>
0.8297744989

> <CNNaffinity_variance>
0.4724794328

$$$$
[H]c1c(Cl)c([H])c2c(C3=C(c4c([H])n([H])c5c([H])c([H])c([H])c([H])c45)C(=O)N([H])C3=O)nc(N3C([H])([H])C([H])([H])N(C([H])([H])[H])C([H])([H])C3([H])[H])nc2c1[H]


 36 41  0  0  0  0  0  0  0  0999 V2000
    2.4029    1.4901    9.8481 C   0  0  0  0  0  0  0  0  0  0  0  0
    1.9207    2.4341   10.6602 N   0  0  0  0  0  0  0  0  0  0  0  0
    2.6767    3.5158   11.0280 C   0  0  0  0  0  0  0  0  0  0  0  0
    3.9541    3.5770   10.5230 C   0  0  0  0  0  0  0  0  0  0  0  0
    4.7848    4.6142   10.8749 C   0  0  0  0  0  0  0  0  0  0  0  0
    6.0762    4.6240   10.3600 C   0  0  0  0  0  0  0  0  0  0  0  0
    7.1016    5.9664   10.8321 Cl  0  0  0  0  0  0  0  0  0  0  0  0
    6.5635    3.6475    9.5183 C   0  0  0  0  0  0  0  0  0  0  0  0
    5.7313    2.6034    9.1672 C   0  0  0  0  0  0  0  0  0  0  0  0
    4.4566    2.5936    9.6759 C   0  0  0  0  0  0  0  0  0  0  0  0
    3.6654    1.5649    9.3541 N   0  0  0  0  0  0  0  0  0  0  0  0
    2.0869    4.5240   11.9032 C   0  0  0  0  0  0  0  0  0  0  0  0
    1.8961    4.4053   13.2208 C   0  0  0  0  0  0  0  0  0  0  0  0
    1.2579    5.6534   13.7270 C   0  0  0  0  0  0  0  0  0  0  0  0
    0.9554    5.8448   14.9483 O   0  0  0  0  0  0  0  0  0  0  0  0
    1.0679    6.5297   12.6399 N   0  0  0  0  0  0  0  0  0  0  0  0
    1.5705    5.8509   11.5044 C   0  0  0  0  0  0  0  0  0  0  0  0
    1.5916    6.2728   10.3098 O   0  0  0  0  0  0  0  0  0  0  0  0
    0.6539    7.4729   12.6360 H   0  0  0  0  0  0  0  0  0  0  0  0
    2.2271    3.3148   14.1216 C   0  0  0  0  0  0  0  0  0  0  0  0
    1.5818    2.0672   14.1349 C   0  0  0  0  0  0  0  0  0  0  0  0
    2.0974    1.3006   15.1057 N   0  0  0  0  0  0  0  0  0  0  0  0
    3.0524    2.0027   15.7243 C   0  0  0  0  0  0  0  0  0  0  0  0
    3.8486    1.6282   16.7922 C   0  0  0  0  0  0  0  0  0  0  0  0
    4.7675    2.5347   17.2808 C   0  0  0  0  0  0  0  0  0  0  0  0
    4.8684    3.7796   16.6988 C   0  0  0  0  0  0  0  0  0  0  0  0
    4.0747    4.1535   15.6331 C   0  0  0  0  0  0  0  0  0  0  0  0
    3.1508    3.2681   15.1250 C   0  0  0  0  0  0  0  0  0  0  0  0
    1.8083    0.3292   15.3402 H   0  0  0  0  0  0  0  0  0  0  0  0
   -0.2064   -3.0904    8.4435 C   0  0  0  0  0  0  0  0  0  0  0  0
    0.0912   -1.6962    8.2470 N   0  0  0  0  0  0  0  0  0  0  0  0
    1.4363   -1.4271    7.8645 C   0  0  0  0  0  0  0  0  0  0  0  0
    2.2447   -0.8810    9.0290 C   0  0  0  0  0  0  0  0  0  0  0  0
    1.6458    0.3602    9.4481 N   0  0  0  0  0  0  0  0  0  0  0  0
    0.2056    0.4585    9.4599 C   0  0  0  0  0  0  0  0  0  0  0  0
   -0.4755   -0.8489    9.2414 C   0  0  0  0  0  0  0  0  0  0  0  0
 30 31  1  0  0  0
 31 32  1  0  0  0
 32 33  1  0  0  0
 33 34  1  0  0  0
 34 35  1  0  0  0
 35 36  1  0  0  0
 34  1  1  0  0  0
  1  2  2  0  0  0
  2  3  1  0  0  0
  3 12  1  0  0  0
 12 13  2  0  0  0
 13 14  1  0  0  0
 14 15  2  0  0  0
 14 16  1  0  0  0
 16 17  1  0  0  0
 17 18  2  0  0  0
 13 20  1  0  0  0
 20 21  2  0  0  0
 21 22  1  0  0  0
 22 23  1  0  0  0
 23 24  2  0  0  0
 24 25  1  0  0  0
 25 26  2  0  0  0
 26 27  1  0  0  0
 27 28  2  0  0  0
  3  4  2  0  0  0
  4  5  1  0  0  0
  5  6  2  0  0  0
  6  7  1  0  0  0
  6  8  1  0  0  0
  8  9  2  0  0  0
  9 10  1  0  0  0
 10 11  2  0  0  0
 36 31  1  0  0  0
 11  1  1  0  0  0
 17 12  1  0  0  0
 28 20  1  0  0  0
 10  4  1  0  0  0
 28 23  1  0  0  0
 16 19  1  0  0  0
 22 29  1  0  0  0
M  END
> <minimizedAffinity>
-7.35505

> <CNNscore>
0.1474325806

> <CNNaffinity>
5.7179794312

> <CNN_VS>
0.8430164456

> <CNNaffinity_variance>
0.2093326747

$$$$
[H]c1c(Cl)c([H])c2c(C3=C(c4c([H])n([H])c5c([H])c([H])c([H])c([H])c45)C(=O)N([H])C3=O)nc(N3C([H])([H])C([H])([H])N(C([H])([H])[H])C([H])([H])C3([H])[H])nc2c1[H]


 36 41  0  0  0  0  0  0  0  0999 V2000
    3.2275    3.1377   13.1449 C   0  0  0  0  0  0  0  0  0  0  0  0
    3.3048    4.3424   12.5741 N   0  0  0  0  0  0  0  0  0  0  0  0
    3.0898    4.5131   11.2320 C   0  0  0  0  0  0  0  0  0  0  0  0
    2.7953    3.3839   10.5051 C   0  0  0  0  0  0  0  0  0  0  0  0
    2.6010    3.4702    9.1468 C   0  0  0  0  0  0  0  0  0  0  0  0
    2.3289    2.3000    8.4474 C   0  0  0  0  0  0  0  0  0  0  0  0
    2.0853    2.4555    6.7174 Cl  0  0  0  0  0  0  0  0  0  0  0  0
    2.2462    1.0614    9.0462 C   0  0  0  0  0  0  0  0  0  0  0  0
    2.4446    0.9729   10.4096 C   0  0  0  0  0  0  0  0  0  0  0  0
    2.7137    2.1282   11.1000 C   0  0  0  0  0  0  0  0  0  0  0  0
    2.9325    2.0312   12.4154 N   0  0  0  0  0  0  0  0  0  0  0  0
    3.1700    5.8579   10.6700 C   0  0  0  0  0  0  0  0  0  0  0  0
    2.1383    6.6769   10.4434 C   0  0  0  0  0  0  0  0  0  0  0  0
    2.6535    7.9446    9.8529 C   0  0  0  0  0  0  0  0  0  0  0  0
    1.9094    8.9257    9.5316 O   0  0  0  0  0  0  0  0  0  0  0  0
    4.0536    7.8424    9.7294 N   0  0  0  0  0  0  0  0  0  0  0  0
    4.3924    6.5611   10.2257 C   0  0  0  0  0  0  0  0  0  0  0  0
    5.5500    6.0503   10.2941 O   0  0  0  0  0  0  0  0  0  0  0  0
    4.7212    8.5345    9.3602 H   0  0  0  0  0  0  0  0  0  0  0  0
    0.7208    6.4929   10.7021 C   0  0  0  0  0  0  0  0  0  0  0  0
   -0.2415    6.2208    9.7156 C   0  0  0  0  0  0  0  0  0  0  0  0
   -1.4563    6.1444   10.2763 N   0  0  0  0  0  0  0  0  0  0  0  0
   -1.3203    6.3575   11.5892 C   0  0  0  0  0  0  0  0  0  0  0  0
   -2.2982    6.3866   12.5678 C   0  0  0  0  0  0  0  0  0  0  0  0
   -1.9216    6.6439   13.8704 C   0  0  0  0  0  0  0  0  0  0  0  0
   -0.5930    6.8641   14.1619 C   0  0  0  0  0  0  0  0  0  0  0  0
    0.3829    6.8348   13.1862 C   0  0  0  0  0  0  0  0  0  0  0  0
    0.0351    6.5788   11.8788 C   0  0  0  0  0  0  0  0  0  0  0  0
   -2.3507    5.9532    9.7807 H   0  0  0  0  0  0  0  0  0  0  0  0
    4.1172    1.9398   18.3925 C   0  0  0  0  0  0  0  0  0  0  0  0
    3.4831    2.7254   17.3669 N   0  0  0  0  0  0  0  0  0  0  0  0
    2.5579    2.0058   16.5581 C   0  0  0  0  0  0  0  0  0  0  0  0
    3.1464    1.6852   15.1948 C   0  0  0  0  0  0  0  0  0  0  0  0
    3.4431    2.9284   14.5304 N   0  0  0  0  0  0  0  0  0  0  0  0
    3.9845    4.0136   15.3136 C   0  0  0  0  0  0  0  0  0  0  0  0
    4.3761    3.6062   16.6925 C   0  0  0  0  0  0  0  0  0  0  0  0
 30 31  1  0  0  0
 31 32  1  0  0  0
 32 33  1  0  0  0
 33 34  1  0  0  0
 34 35  1  0  0  0
 35 36  1  0  0  0
 34  1  1  0  0  0
  1  2  2  0  0  0
  2  3  1  0  0  0
  3 12  1  0  0  0
 12 13  2  0  0  0
 13 14  1  0  0  0
 14 15  2  0  0  0
 14 16  1  0  0  0
 16 17  1  0  0  0
 17 18  2  0  0  0
 13 20  1  0  0  0
 20 21  2  0  0  0
 21 22  1  0  0  0
 22 23  1  0  0  0
 23 24  2  0  0  0
 24 25  1  0  0  0
 25 26  2  0  0  0
 26 27  1  0  0  0
 27 28  2  0  0  0
  3  4  2  0  0  0
  4  5  1  0  0  0
  5  6  2  0  0  0
  6  7  1  0  0  0
  6  8  1  0  0  0
  8  9  2  0  0  0
  9 10  1  0  0  0
 10 11  2  0  0  0
 36 31  1  0  0  0
 11  1  1  0  0  0
 17 12  1  0  0  0
 28 20  1  0  0  0
 10  4  1  0  0  0
 28 23  1  0  0  0
 16 19  1  0  0  0
 22 29  1  0  0  0
M  END
> <minimizedAffinity>
-7.17445

> <CNNscore>
0.1449807584

> <CNNaffinity>
5.5825672150

> <CNN_VS>
0.8093648553

> <CNNaffinity_variance>
0.4838257432

$$$$
[H]c1nc(N([H])c2c([H])c([H])c(N3C([H])([H])C([H])([H])C([H])(N4C([H])([H])C([H])([H])C([H])([H])C4([H])[H])C([H])([H])C3([H])[H])c([H])c2OC([H])([H])[H])nc(N([H])c2c([H])c([H])c([H])c([H])c2S(=O)(=O)C([H])(C([H])([H])[H])C([H])([H])[H])c1Cl


 42 46  0  0  0  0  0  0  0  0999 V2000
    3.4718    2.4948   14.9003 N   0  0  0  0  0  0  0  0  0  0  0  0
    4.4490    2.4557   14.4122 H   0  0  0  0  0  0  0  0  0  0  0  0
    3.4697    1.9207   16.1730 C   0  0  0  0  0  0  0  0  0  0  0  0
    2.7914    0.8191   16.4615 N   0  0  0  0  0  0  0  0  0  0  0  0
    2.7760    0.2634   17.6758 C   0  0  0  0  0  0  0  0  0  0  0  0
    3.5034    0.8787   18.6547 C   0  0  0  0  0  0  0  0  0  0  0  0
    3.5328    0.2053   20.2655 Cl  0  0  0  0  0  0  0  0  0  0  0  0
    4.2383    2.0502   18.3932 C   0  0  0  0  0  0  0  0  0  0  0  0
    4.1732    2.4965   17.1637 N   0  0  0  0  0  0  0  0  0  0  0  0
    4.9572    2.7005   19.4113 N   0  0  0  0  0  0  0  0  0  0  0  0
    5.2835    2.0295   20.1897 H   0  0  0  0  0  0  0  0  0  0  0  0
    5.3064    4.0633   19.5033 C   0  0  0  0  0  0  0  0  0  0  0  0
    5.6580    4.8412   18.4315 C   0  0  0  0  0  0  0  0  0  0  0  0
    6.1069    6.1583   18.5197 C   0  0  0  0  0  0  0  0  0  0  0  0
    6.2057    6.7179   19.7572 C   0  0  0  0  0  0  0  0  0  0  0  0
    5.8607    5.9681   20.8527 C   0  0  0  0  0  0  0  0  0  0  0  0
    5.4075    4.6444   20.7661 C   0  0  0  0  0  0  0  0  0  0  0  0
    4.9067    3.8812   22.2237 S   0  0  0  0  0  0  0  0  0  0  0  0
    4.3736    4.8435   23.2677 O   0  0  0  0  0  0  0  0  0  0  0  0
    3.6564    3.0323   21.8968 O   0  0  0  0  0  0  0  0  0  0  0  0
    6.0414    2.7348   22.9193 C   0  0  0  0  0  0  0  0  0  0  0  0
    6.6182    1.6981   22.0426 C   0  0  0  0  0  0  0  0  0  0  0  0
    5.3554    2.0881   24.1218 C   0  0  0  0  0  0  0  0  0  0  0  0
    2.3646    4.5086   14.1891 C   0  0  0  0  0  0  0  0  0  0  0  0
    1.3677    5.1541   13.4928 C   0  0  0  0  0  0  0  0  0  0  0  0
    0.4283    4.4494   12.7706 C   0  0  0  0  0  0  0  0  0  0  0  0
    0.4717    3.0753   12.7327 C   0  0  0  0  0  0  0  0  0  0  0  0
    1.4912    2.4344   13.4455 C   0  0  0  0  0  0  0  0  0  0  0  0
    2.4322    3.1008   14.1675 C   0  0  0  0  0  0  0  0  0  0  0  0
   -0.6134    5.0915   12.0532 N   0  0  0  0  0  0  0  0  0  0  0  0
   -1.6827    5.8005   12.7654 C   0  0  0  0  0  0  0  0  0  0  0  0
   -2.8140    6.1313   11.8217 C   0  0  0  0  0  0  0  0  0  0  0  0
   -3.1879    4.8932   11.0123 C   0  0  0  0  0  0  0  0  0  0  0  0
   -2.0102    4.3310   10.2977 C   0  0  0  0  0  0  0  0  0  0  0  0
   -0.7335    5.1265   10.6104 C   0  0  0  0  0  0  0  0  0  0  0  0
   -4.3246    5.1136   10.1765 N   0  0  0  0  0  0  0  0  0  0  0  0
   -5.4651    5.6648   10.8063 C   0  0  0  0  0  0  0  0  0  0  0  0
   -6.4881    4.5632   10.9935 C   0  0  0  0  0  0  0  0  0  0  0  0
   -6.0212    3.4887   10.0487 C   0  0  0  0  0  0  0  0  0  0  0  0
   -4.7365    3.9805    9.4260 C   0  0  0  0  0  0  0  0  0  0  0  0
    3.1943    6.6575   14.8949 C   0  0  0  0  0  0  0  0  0  0  0  0
    3.2743    5.2603   14.8917 O   0  0  0  0  0  0  0  0  0  0  0  0
 41 42  1  0  0  0
 42 24  1  0  0  0
 24 25  2  0  0  0
 25 26  1  0  0  0
 26 27  2  0  0  0
 27 28  1  0  0  0
 28 29  2  0  0  0
 29  1  1  0  0  0
  1  3  1  0  0  0
  3  4  2  0  0  0
  4  5  1  0  0  0
  5  6  2  0  0  0
  6  7  1  0  0  0
  6  8  1  0  0  0
  8 10  1  0  0  0
 10 12  1  0  0  0
 12 13  2  0  0  0
 13 14  1  0  0  0
 14 15  2  0  0  0
 15 16  1  0  0  0
 16 17  2  0  0  0
 17 18  1  0  0  0
 18 19  2  0  0  0
 18 20  2  0  0  0
 18 21  1  0  0  0
 21 22  1  0  0  0
 21 23  1  0  0  0
  8  9  2  0  0  0
 26 30  1  0  0  0
 30 31  1  0  0  0
 31 32  1  0  0  0
 32 33  1  0  0  0
 33 34  1  0  0  0
 34 35  1  0  0  0
 33 36  1  0  0  0
 36 37  1  0  0  0
 37 38  1  0  0  0
 38 39  1  0  0  0
 39 40  1  0  0  0
 29 24  1  0  0  0
  9  3  1  0  0  0
 35 30  1  0  0  0
 40 36  1  0  0  0
 17 12  1  0  0  0
  1  2  1  0  0  0
 10 11  1  0  0  0
M  END
> <minimizedAffinity>
-8.82593

> <CNNscore>
0.4498460293

> <CNNaffinity>
7.3221397400

> <CNN_VS>
3.2938354015

> <CNNaffinity_variance>
0.3195969760

$$$$
[H]c1nc(N([H])c2c([H])c([H])c(N3C([H])([H])C([H])([H])C([H])(N4C([H])([H])C([H])([H])C([H])([H])C4([H])[H])C([H])([H])C3([H])[H])c([H])c2OC([H])([H])[H])nc(N([H])c2c([H])c([H])c([H])c([H])c2S(=O)(=O)C([H])(C([H])([H])[H])C([H])([H])[H])c1Cl


 42 46  0  0  0  0  0  0  0  0999 V2000
    4.7059    1.5636   18.6523 N   0  0  0  0  0  0  0  0  0  0  0  0
    5.4556    0.7682   18.6550 H   0  0  0  0  0  0  0  0  0  0  0  0
    4.4701    2.1009   19.9192 C   0  0  0  0  0  0  0  0  0  0  0  0
    4.2541    1.3479   20.9884 N   0  0  0  0  0  0  0  0  0  0  0  0
    4.0212    1.8490   22.2043 C   0  0  0  0  0  0  0  0  0  0  0  0
    4.0098    3.2093   22.3286 C   0  0  0  0  0  0  0  0  0  0  0  0
    3.7161    3.9344   23.8897 Cl  0  0  0  0  0  0  0  0  0  0  0  0
    4.2340    4.0472   21.2203 C   0  0  0  0  0  0  0  0  0  0  0  0
    4.4507    3.4353   20.0829 N   0  0  0  0  0  0  0  0  0  0  0  0
    4.1866    5.4467   21.3449 N   0  0  0  0  0  0  0  0  0  0  0  0
    3.1803    5.8289   21.4091 H   0  0  0  0  0  0  0  0  0  0  0  0
    5.2613    6.3559   21.4219 C   0  0  0  0  0  0  0  0  0  0  0  0
    6.1525    6.4069   22.4616 C   0  0  0  0  0  0  0  0  0  0  0  0
    7.1537    7.3669   22.6024 C   0  0  0  0  0  0  0  0  0  0  0  0
    7.2590    8.3260   21.6415 C   0  0  0  0  0  0  0  0  0  0  0  0
    6.3837    8.3045   20.5857 C   0  0  0  0  0  0  0  0  0  0  0  0
    5.3775    7.3393   20.4411 C   0  0  0  0  0  0  0  0  0  0  0  0
    4.4368    7.3843   19.0020 S   0  0  0  0  0  0  0  0  0  0  0  0
    3.1747    6.5459   19.0682 O   0  0  0  0  0  0  0  0  0  0  0  0
    3.8683    8.8156   18.8642 O   0  0  0  0  0  0  0  0  0  0  0  0
    5.3131    7.1178   17.5032 C   0  0  0  0  0  0  0  0  0  0  0  0
    4.5389    6.9012   16.2663 C   0  0  0  0  0  0  0  0  0  0  0  0
    6.2715    5.9510   17.7377 C   0  0  0  0  0  0  0  0  0  0  0  0
    3.2697    0.9316   16.8288 C   0  0  0  0  0  0  0  0  0  0  0  0
    2.6886    1.1890   15.6075 C   0  0  0  0  0  0  0  0  0  0  0  0
    2.9394    2.3628   14.9295 C   0  0  0  0  0  0  0  0  0  0  0  0
    3.7827    3.3068   15.4672 C   0  0  0  0  0  0  0  0  0  0  0  0
    4.3651    3.0301   16.7091 C   0  0  0  0  0  0  0  0  0  0  0  0
    4.1384    1.8819   17.4026 C   0  0  0  0  0  0  0  0  0  0  0  0
    2.3601    2.6464   13.6661 N   0  0  0  0  0  0  0  0  0  0  0  0
    1.3552    1.7470   13.0874 C   0  0  0  0  0  0  0  0  0  0  0  0
    1.1186    2.0873   11.6355 C   0  0  0  0  0  0  0  0  0  0  0  0
    2.4561    2.2288   10.9153 C   0  0  0  0  0  0  0  0  0  0  0  0
    3.3357    3.2237   11.5862 C   0  0  0  0  0  0  0  0  0  0  0  0
    2.6708    3.7989   12.8462 C   0  0  0  0  0  0  0  0  0  0  0  0
    2.2974    2.4452    9.5126 N   0  0  0  0  0  0  0  0  0  0  0  0
    1.9748    1.3064    8.7379 C   0  0  0  0  0  0  0  0  0  0  0  0
    3.2160    0.8714    7.9860 C   0  0  0  0  0  0  0  0  0  0  0  0
    4.1087    2.0811    8.0559 C   0  0  0  0  0  0  0  0  0  0  0  0
    3.3855    3.1119    8.8895 C   0  0  0  0  0  0  0  0  0  0  0  0
    1.9802   -0.3212   18.4324 C   0  0  0  0  0  0  0  0  0  0  0  0
    2.9846   -0.2541   17.4603 O   0  0  0  0  0  0  0  0  0  0  0  0
 41 42  1  0  0  0
 42 24  1  0  0  0
 24 25  2  0  0  0
 25 26  1  0  0  0
 26 27  2  0  0  0
 27 28  1  0  0  0
 28 29  2  0  0  0
 29  1  1  0  0  0
  1  3  1  0  0  0
  3  4  2  0  0  0
  4  5  1  0  0  0
  5  6  2  0  0  0
  6  7  1  0  0  0
  6  8  1  0  0  0
  8 10  1  0  0  0
 10 12  1  0  0  0
 12 13  2  0  0  0
 13 14  1  0  0  0
 14 15  2  0  0  0
 15 16  1  0  0  0
 16 17  2  0  0  0
 17 18  1  0  0  0
 18 19  2  0  0  0
 18 20  2  0  0  0
 18 21  1  0  0  0
 21 22  1  0  0  0
 21 23  1  0  0  0
  8  9  2  0  0  0
 26 30  1  0  0  0
 30 31  1  0  0  0
 31 32  1  0  0  0
 32 33  1  0  0  0
 33 34  1  0  0  0
 34 35  1  0  0  0
 33 36  1  0  0  0
 36 37  1  0  0  0
 37 38  1  0  0  0
 38 39  1  0  0  0
 39 40  1  0  0  0
 29 24  1  0  0  0
  9  3  1  0  0  0
 35 30  1  0  0  0
 40 36  1  0  0  0
 17 12  1  0  0  0
  1  2  1  0  0  0
 10 11  1  0  0  0
M  END
> <minimizedAffinity>
-8.84226

> <CNNscore>
0.4253309071

> <CNNaffinity>
7.3551216125

> <CNN_VS>
3.1283605099

> <CNNaffinity_variance>
0.4549233317

$$$$
[H]c1nc(N([H])c2c([H])c([H])c(N3C([H])([H])C([H])([H])C([H])(N4C([H])([H])C([H])([H])C([H])([H])C4([H])[H])C([H])([H])C3([H])[H])c([H])c2OC([H])([H])[H])nc(N([H])c2c([H])c([H])c([H])c([H])c2S(=O)(=O)C([H])(C([H])([H])[H])C([H])([H])[H])c1Cl


 42 46  0  0  0  0  0  0  0  0999 V2000
    4.5948    1.3943   18.8193 N   0  0  0  0  0  0  0  0  0  0  0  0
    5.1078    0.4314   18.8851 H   0  0  0  0  0  0  0  0  0  0  0  0
    4.4064    2.0027   20.0617 C   0  0  0  0  0  0  0  0  0  0  0  0
    3.7524    1.4172   21.0549 N   0  0  0  0  0  0  0  0  0  0  0  0
    3.5599    1.9904   22.2457 C   0  0  0  0  0  0  0  0  0  0  0  0
    4.0717    3.2439   22.4267 C   0  0  0  0  0  0  0  0  0  0  0  0
    3.8617    4.0526   23.9600 Cl  0  0  0  0  0  0  0  0  0  0  0  0
    4.7727    3.9033   21.3998 C   0  0  0  0  0  0  0  0  0  0  0  0
    4.8948    3.2364   20.2794 N   0  0  0  0  0  0  0  0  0  0  0  0
    5.2674    5.2071   21.5776 N   0  0  0  0  0  0  0  0  0  0  0  0
    4.4883    5.9320   21.7517 H   0  0  0  0  0  0  0  0  0  0  0  0
    6.6086    5.6416   21.5830 C   0  0  0  0  0  0  0  0  0  0  0  0
    7.5808    5.1260   22.3995 C   0  0  0  0  0  0  0  0  0  0  0  0
    8.8828    5.6162   22.4909 C   0  0  0  0  0  0  0  0  0  0  0  0
    9.2191    6.6844   21.7162 C   0  0  0  0  0  0  0  0  0  0  0  0
    8.2707    7.2253   20.8860 C   0  0  0  0  0  0  0  0  0  0  0  0
    6.9617    6.7328   20.7911 C   0  0  0  0  0  0  0  0  0  0  0  0
    5.9280    7.4504   19.6187 S   0  0  0  0  0  0  0  0  0  0  0  0
    6.6662    8.2133   18.5355 O   0  0  0  0  0  0  0  0  0  0  0  0
    5.2700    6.3039   18.8167 O   0  0  0  0  0  0  0  0  0  0  0  0
    4.5732    8.3725   20.2512 C   0  0  0  0  0  0  0  0  0  0  0  0
    3.9097    9.3447   19.3620 C   0  0  0  0  0  0  0  0  0  0  0  0
    5.0496    9.0636   21.5280 C   0  0  0  0  0  0  0  0  0  0  0  0
    3.4020    0.9661   16.7745 C   0  0  0  0  0  0  0  0  0  0  0  0
    3.0190    1.3317   15.5036 C   0  0  0  0  0  0  0  0  0  0  0  0
    3.4328    2.5231   14.9470 C   0  0  0  0  0  0  0  0  0  0  0  0
    4.2434    3.3759   15.6593 C   0  0  0  0  0  0  0  0  0  0  0  0
    4.6237    2.9897   16.9494 C   0  0  0  0  0  0  0  0  0  0  0  0
    4.2329    1.8214   17.5263 C   0  0  0  0  0  0  0  0  0  0  0  0
    3.0592    2.9171   13.6366 N   0  0  0  0  0  0  0  0  0  0  0  0
    3.5548    4.1750   13.0660 C   0  0  0  0  0  0  0  0  0  0  0  0
    2.7928    4.5185   11.8085 C   0  0  0  0  0  0  0  0  0  0  0  0
    1.2942    4.3857   12.0621 C   0  0  0  0  0  0  0  0  0  0  0  0
    0.9443    3.0339   12.5758 C   0  0  0  0  0  0  0  0  0  0  0  0
    2.1964    2.1610   12.7528 C   0  0  0  0  0  0  0  0  0  0  0  0
    0.5146    4.8012   10.9401 N   0  0  0  0  0  0  0  0  0  0  0  0
    0.1247    6.1610   10.9201 C   0  0  0  0  0  0  0  0  0  0  0  0
   -1.3421    6.2441   11.2896 C   0  0  0  0  0  0  0  0  0  0  0  0
   -1.8331    4.8356   11.0895 C   0  0  0  0  0  0  0  0  0  0  0  0
   -0.6356    4.0063   10.6913 C   0  0  0  0  0  0  0  0  0  0  0  0
    1.9734   -0.2680   18.2712 C   0  0  0  0  0  0  0  0  0  0  0  0
    2.9603   -0.2321   17.2796 O   0  0  0  0  0  0  0  0  0  0  0  0
 41 42  1  0  0  0
 42 24  1  0  0  0
 24 25  2  0  0  0
 25 26  1  0  0  0
 26 27  2  0  0  0
 27 28  1  0  0  0
 28 29  2  0  0  0
 29  1  1  0  0  0
  1  3  1  0  0  0
  3  4  2  0  0  0
  4  5  1  0  0  0
  5  6  2  0  0  0
  6  7  1  0  0  0
  6  8  1  0  0  0
  8 10  1  0  0  0
 10 12  1  0  0  0
 12 13  2  0  0  0
 13 14  1  0  0  0
 14 15  2  0  0  0
 15 16  1  0  0  0
 16 17  2  0  0  0
 17 18  1  0  0  0
 18 19  2  0  0  0
 18 20  2  0  0  0
 18 21  1  0  0  0
 21 22  1  0  0  0
 21 23  1  0  0  0
  8  9  2  0  0  0
 26 30  1  0  0  0
 30 31  1  0  0  0
 31 32  1  0  0  0
 32 33  1  0  0  0
 33 34  1  0  0  0
 34 35  1  0  0  0
 33 36  1  0  0  0
 36 37  1  0  0  0
 37 38  1  0  0  0
 38 39  1  0  0  0
 39 40  1  0  0  0
 29 24  1  0  0  0
  9  3  1  0  0  0
 35 30  1  0  0  0
 40 36  1  0  0  0
 17 12  1  0  0  0
  1  2  1  0  0  0
 10 11  1  0  0  0
M  END
> <minimizedAffinity>
-9.42522

> <CNNscore>
0.4184621871

> <CNNaffinity>
7.4275579453

> <CNN_VS>
3.1081521511

> <CNNaffinity_variance>
0.1815761030

$$$$
[H]c1nc(N([H])c2c([H])c([H])c(N3C([H])([H])C([H])([H])C([H])(N4C([H])([H])C([H])([H])C([H])([H])C4([H])[H])C([H])([H])C3([H])[H])c([H])c2OC([H])([H])[H])nc(N([H])c2c([H])c([H])c([H])c([H])c2S(=O)(=O)C([H])(C([H])([H])[H])C([H])([H])[H])c1Cl


 42 46  0  0  0  0  0  0  0  0999 V2000
    4.5429    1.4848   18.5391 N   0  0  0  0  0  0  0  0  0  0  0  0
    5.2029    0.6139   18.5622 H   0  0  0  0  0  0  0  0  0  0  0  0
    4.3661    2.0739   19.7925 C   0  0  0  0  0  0  0  0  0  0  0  0
    4.1960    1.3657   20.9000 N   0  0  0  0  0  0  0  0  0  0  0  0
    4.0198    1.9165   22.1037 C   0  0  0  0  0  0  0  0  0  0  0  0
    4.0184    3.2807   22.1734 C   0  0  0  0  0  0  0  0  0  0  0  0
    3.7977    4.0696   23.7154 Cl  0  0  0  0  0  0  0  0  0  0  0  0
    4.1954    4.0722   21.0231 C   0  0  0  0  0  0  0  0  0  0  0  0
    4.3586    3.4139   19.9028 N   0  0  0  0  0  0  0  0  0  0  0  0
    4.1582    5.4758   21.0930 N   0  0  0  0  0  0  0  0  0  0  0  0
    3.8129    5.8400   22.0474 H   0  0  0  0  0  0  0  0  0  0  0  0
    4.5347    6.4117   20.1082 C   0  0  0  0  0  0  0  0  0  0  0  0
    3.7513    6.7612   19.0397 C   0  0  0  0  0  0  0  0  0  0  0  0
    4.1520    7.6033   18.0033 C   0  0  0  0  0  0  0  0  0  0  0  0
    5.4115    8.1189   18.0498 C   0  0  0  0  0  0  0  0  0  0  0  0
    6.2229    7.7909   19.1059 C   0  0  0  0  0  0  0  0  0  0  0  0
    5.8214    6.9459   20.1499 C   0  0  0  0  0  0  0  0  0  0  0  0
    6.9168    6.7261   21.4575 S   0  0  0  0  0  0  0  0  0  0  0  0
    7.0051    5.2941   21.9490 O   0  0  0  0  0  0  0  0  0  0  0  0
    8.3433    6.9706   20.9136 O   0  0  0  0  0  0  0  0  0  0  0  0
    6.7589    7.8595   22.7902 C   0  0  0  0  0  0  0  0  0  0  0  0
    6.1688    9.1841   22.5191 C   0  0  0  0  0  0  0  0  0  0  0  0
    8.1419    8.0161   23.4206 C   0  0  0  0  0  0  0  0  0  0  0  0
    3.1392    0.9091   16.6722 C   0  0  0  0  0  0  0  0  0  0  0  0
    2.5936    1.1959   15.4411 C   0  0  0  0  0  0  0  0  0  0  0  0
    2.8847    2.3739   14.7869 C   0  0  0  0  0  0  0  0  0  0  0  0
    3.7337    3.2924   15.3589 C   0  0  0  0  0  0  0  0  0  0  0  0
    4.2798    2.9859   16.6103 C   0  0  0  0  0  0  0  0  0  0  0  0
    4.0128    1.8328   17.2809 C   0  0  0  0  0  0  0  0  0  0  0  0
    2.3424    2.6876   13.5143 N   0  0  0  0  0  0  0  0  0  0  0  0
    1.2740    1.8649   12.9353 C   0  0  0  0  0  0  0  0  0  0  0  0
    1.0796    2.2052   11.4771 C   0  0  0  0  0  0  0  0  0  0  0  0
    2.4310    2.2296   10.7696 C   0  0  0  0  0  0  0  0  0  0  0  0
    3.3816    3.1587   11.4383 C   0  0  0  0  0  0  0  0  0  0  0  0
    2.7530    3.8012   12.6845 C   0  0  0  0  0  0  0  0  0  0  0  0
    2.3040    2.4408    9.3630 N   0  0  0  0  0  0  0  0  0  0  0  0
    1.0896    2.0154    8.7751 C   0  0  0  0  0  0  0  0  0  0  0  0
    1.3493    0.7304    8.0159 C   0  0  0  0  0  0  0  0  0  0  0  0
    2.8463    0.7120    7.8622 C   0  0  0  0  0  0  0  0  0  0  0  0
    3.3764    1.9257    8.5875 C   0  0  0  0  0  0  0  0  0  0  0  0
    1.8722   -0.3187   18.3128 C   0  0  0  0  0  0  0  0  0  0  0  0
    2.8146   -0.2795   17.2789 O   0  0  0  0  0  0  0  0  0  0  0  0
 41 42  1  0  0  0
 42 24  1  0  0  0
 24 25  2  0  0  0
 25 26  1  0  0  0
 26 27  2  0  0  0
 27 28  1  0  0  0
 28 29  2  0  0  0
 29  1  1  0  0  0
  1  3  1  0  0  0
  3  4  2  0  0  0
  4  5  1  0  0  0
  5  6  2  0  0  0
  6  7  1  0  0  0
  6  8  1  0  0  0
  8 10  1  0  0  0
 10 12  1  0  0  0
 12 13  2  0  0  0
 13 14  1  0  0  0
 14 15  2  0  0  0
 15 16  1  0  0  0
 16 17  2  0  0  0
 17 18  1  0  0  0
 18 19  2  0  0  0
 18 20  2  0  0  0
 18 21  1  0  0  0
 21 22  1  0  0  0
 21 23  1  0  0  0
  8  9  2  0  0  0
 26 30  1  0  0  0
 30 31  1  0  0  0
 31 32  1  0  0  0
 32 33  1  0  0  0
 33 34  1  0  0  0
 34 35  1  0  0  0
 33 36  1  0  0  0
 36 37  1  0  0  0
 37 38  1  0  0  0
 38 39  1  0  0  0
 39 40  1  0  0  0
 29 24  1  0  0  0
  9  3  1  0  0  0
 35 30  1  0  0  0
 40 36  1  0  0  0
 17 12  1  0  0  0
  1  2  1  0  0  0
 10 11  1  0  0  0
M  END
> <minimizedAffinity>
-8.73560

> <CNNscore>
0.3996340930

> <CNNaffinity>
7.3058838844

> <CNN_VS>
2.9196803570

> <CNNaffinity_variance>
0.4676620364

$$$$
[H]c1nc(N([H])c2c([H])c([H])c(N3C([H])([H])C([H])([H])C([H])(N4C([H])([H])C([H])([H])C([H])([H])C4([H])[H])C([H])([H])C3([H])[H])c([H])c2OC([H])([H])[H])nc(N([H])c2c([H])c([H])c([H])c([H])c2S(=O)(=O)C([H])(C([H])([H])[H])C([H])([H])[H])c1Cl


 42 46  0  0  0  0  0  0  0  0999 V2000
    3.6356    2.6733   14.9345 N   0  0  0  0  0  0  0  0  0  0  0  0
    4.6407    3.0811   14.8000 H   0  0  0  0  0  0  0  0  0  0  0  0
    3.4874    1.9580   16.1243 C   0  0  0  0  0  0  0  0  0  0  0  0
    2.9144    0.7639   16.1763 N   0  0  0  0  0  0  0  0  0  0  0  0
    2.7609    0.0720   17.3082 C   0  0  0  0  0  0  0  0  0  0  0  0
    3.2255    0.6435   18.4587 C   0  0  0  0  0  0  0  0  0  0  0  0
    3.0625   -0.2060   19.9756 Cl  0  0  0  0  0  0  0  0  0  0  0  0
    3.8403    1.9095   18.4503 C   0  0  0  0  0  0  0  0  0  0  0  0
    3.9316    2.4865   17.2781 N   0  0  0  0  0  0  0  0  0  0  0  0
    4.2855    2.5100   19.6408 N   0  0  0  0  0  0  0  0  0  0  0  0
    4.6653    1.7967   20.3547 H   0  0  0  0  0  0  0  0  0  0  0  0
    4.3156    3.8800   19.9724 C   0  0  0  0  0  0  0  0  0  0  0  0
    4.4063    4.8921   19.0531 C   0  0  0  0  0  0  0  0  0  0  0  0
    4.5434    6.2427   19.3704 C   0  0  0  0  0  0  0  0  0  0  0  0
    4.5919    6.5880   20.6867 C   0  0  0  0  0  0  0  0  0  0  0  0
    4.5028    5.6004   21.6343 C   0  0  0  0  0  0  0  0  0  0  0  0
    4.3630    4.2420   21.3175 C   0  0  0  0  0  0  0  0  0  0  0  0
    4.1497    3.1418   22.6221 S   0  0  0  0  0  0  0  0  0  0  0  0
    3.5061    3.7616   23.8477 O   0  0  0  0  0  0  0  0  0  0  0  0
    3.0871    2.1064   22.1867 O   0  0  0  0  0  0  0  0  0  0  0  0
    5.5523    2.1736   23.0472 C   0  0  0  0  0  0  0  0  0  0  0  0
    5.8463    1.9531   24.4760 C   0  0  0  0  0  0  0  0  0  0  0  0
    6.7617    2.7933   22.3485 C   0  0  0  0  0  0  0  0  0  0  0  0
    2.0230    4.1715   13.9638 C   0  0  0  0  0  0  0  0  0  0  0  0
    1.1054    4.4857   12.9867 C   0  0  0  0  0  0  0  0  0  0  0  0
    0.8424    3.6191   11.9474 C   0  0  0  0  0  0  0  0  0  0  0  0
    1.4994    2.4134   11.8677 C   0  0  0  0  0  0  0  0  0  0  0  0
    2.4290    2.1092   12.8684 C   0  0  0  0  0  0  0  0  0  0  0  0
    2.7104    2.9422   13.9065 C   0  0  0  0  0  0  0  0  0  0  0  0
   -0.1051    3.9164   10.9346 N   0  0  0  0  0  0  0  0  0  0  0  0
   -0.1881    3.0898    9.7248 C   0  0  0  0  0  0  0  0  0  0  0  0
   -1.0412    3.7696    8.6808 C   0  0  0  0  0  0  0  0  0  0  0  0
   -0.6072    5.2243    8.5287 C   0  0  0  0  0  0  0  0  0  0  0  0
   -0.6390    5.9433    9.8310 C   0  0  0  0  0  0  0  0  0  0  0  0
   -1.0557    5.0081   10.9766 C   0  0  0  0  0  0  0  0  0  0  0  0
   -1.3064    5.8927    7.4782 N   0  0  0  0  0  0  0  0  0  0  0  0
   -1.8585    7.1547    7.8001 C   0  0  0  0  0  0  0  0  0  0  0  0
   -3.3556    6.9940    7.9674 C   0  0  0  0  0  0  0  0  0  0  0  0
   -3.6423    5.6764    7.2988 C   0  0  0  0  0  0  0  0  0  0  0  0
   -2.3146    5.1149    6.8493 C   0  0  0  0  0  0  0  0  0  0  0  0
    3.0853    6.1745   14.7787 C   0  0  0  0  0  0  0  0  0  0  0  0
    2.2460    5.0722   14.9763 O   0  0  0  0  0  0  0  0  0  0  0  0
 41 42  1  0  0  0
 42 24  1  0  0  0
 24 25  2  0  0  0
 25 26  1  0  0  0
 26 27  2  0  0  0
 27 28  1  0  0  0
 28 29  2  0  0  0
 29  1  1  0  0  0
  1  3  1  0  0  0
  3  4  2  0  0  0
  4  5  1  0  0  0
  5  6  2  0  0  0
  6  7  1  0  0  0
  6  8  1  0  0  0
  8 10  1  0  0  0
 10 12  1  0  0  0
 12 13  2  0  0  0
 13 14  1  0  0  0
 14 15  2  0  0  0
 15 16  1  0  0  0
 16 17  2  0  0  0
 17 18  1  0  0  0
 18 19  2  0  0  0
 18 20  2  0  0  0
 18 21  1  0  0  0
 21 22  1  0  0  0
 21 23  1  0  0  0
  8  9  2  0  0  0
 26 30  1  0  0  0
 30 31  1  0  0  0
 31 32  1  0  0  0
 32 33  1  0  0  0
 33 34  1  0  0  0
 34 35  1  0  0  0
 33 36  1  0  0  0
 36 37  1  0  0  0
 37 38  1  0  0  0
 38 39  1  0  0  0
 39 40  1  0  0  0
 29 24  1  0  0  0
  9  3  1  0  0  0
 35 30  1  0  0  0
 40 36  1  0  0  0
 17 12  1  0  0  0
  1  2  1  0  0  0
 10 11  1  0  0  0
M  END
> <minimizedAffinity>
-7.87558

> <CNNscore>
0.3987775743

> <CNNaffinity>
7.1875967979

> <CNN_VS>
2.8662524223

> <CNNaffinity_variance>
0.1614995301

$$$$
[H]c1nc(N([H])c2c([H])c([H])c(N3C([H])([H])C([H])([H])C([H])(N4C([H])([H])C([H])([H])C([H])([H])C4([H])[H])C([H])([H])C3([H])[H])c([H])c2OC([H])([H])[H])nc(N([H])c2c([H])c([H])c([H])c([H])c2S(=O)(=O)C([H])(C([H])([H])[H])C([H])([H])[H])c1Cl


 42 46  0  0  0  0  0  0  0  0999 V2000
    4.0453    2.9073   15.6528 N   0  0  0  0  0  0  0  0  0  0  0  0
    5.0573    2.9985   15.2499 H   0  0  0  0  0  0  0  0  0  0  0  0
    3.9962    2.2135   16.8635 C   0  0  0  0  0  0  0  0  0  0  0  0
    3.2918    1.1023   17.0249 N   0  0  0  0  0  0  0  0  0  0  0  0
    3.2314    0.4327   18.1788 C   0  0  0  0  0  0  0  0  0  0  0  0
    3.9395    0.9368   19.2326 C   0  0  0  0  0  0  0  0  0  0  0  0
    3.9102    0.1110   20.7708 Cl  0  0  0  0  0  0  0  0  0  0  0  0
    4.7008    2.1138   19.1063 C   0  0  0  0  0  0  0  0  0  0  0  0
    4.6794    2.6776   17.9245 N   0  0  0  0  0  0  0  0  0  0  0  0
    5.3998    2.6492   20.2022 N   0  0  0  0  0  0  0  0  0  0  0  0
    6.4676    2.6646   20.0526 H   0  0  0  0  0  0  0  0  0  0  0  0
    4.8779    3.1705   21.4036 C   0  0  0  0  0  0  0  0  0  0  0  0
    4.4192    2.4012   22.4407 C   0  0  0  0  0  0  0  0  0  0  0  0
    3.8043    2.9006   23.5880 C   0  0  0  0  0  0  0  0  0  0  0  0
    3.6445    4.2489   23.6918 C   0  0  0  0  0  0  0  0  0  0  0  0
    4.0931    5.0495   22.6724 C   0  0  0  0  0  0  0  0  0  0  0  0
    4.7132    4.5497   21.5189 C   0  0  0  0  0  0  0  0  0  0  0  0
    5.3212    5.6931   20.3872 S   0  0  0  0  0  0  0  0  0  0  0  0
    4.9669    5.3777   18.9466 O   0  0  0  0  0  0  0  0  0  0  0  0
    4.5690    7.0233   20.6222 O   0  0  0  0  0  0  0  0  0  0  0  0
    7.0175    6.1160   20.5588 C   0  0  0  0  0  0  0  0  0  0  0  0
    7.6102    6.1061   21.9097 C   0  0  0  0  0  0  0  0  0  0  0  0
    7.2139    7.4833   19.9056 C   0  0  0  0  0  0  0  0  0  0  0  0
    2.9374    4.8998   14.8849 C   0  0  0  0  0  0  0  0  0  0  0  0
    1.9489    5.5253   14.1590 C   0  0  0  0  0  0  0  0  0  0  0  0
    1.0278    4.8008   13.4330 C   0  0  0  0  0  0  0  0  0  0  0  0
    1.0814    3.4265   13.4210 C   0  0  0  0  0  0  0  0  0  0  0  0
    2.0920    2.8062   14.1638 C   0  0  0  0  0  0  0  0  0  0  0  0
    3.0151    3.4923   14.8904 C   0  0  0  0  0  0  0  0  0  0  0  0
   -0.0051    5.4221   12.6852 N   0  0  0  0  0  0  0  0  0  0  0  0
   -1.0790    6.1569   13.3638 C   0  0  0  0  0  0  0  0  0  0  0  0
   -2.2002    6.4600   12.3990 C   0  0  0  0  0  0  0  0  0  0  0  0
   -2.5702    5.1973   11.6267 C   0  0  0  0  0  0  0  0  0  0  0  0
   -1.3876    4.6089   10.9419 C   0  0  0  0  0  0  0  0  0  0  0  0
   -0.1114    5.4107   11.2410 C   0  0  0  0  0  0  0  0  0  0  0  0
   -3.6983    5.3937   10.7733 N   0  0  0  0  0  0  0  0  0  0  0  0
   -4.8623    5.9132   11.3868 C   0  0  0  0  0  0  0  0  0  0  0  0
   -5.8605    4.7857   11.5522 C   0  0  0  0  0  0  0  0  0  0  0  0
   -5.3516    3.7278   10.6103 C   0  0  0  0  0  0  0  0  0  0  0  0
   -4.0696    4.2545   10.0110 C   0  0  0  0  0  0  0  0  0  0  0  0
    3.6651    7.0583   15.6695 C   0  0  0  0  0  0  0  0  0  0  0  0
    3.8289    5.6707   15.5900 O   0  0  0  0  0  0  0  0  0  0  0  0
 41 42  1  0  0  0
 42 24  1  0  0  0
 24 25  2  0  0  0
 25 26  1  0  0  0
 26 27  2  0  0  0
 27 28  1  0  0  0
 28 29  2  0  0  0
 29  1  1  0  0  0
  1  3  1  0  0  0
  3  4  2  0  0  0
  4  5  1  0  0  0
  5  6  2  0  0  0
  6  7  1  0  0  0
  6  8  1  0  0  0
  8 10  1  0  0  0
 10 12  1  0  0  0
 12 13  2  0  0  0
 13 14  1  0  0  0
 14 15  2  0  0  0
 15 16  1  0  0  0
 16 17  2  0  0  0
 17 18  1  0  0  0
 18 19  2  0  0  0
 18 20  2  0  0  0
 18 21  1  0  0  0
 21 22  1  0  0  0
 21 23  1  0  0  0
  8  9  2  0  0  0
 26 30  1  0  0  0
 30 31  1  0  0  0
 31 32  1  0  0  0
 32 33  1  0  0  0
 33 34  1  0  0  0
 34 35  1  0  0  0
 33 36  1  0  0  0
 36 37  1  0  0  0
 37 38  1  0  0  0
 38 39  1  0  0  0
 39 40  1  0  0  0
 29 24  1  0  0  0
  9  3  1  0  0  0
 35 30  1  0  0  0
 40 36  1  0  0  0
 17 12  1  0  0  0
  1  2  1  0  0  0
 10 11  1  0  0  0
M  END
> <minimizedAffinity>
-8.73647

> <CNNscore>
0.3929817677

> <CNNaffinity>
7.1914215088

> <CNN_VS>
2.8260974884

> <CNNaffinity_variance>
0.3468410969

$$$$
[H]c1nc(N([H])c2c([H])c([H])c(N3C([H])([H])C([H])([H])C([H])(N4C([H])([H])C([H])([H])C([H])([H])C4([H])[H])C([H])([H])C3([H])[H])c([H])c2OC([H])([H])[H])nc(N([H])c2c([H])c([H])c([H])c([H])c2S(=O)(=O)C([H])(C([H])([H])[H])C([H])([H])[H])c1Cl


 42 46  0  0  0  0  0  0  0  0999 V2000
    4.5662    1.4873   18.7673 N   0  0  0  0  0  0  0  0  0  0  0  0
    5.1023    0.5379   18.8442 H   0  0  0  0  0  0  0  0  0  0  0  0
    4.3569    2.1020   20.0033 C   0  0  0  0  0  0  0  0  0  0  0  0
    4.0992    1.4185   21.1094 N   0  0  0  0  0  0  0  0  0  0  0  0
    3.8910    1.9942   22.2963 C   0  0  0  0  0  0  0  0  0  0  0  0
    3.9516    3.3579   22.3494 C   0  0  0  0  0  0  0  0  0  0  0  0
    3.6939    4.1783   23.8691 Cl  0  0  0  0  0  0  0  0  0  0  0  0
    4.2222    4.1236   21.1999 C   0  0  0  0  0  0  0  0  0  0  0  0
    4.4081    3.4423   20.0970 N   0  0  0  0  0  0  0  0  0  0  0  0
    4.2489    5.5282   21.2510 N   0  0  0  0  0  0  0  0  0  0  0  0
    4.0189    5.9175   22.2299 H   0  0  0  0  0  0  0  0  0  0  0  0
    4.5591    6.4362   20.2181 C   0  0  0  0  0  0  0  0  0  0  0  0
    3.7343    6.7058   19.1576 C   0  0  0  0  0  0  0  0  0  0  0  0
    4.0713    7.5190   18.0765 C   0  0  0  0  0  0  0  0  0  0  0  0
    5.3080    8.0891   18.0670 C   0  0  0  0  0  0  0  0  0  0  0  0
    6.1594    7.8416   19.1134 C   0  0  0  0  0  0  0  0  0  0  0  0
    5.8219    7.0259   20.2024 C   0  0  0  0  0  0  0  0  0  0  0  0
    6.9587    6.9092   21.4876 S   0  0  0  0  0  0  0  0  0  0  0  0
    7.0520    5.5246   22.0996 O   0  0  0  0  0  0  0  0  0  0  0  0
    8.3681    7.0898   20.8781 O   0  0  0  0  0  0  0  0  0  0  0  0
    6.8545    8.1561   22.7205 C   0  0  0  0  0  0  0  0  0  0  0  0
    5.9555    9.3019   22.4858 C   0  0  0  0  0  0  0  0  0  0  0  0
    8.2758    8.6467   22.9927 C   0  0  0  0  0  0  0  0  0  0  0  0
    3.3902    1.0139   16.7228 C   0  0  0  0  0  0  0  0  0  0  0  0
    3.0043    1.3587   15.4470 C   0  0  0  0  0  0  0  0  0  0  0  0
    3.3952    2.5529   14.8799 C   0  0  0  0  0  0  0  0  0  0  0  0
    4.1851    3.4295   15.5864 C   0  0  0  0  0  0  0  0  0  0  0  0
    4.5686    3.0643   16.8816 C   0  0  0  0  0  0  0  0  0  0  0  0
    4.2002    1.8938   17.4689 C   0  0  0  0  0  0  0  0  0  0  0  0
    3.0182    2.9260   13.5643 N   0  0  0  0  0  0  0  0  0  0  0  0
    3.1904    4.3082   13.1025 C   0  0  0  0  0  0  0  0  0  0  0  0
    2.4508    4.5251   11.8041 C   0  0  0  0  0  0  0  0  0  0  0  0
    1.0313    3.9788   11.9228 C   0  0  0  0  0  0  0  0  0  0  0  0
    1.0284    2.5493   12.3354 C   0  0  0  0  0  0  0  0  0  0  0  0
    2.4557    2.0324   12.5732 C   0  0  0  0  0  0  0  0  0  0  0  0
    0.2460    4.2504   10.7614 N   0  0  0  0  0  0  0  0  0  0  0  0
    0.6686    5.3388    9.9626 C   0  0  0  0  0  0  0  0  0  0  0  0
   -0.2658    6.5054   10.2098 C   0  0  0  0  0  0  0  0  0  0  0  0
   -1.4656    5.8621   10.8516 C   0  0  0  0  0  0  0  0  0  0  0  0
   -1.1451    4.3947   11.0076 C   0  0  0  0  0  0  0  0  0  0  0  0
    1.9426   -0.2390   18.1852 C   0  0  0  0  0  0  0  0  0  0  0  0
    2.9718   -0.1883   17.2383 O   0  0  0  0  0  0  0  0  0  0  0  0
 41 42  1  0  0  0
 42 24  1  0  0  0
 24 25  2  0  0  0
 25 26  1  0  0  0
 26 27  2  0  0  0
 27 28  1  0  0  0
 28 29  2  0  0  0
 29  1  1  0  0  0
  1  3  1  0  0  0
  3  4  2  0  0  0
  4  5  1  0  0  0
  5  6  2  0  0  0
  6  7  1  0  0  0
  6  8  1  0  0  0
  8 10  1  0  0  0
 10 12  1  0  0  0
 12 13  2  0  0  0
 13 14  1  0  0  0
 14 15  2  0  0  0
 15 16  1  0  0  0
 16 17  2  0  0  0
 17 18  1  0  0  0
 18 19  2  0  0  0
 18 20  2  0  0  0
 18 21  1  0  0  0
 21 22  1  0  0  0
 21 23  1  0  0  0
  8  9  2  0  0  0
 26 30  1  0  0  0
 30 31  1  0  0  0
 31 32  1  0  0  0
 32 33  1  0  0  0
 33 34  1  0  0  0
 34 35  1  0  0  0
 33 36  1  0  0  0
 36 37  1  0  0  0
 37 38  1  0  0  0
 38 39  1  0  0  0
 39 40  1  0  0  0
 29 24  1  0  0  0
  9  3  1  0  0  0
 35 30  1  0  0  0
 40 36  1  0  0  0
 17 12  1  0  0  0
  1  2  1  0  0  0
 10 11  1  0  0  0
M  END
> <minimizedAffinity>
-9.01477

> <CNNscore>
0.3645789325

> <CNNaffinity>
7.2957344055

> <CNN_VS>
2.6598711014

> <CNNaffinity_variance>
0.3818256855

$$$$
[H]c1nc(N([H])c2c([H])c([H])c(N3C([H])([H])C([H])([H])C([H])(N4C([H])([H])C([H])([H])C([H])([H])C4([H])[H])C([H])([H])C3([H])[H])c([H])c2OC([H])([H])[H])nc(N([H])c2c([H])c([H])c([H])c([H])c2S(=O)(=O)C([H])(C([H])([H])[H])C([H])([H])[H])c1Cl


 42 46  0  0  0  0  0  0  0  0999 V2000
    4.5044    2.2075   18.2190 N   0  0  0  0  0  0  0  0  0  0  0  0
    5.1473    1.3249   18.1716 H   0  0  0  0  0  0  0  0  0  0  0  0
    4.3195    2.6836   19.5185 C   0  0  0  0  0  0  0  0  0  0  0  0
    4.0824    1.8835   20.5482 N   0  0  0  0  0  0  0  0  0  0  0  0
    3.8976    2.3262   21.7945 C   0  0  0  0  0  0  0  0  0  0  0  0
    3.9606    3.6760   21.9948 C   0  0  0  0  0  0  0  0  0  0  0  0
    3.7330    4.3257   23.5994 Cl  0  0  0  0  0  0  0  0  0  0  0  0
    4.2098    4.5627   20.9305 C   0  0  0  0  0  0  0  0  0  0  0  0
    4.3738    4.0058   19.7566 N   0  0  0  0  0  0  0  0  0  0  0  0
    4.2389    5.9534   21.1338 N   0  0  0  0  0  0  0  0  0  0  0  0
    3.2599    6.4039   21.0976 H   0  0  0  0  0  0  0  0  0  0  0  0
    5.3526    6.7766   21.3975 C   0  0  0  0  0  0  0  0  0  0  0  0
    6.1024    6.7127   22.5427 C   0  0  0  0  0  0  0  0  0  0  0  0
    7.1384    7.5889   22.8631 C   0  0  0  0  0  0  0  0  0  0  0  0
    7.4314    8.5823   21.9791 C   0  0  0  0  0  0  0  0  0  0  0  0
    6.7015    8.6754   20.8216 C   0  0  0  0  0  0  0  0  0  0  0  0
    5.6606    7.7945   20.4965 C   0  0  0  0  0  0  0  0  0  0  0  0
    4.9202    7.9768   18.9550 S   0  0  0  0  0  0  0  0  0  0  0  0
    3.4042    7.9668   18.9981 O   0  0  0  0  0  0  0  0  0  0  0  0
    5.2210    9.4114   18.4628 O   0  0  0  0  0  0  0  0  0  0  0  0
    5.5384    6.9402   17.6787 C   0  0  0  0  0  0  0  0  0  0  0  0
    6.7025    6.0830   17.9727 C   0  0  0  0  0  0  0  0  0  0  0  0
    5.8288    7.8296   16.4707 C   0  0  0  0  0  0  0  0  0  0  0  0
    2.8680    2.0249   16.4652 C   0  0  0  0  0  0  0  0  0  0  0  0
    2.3346    2.4422   15.2665 C   0  0  0  0  0  0  0  0  0  0  0  0
    2.8873    3.4922   14.5648 C   0  0  0  0  0  0  0  0  0  0  0  0
    3.9922    4.1479   15.0554 C   0  0  0  0  0  0  0  0  0  0  0  0
    4.5222    3.7117   16.2748 C   0  0  0  0  0  0  0  0  0  0  0  0
    4.0006    2.6792   16.9907 C   0  0  0  0  0  0  0  0  0  0  0  0
    2.3614    3.9340   13.3237 N   0  0  0  0  0  0  0  0  0  0  0  0
    0.9779    4.4139   13.2282 C   0  0  0  0  0  0  0  0  0  0  0  0
    0.5623    4.5367   11.7818 C   0  0  0  0  0  0  0  0  0  0  0  0
    0.9345    3.2628   11.0293 C   0  0  0  0  0  0  0  0  0  0  0  0
    2.3818    2.9477   11.1701 C   0  0  0  0  0  0  0  0  0  0  0  0
    3.0915    3.9680   12.0735 C   0  0  0  0  0  0  0  0  0  0  0  0
    0.4706    3.2745    9.6788 N   0  0  0  0  0  0  0  0  0  0  0  0
   -0.7787    3.8987    9.4533 C   0  0  0  0  0  0  0  0  0  0  0  0
   -1.8206    2.8204    9.2364 C   0  0  0  0  0  0  0  0  0  0  0  0
   -0.9989    1.5979    8.9272 C   0  0  0  0  0  0  0  0  0  0  0  0
    0.4510    2.0022    9.0483 C   0  0  0  0  0  0  0  0  0  0  0  0
    2.8025   -0.3192   17.0176 C   0  0  0  0  0  0  0  0  0  0  0  0
    2.2769    0.9736   17.1221 O   0  0  0  0  0  0  0  0  0  0  0  0
 41 42  1  0  0  0
 42 24  1  0  0  0
 24 25  2  0  0  0
 25 26  1  0  0  0
 26 27  2  0  0  0
 27 28  1  0  0  0
 28 29  2  0  0  0
 29  1  1  0  0  0
  1  3  1  0  0  0
  3  4  2  0  0  0
  4  5  1  0  0  0
  5  6  2  0  0  0
  6  7  1  0  0  0
  6  8  1  0  0  0
  8 10  1  0  0  0
 10 12  1  0  0  0
 12 13  2  0  0  0
 13 14  1  0  0  0
 14 15  2  0  0  0
 15 16  1  0  0  0
 16 17  2  0  0  0
 17 18  1  0  0  0
 18 19  2  0  0  0
 18 20  2  0  0  0
 18 21  1  0  0  0
 21 22  1  0  0  0
 21 23  1  0  0  0
  8  9  2  0  0  0
 26 30  1  0  0  0
 30 31  1  0  0  0
 31 32  1  0  0  0
 32 33  1  0  0  0
 33 34  1  0  0  0
 34 35  1  0  0  0
 33 36  1  0  0  0
 36 37  1  0  0  0
 37 38  1  0  0  0
 38 39  1  0  0  0
 39 40  1  0  0  0
 29 24  1  0  0  0
  9  3  1  0  0  0
 35 30  1  0  0  0
 40 36  1  0  0  0
 17 12  1  0  0  0
  1  2  1  0  0  0
 10 11  1  0  0  0
M  END
> <minimizedAffinity>
-8.12023

> <CNNscore>
0.2263136208

> <CNNaffinity>
6.9773192406

> <CNN_VS>
1.5790623426

> <CNNaffinity_variance>
0.3696879447

$$$$
[H]c1nc(N([H])c2c([H])c([H])c(N3C([H])([H])C([H])([H])C([H])(N4C([H])([H])C([H])([H])C([H])([H])C4([H])[H])C([H])([H])C3([H])[H])c([H])c2OC([H])([H])[H])nc(N([H])c2c([H])c([H])c([H])c([H])c2S(=O)(=O)C([H])(C([H])([H])[H])C([H])([H])[H])c1Cl


 42 46  0  0  0  0  0  0  0  0999 V2000
    4.6003    2.4302   18.6916 N   0  0  0  0  0  0  0  0  0  0  0  0
    4.8780    1.5068   19.2064 H   0  0  0  0  0  0  0  0  0  0  0  0
    3.9038    2.2082   17.5021 C   0  0  0  0  0  0  0  0  0  0  0  0
    3.1615    1.1295   17.2966 N   0  0  0  0  0  0  0  0  0  0  0  0
    2.4954    0.9021   16.1617 C   0  0  0  0  0  0  0  0  0  0  0  0
    2.5989    1.8426   15.1763 C   0  0  0  0  0  0  0  0  0  0  0  0
    1.7514    1.6133   13.6670 Cl  0  0  0  0  0  0  0  0  0  0  0  0
    3.3760    3.0029   15.3511 C   0  0  0  0  0  0  0  0  0  0  0  0
    3.9802    3.1103   16.5080 N   0  0  0  0  0  0  0  0  0  0  0  0
    3.5087    3.9515   14.3221 N   0  0  0  0  0  0  0  0  0  0  0  0
    3.6579    3.5023   13.3533 H   0  0  0  0  0  0  0  0  0  0  0  0
    3.4404    5.3567   14.4125 C   0  0  0  0  0  0  0  0  0  0  0  0
    4.0361    6.0937   15.4023 C   0  0  0  0  0  0  0  0  0  0  0  0
    3.8894    7.4707   15.5643 C   0  0  0  0  0  0  0  0  0  0  0  0
    3.0983    8.1374   14.6789 C   0  0  0  0  0  0  0  0  0  0  0  0
    2.4870    7.4311   13.6745 C   0  0  0  0  0  0  0  0  0  0  0  0
    2.6346    6.0470   13.5087 C   0  0  0  0  0  0  0  0  0  0  0  0
    1.8941    5.3302   12.1318 S   0  0  0  0  0  0  0  0  0  0  0  0
    2.7540    4.2849   11.4477 O   0  0  0  0  0  0  0  0  0  0  0  0
    0.6984    4.4883   12.6338 O   0  0  0  0  0  0  0  0  0  0  0  0
    1.1858    6.4448   10.9735 C   0  0  0  0  0  0  0  0  0  0  0  0
   -0.2844    6.5457   10.9050 C   0  0  0  0  0  0  0  0  0  0  0  0
    1.7560    6.0962    9.5994 C   0  0  0  0  0  0  0  0  0  0  0  0
    4.7215    3.7625   20.6909 C   0  0  0  0  0  0  0  0  0  0  0  0
    5.0788    4.9175   21.3496 C   0  0  0  0  0  0  0  0  0  0  0  0
    5.6978    5.9560   20.6872 C   0  0  0  0  0  0  0  0  0  0  0  0
    5.9721    5.8550   19.3433 C   0  0  0  0  0  0  0  0  0  0  0  0
    5.6027    4.6747   18.6886 C   0  0  0  0  0  0  0  0  0  0  0  0
    4.9906    3.6327   19.3134 C   0  0  0  0  0  0  0  0  0  0  0  0
    6.0668    7.1591   21.3419 N   0  0  0  0  0  0  0  0  0  0  0  0
    5.1408    8.2964   21.3903 C   0  0  0  0  0  0  0  0  0  0  0  0
    5.8577    9.5389   21.8617 C   0  0  0  0  0  0  0  0  0  0  0  0
    7.1614    9.7062   21.0872 C   0  0  0  0  0  0  0  0  0  0  0  0
    8.0179    8.4939   21.1899 C   0  0  0  0  0  0  0  0  0  0  0  0
    7.3307    7.3910   22.0098 C   0  0  0  0  0  0  0  0  0  0  0  0
    7.8343   10.9229   21.4128 N   0  0  0  0  0  0  0  0  0  0  0  0
    9.2423   10.8463   21.5269 C   0  0  0  0  0  0  0  0  0  0  0  0
    9.6062   10.8791   22.9971 C   0  0  0  0  0  0  0  0  0  0  0  0
    8.3604   11.4106   23.6535 C   0  0  0  0  0  0  0  0  0  0  0  0
    7.3318   11.5882   22.5624 C   0  0  0  0  0  0  0  0  0  0  0  0
    4.8235    2.0075   22.3383 C   0  0  0  0  0  0  0  0  0  0  0  0
    4.1074    2.7595   21.4001 O   0  0  0  0  0  0  0  0  0  0  0  0
 41 42  1  0  0  0
 42 24  1  0  0  0
 24 25  2  0  0  0
 25 26  1  0  0  0
 26 27  2  0  0  0
 27 28  1  0  0  0
 28 29  2  0  0  0
 29  1  1  0  0  0
  1  3  1  0  0  0
  3  4  2  0  0  0
  4  5  1  0  0  0
  5  6  2  0  0  0
  6  7  1  0  0  0
  6  8  1  0  0  0
  8 10  1  0  0  0
 10 12  1  0  0  0
 12 13  2  0  0  0
 13 14  1  0  0  0
 14 15  2  0  0  0
 15 16  1  0  0  0
 16 17  2  0  0  0
 17 18  1  0  0  0
 18 19  2  0  0  0
 18 20  2  0  0  0
 18 21  1  0  0  0
 21 22  1  0  0  0
 21 23  1  0  0  0
  8  9  2  0  0  0
 26 30  1  0  0  0
 30 31  1  0  0  0
 31 32  1  0  0  0
 32 33  1  0  0  0
 33 34  1  0  0  0
 34 35  1  0  0  0
 33 36  1  0  0  0
 36 37  1  0  0  0
 37 38  1  0  0  0
 38 39  1  0  0  0
 39 40  1  0  0  0
 29 24  1  0  0  0
  9  3  1  0  0  0
 35 30  1  0  0  0
 40 36  1  0  0  0
 17 12  1  0  0  0
  1  2  1  0  0  0
 10 11  1  0  0  0
M  END
> <minimizedAffinity>
-7.82612

> <CNNscore>
0.1515225172

> <CNNaffinity>
6.9145722389

> <CNN_VS>
1.0477133989

> <CNNaffinity_variance>
0.1894498467

$$$$
[H]OC(=O)C([H])(C(=O)O[H])N([H])S(=O)(=O)c1c([H])c([H])c(C(C([H])([H])[H])(C([H])([H])[H])C([H])([H])[H])c([H])c1[H]


 24 24  0  0  0  0  0  0  0  0999 V2000
    2.7646    5.4069   16.0704 S   0  0  0  0  0  0  0  0  0  0  0  0
    1.9914    4.8698   17.2679 O   0  0  0  0  0  0  0  0  0  0  0  0
    3.8777    4.3999   15.8375 O   0  0  0  0  0  0  0  0  0  0  0  0
    0.0867    5.2812   12.3433 C   0  0  0  0  0  0  0  0  0  0  0  0
    0.0834    6.3682   13.1866 C   0  0  0  0  0  0  0  0  0  0  0  0
    0.8969    6.4361   14.3098 C   0  0  0  0  0  0  0  0  0  0  0  0
    1.7581    5.4186   14.6509 C   0  0  0  0  0  0  0  0  0  0  0  0
    1.7750    4.3035   13.8049 C   0  0  0  0  0  0  0  0  0  0  0  0
    0.9666    4.2538   12.7019 C   0  0  0  0  0  0  0  0  0  0  0  0
   -0.5144    6.3476   10.2319 C   0  0  0  0  0  0  0  0  0  0  0  0
   -0.7538    5.1468   11.1284 C   0  0  0  0  0  0  0  0  0  0  0  0
   -2.2139    5.2244   11.5344 C   0  0  0  0  0  0  0  0  0  0  0  0
   -0.4998    3.8314   10.4035 C   0  0  0  0  0  0  0  0  0  0  0  0
    3.3410    6.9171   16.4568 N   0  0  0  0  0  0  0  0  0  0  0  0
    3.0314    7.7392   15.9526 H   0  0  0  0  0  0  0  0  0  0  0  0
    4.3090    7.0935   17.4559 C   0  0  0  0  0  0  0  0  0  0  0  0
    3.7143    7.5011   18.7416 C   0  0  0  0  0  0  0  0  0  0  0  0
    3.2050    6.5600   19.5998 O   0  0  0  0  0  0  0  0  0  0  0  0
    3.6868    8.7159   19.0420 O   0  0  0  0  0  0  0  0  0  0  0  0
    3.8754    6.1068   20.2364 H   0  0  0  0  0  0  0  0  0  0  0  0
    5.3441    8.1381   16.9971 C   0  0  0  0  0  0  0  0  0  0  0  0
    4.8267    9.2526   16.3729 O   0  0  0  0  0  0  0  0  0  0  0  0
    6.5391    7.9131   17.2101 O   0  0  0  0  0  0  0  0  0  0  0  0
    5.4052    9.9958   15.9781 H   0  0  0  0  0  0  0  0  0  0  0  0
 10 11  1  0  0  0
 11 12  1  0  0  0
 11 13  1  0  0  0
 11  4  1  0  0  0
  4  5  2  0  0  0
  5  6  1  0  0  0
  6  7  2  0  0  0
  7  8  1  0  0  0
  8  9  2  0  0  0
  7  1  1  0  0  0
  1  2  2  0  0  0
  1  3  2  0  0  0
  1 14  1  0  0  0
 14 16  1  0  0  0
 16 17  1  0  0  0
 17 18  1  0  0  0
 17 19  2  0  0  0
 16 21  1  0  0  0
 21 22  1  0  0  0
 21 23  2  0  0  0
  9  4  1  0  0  0
 14 15  1  0  0  0
 18 20  1  0  0  0
 22 24  1  0  0  0
M  END
> <minimizedAffinity>
-5.21688

> <CNNscore>
0.4248371422

> <CNNaffinity>
4.3597350121

> <CNN_VS>
1.8521773815

> <CNNaffinity_variance>
0.5042482615

$$$$
[H]OC(=O)C([H])(C(=O)O[H])N([H])S(=O)(=O)c1c([H])c([H])c(C(C([H])([H])[H])(C([H])([H])[H])C([H])([H])[H])c([H])c1[H]


 24 24  0  0  0  0  0  0  0  0999 V2000
    3.4720    4.9334   16.7955 S   0  0  0  0  0  0  0  0  0  0  0  0
    3.8223    4.2309   15.4901 O   0  0  0  0  0  0  0  0  0  0  0  0
    1.9632    5.1049   16.7571 O   0  0  0  0  0  0  0  0  0  0  0  0
    4.5852    2.1766   20.2939 C   0  0  0  0  0  0  0  0  0  0  0  0
    4.2420    3.4921   20.5048 C   0  0  0  0  0  0  0  0  0  0  0  0
    3.8852    4.3399   19.4646 C   0  0  0  0  0  0  0  0  0  0  0  0
    3.8531    3.9171   18.1556 C   0  0  0  0  0  0  0  0  0  0  0  0
    4.1999    2.5813   17.9211 C   0  0  0  0  0  0  0  0  0  0  0  0
    4.5486    1.7598   18.9585 C   0  0  0  0  0  0  0  0  0  0  0  0
    4.1407   -0.0411   21.2110 C   0  0  0  0  0  0  0  0  0  0  0  0
    4.9729    1.2193   21.3587 C   0  0  0  0  0  0  0  0  0  0  0  0
    4.5908    1.8061   22.7049 C   0  0  0  0  0  0  0  0  0  0  0  0
    6.4671    0.9240   21.3416 C   0  0  0  0  0  0  0  0  0  0  0  0
    4.2784    6.3861   16.8383 N   0  0  0  0  0  0  0  0  0  0  0  0
    4.6008    6.8299   15.9868 H   0  0  0  0  0  0  0  0  0  0  0  0
    4.5813    7.0154   18.0542 C   0  0  0  0  0  0  0  0  0  0  0  0
    3.9052    8.3182   18.1904 C   0  0  0  0  0  0  0  0  0  0  0  0
    3.1515    8.5957   19.3024 O   0  0  0  0  0  0  0  0  0  0  0  0
    4.0338    9.1691   17.2815 O   0  0  0  0  0  0  0  0  0  0  0  0
    3.6581    8.9532   20.1244 H   0  0  0  0  0  0  0  0  0  0  0  0
    6.1061    7.1951   18.1801 C   0  0  0  0  0  0  0  0  0  0  0  0
    6.5366    8.4879   18.3876 O   0  0  0  0  0  0  0  0  0  0  0  0
    6.8246    6.1958   18.0862 O   0  0  0  0  0  0  0  0  0  0  0  0
    7.5219    8.7511   18.4398 H   0  0  0  0  0  0  0  0  0  0  0  0
 10 11  1  0  0  0
 11 12  1  0  0  0
 11 13  1  0  0  0
 11  4  1  0  0  0
  4  5  2  0  0  0
  5  6  1  0  0  0
  6  7  2  0  0  0
  7  8  1  0  0  0
  8  9  2  0  0  0
  7  1  1  0  0  0
  1  2  2  0  0  0
  1  3  2  0  0  0
  1 14  1  0  0  0
 14 16  1  0  0  0
 16 17  1  0  0  0
 17 18  1  0  0  0
 17 19  2  0  0  0
 16 21  1  0  0  0
 21 22  1  0  0  0
 21 23  2  0  0  0
  9  4  1  0  0  0
 14 15  1  0  0  0
 18 20  1  0  0  0
 22 24  1  0  0  0
M  END
> <minimizedAffinity>
-6.72282

> <CNNscore>
0.3662494123

> <CNNaffinity>
4.9248857498

> <CNN_VS>
1.8037365675

> <CNNaffinity_variance>
0.2035333663

$$$$
[H]OC(=O)C([H])(C(=O)O[H])N([H])S(=O)(=O)c1c([H])c([H])c(C(C([H])([H])[H])(C([H])([H])[H])C([H])([H])[H])c([H])c1[H]


 24 24  0  0  0  0  0  0  0  0999 V2000
    3.3160    5.3823   17.3958 S   0  0  0  0  0  0  0  0  0  0  0  0
    4.2136    5.4410   16.1666 O   0  0  0  0  0  0  0  0  0  0  0  0
    1.9481    4.9890   16.8651 O   0  0  0  0  0  0  0  0  0  0  0  0
    4.6136    2.1245   20.3591 C   0  0  0  0  0  0  0  0  0  0  0  0
    4.4931    1.8577   19.0147 C   0  0  0  0  0  0  0  0  0  0  0  0
    4.1190    2.8309   18.0976 C   0  0  0  0  0  0  0  0  0  0  0  0
    3.8443    4.1249   18.4764 C   0  0  0  0  0  0  0  0  0  0  0  0
    3.9609    4.4153   19.8408 C   0  0  0  0  0  0  0  0  0  0  0  0
    4.3311    3.4438   20.7306 C   0  0  0  0  0  0  0  0  0  0  0  0
    4.1445   -0.1038   21.2374 C   0  0  0  0  0  0  0  0  0  0  0  0
    5.0104    1.1333   21.3889 C   0  0  0  0  0  0  0  0  0  0  0  0
    4.6828    1.6962   22.7594 C   0  0  0  0  0  0  0  0  0  0  0  0
    6.4960    0.8044   21.3193 C   0  0  0  0  0  0  0  0  0  0  0  0
    3.3152    6.8817   18.1127 N   0  0  0  0  0  0  0  0  0  0  0  0
    2.4570    7.2966   18.4551 H   0  0  0  0  0  0  0  0  0  0  0  0
    4.4909    7.6384   18.2198 C   0  0  0  0  0  0  0  0  0  0  0  0
    4.7900    8.0081   19.6151 C   0  0  0  0  0  0  0  0  0  0  0  0
    3.9789    8.8849   20.2895 O   0  0  0  0  0  0  0  0  0  0  0  0
    5.7893    7.5061   20.1773 O   0  0  0  0  0  0  0  0  0  0  0  0
    3.1452    8.4854   20.7427 H   0  0  0  0  0  0  0  0  0  0  0  0
    4.3742    8.9048   17.3505 C   0  0  0  0  0  0  0  0  0  0  0  0
    3.3838    8.8783   16.3924 O   0  0  0  0  0  0  0  0  0  0  0  0
    5.1572    9.8356   17.5613 O   0  0  0  0  0  0  0  0  0  0  0  0
    3.2317    9.6313   15.7196 H   0  0  0  0  0  0  0  0  0  0  0  0
 10 11  1  0  0  0
 11 12  1  0  0  0
 11 13  1  0  0  0
 11  4  1  0  0  0
  4  5  2  0  0  0
  5  6  1  0  0  0
  6  7  2  0  0  0
  7  8  1  0  0  0
  8  9  2  0  0  0
  7  1  1  0  0  0
  1  2  2  0  0  0
  1  3  2  0  0  0
  1 14  1  0  0  0
 14 16  1  0  0  0
 16 17  1  0  0  0
 17 18  1  0  0  0
 17 19  2  0  0  0
 16 21  1  0  0  0
 21 22  1  0  0  0
 21 23  2  0  0  0
  9  4  1  0  0  0
 14 15  1  0  0  0
 18 20  1  0  0  0
 22 24  1  0  0  0
M  END
> <minimizedAffinity>
-7.14797

> <CNNscore>
0.3516056836

> <CNNaffinity>
4.9638090134

> <CNN_VS>
1.7453035116

> <CNNaffinity_variance>
0.2018177956

$$$$
[H]OC(=O)C([H])(C(=O)O[H])N([H])S(=O)(=O)c1c([H])c([H])c(C(C([H])([H])[H])(C([H])([H])[H])C([H])([H])[H])c([H])c1[H]


 24 24  0  0  0  0  0  0  0  0999 V2000
    4.5326    5.3406   21.8371 S   0  0  0  0  0  0  0  0  0  0  0  0
    3.4984    4.8908   22.8609 O   0  0  0  0  0  0  0  0  0  0  0  0
    5.8585    4.8167   22.3614 O   0  0  0  0  0  0  0  0  0  0  0  0
    3.7482    3.4849   17.7116 C   0  0  0  0  0  0  0  0  0  0  0  0
    4.5605    2.8615   18.6304 C   0  0  0  0  0  0  0  0  0  0  0  0
    4.7986    3.3948   19.8902 C   0  0  0  0  0  0  0  0  0  0  0  0
    4.2368    4.5825   20.2989 C   0  0  0  0  0  0  0  0  0  0  0  0
    3.4075    5.2321   19.3770 C   0  0  0  0  0  0  0  0  0  0  0  0
    3.1837    4.6917   18.1400 C   0  0  0  0  0  0  0  0  0  0  0  0
    1.9464    2.8611   16.1881 C   0  0  0  0  0  0  0  0  0  0  0  0
    3.4512    2.9688   16.3530 C   0  0  0  0  0  0  0  0  0  0  0  0
    3.9768    1.5495   16.2447 C   0  0  0  0  0  0  0  0  0  0  0  0
    4.0862    3.8274   15.2668 C   0  0  0  0  0  0  0  0  0  0  0  0
    4.4919    6.9998   21.7495 N   0  0  0  0  0  0  0  0  0  0  0  0
    3.6836    7.5201   22.0687 H   0  0  0  0  0  0  0  0  0  0  0  0
    5.5511    7.7256   21.1859 C   0  0  0  0  0  0  0  0  0  0  0  0
    6.3106    8.4800   22.1992 C   0  0  0  0  0  0  0  0  0  0  0  0
    5.6544    9.2323   23.1400 O   0  0  0  0  0  0  0  0  0  0  0  0
    7.5607    8.4190   22.1935 O   0  0  0  0  0  0  0  0  0  0  0  0
    5.3320    8.7366   23.9828 H   0  0  0  0  0  0  0  0  0  0  0  0
    5.0084    8.6846   20.1094 C   0  0  0  0  0  0  0  0  0  0  0  0
    5.1038    8.2344   18.8102 O   0  0  0  0  0  0  0  0  0  0  0  0
    4.5383    9.7673   20.4709 O   0  0  0  0  0  0  0  0  0  0  0  0
    4.8268    8.7909   18.0001 H   0  0  0  0  0  0  0  0  0  0  0  0
 10 11  1  0  0  0
 11 12  1  0  0  0
 11 13  1  0  0  0
 11  4  1  0  0  0
  4  5  2  0  0  0
  5  6  1  0  0  0
  6  7  2  0  0  0
  7  8  1  0  0  0
  8  9  2  0  0  0
  7  1  1  0  0  0
  1  2  2  0  0  0
  1  3  2  0  0  0
  1 14  1  0  0  0
 14 16  1  0  0  0
 16 17  1  0  0  0
 17 18  1  0  0  0
 17 19  2  0  0  0
 16 21  1  0  0  0
 21 22  1  0  0  0
 21 23  2  0  0  0
  9  4  1  0  0  0
 14 15  1  0  0  0
 18 20  1  0  0  0
 22 24  1  0  0  0
M  END
> <minimizedAffinity>
-6.34673

> <CNNscore>
0.3322243690

> <CNNaffinity>
4.6345086098

> <CNN_VS>
1.5396966934

> <CNNaffinity_variance>
0.5465077162

$$$$
[H]OC(=O)C([H])(C(=O)O[H])N([H])S(=O)(=O)c1c([H])c([H])c(C(C([H])([H])[H])(C([H])([H])[H])C([H])([H])[H])c([H])c1[H]


 24 24  0  0  0  0  0  0  0  0999 V2000
    3.2205    5.3707   16.5602 S   0  0  0  0  0  0  0  0  0  0  0  0
    2.1003    5.0122   17.5281 O   0  0  0  0  0  0  0  0  0  0  0  0
    4.4308    4.5983   17.0564 O   0  0  0  0  0  0  0  0  0  0  0  0
    2.2750    3.7126   12.3848 C   0  0  0  0  0  0  0  0  0  0  0  0
    1.5627    4.7653   12.9114 C   0  0  0  0  0  0  0  0  0  0  0  0
    1.8418    5.2947   14.1643 C   0  0  0  0  0  0  0  0  0  0  0  0
    2.8491    4.7983   14.9595 C   0  0  0  0  0  0  0  0  0  0  0  0
    3.5846    3.7262   14.4407 C   0  0  0  0  0  0  0  0  0  0  0  0
    3.2960    3.2174   13.2037 C   0  0  0  0  0  0  0  0  0  0  0  0
    2.6493    1.7175   11.0296 C   0  0  0  0  0  0  0  0  0  0  0  0
    2.0302    3.1029   11.0548 C   0  0  0  0  0  0  0  0  0  0  0  0
    2.7785    3.9042   10.0058 C   0  0  0  0  0  0  0  0  0  0  0  0
    0.5476    3.0739   10.7064 C   0  0  0  0  0  0  0  0  0  0  0  0
    3.4482    7.0162   16.6130 N   0  0  0  0  0  0  0  0  0  0  0  0
    2.9762    7.6301   15.9602 H   0  0  0  0  0  0  0  0  0  0  0  0
    4.3372    7.5995   17.5272 C   0  0  0  0  0  0  0  0  0  0  0  0
    3.6924    7.8960   18.8192 C   0  0  0  0  0  0  0  0  0  0  0  0
    3.3807    6.8813   19.6880 O   0  0  0  0  0  0  0  0  0  0  0  0
    3.4399    9.0857   19.1149 O   0  0  0  0  0  0  0  0  0  0  0  0
    4.1324    6.5669   20.3174 H   0  0  0  0  0  0  0  0  0  0  0  0
    4.9311    8.8869   16.9247 C   0  0  0  0  0  0  0  0  0  0  0  0
    4.0274    9.7270   16.3106 O   0  0  0  0  0  0  0  0  0  0  0  0
    6.1468    9.0758   17.0258 O   0  0  0  0  0  0  0  0  0  0  0  0
    4.2956   10.5870   15.8297 H   0  0  0  0  0  0  0  0  0  0  0  0
 10 11  1  0  0  0
 11 12  1  0  0  0
 11 13  1  0  0  0
 11  4  1  0  0  0
  4  5  2  0  0  0
  5  6  1  0  0  0
  6  7  2  0  0  0
  7  8  1  0  0  0
  8  9  2  0  0  0
  7  1  1  0  0  0
  1  2  2  0  0  0
  1  3  2  0  0  0
  1 14  1  0  0  0
 14 16  1  0  0  0
 16 17  1  0  0  0
 17 18  1  0  0  0
 17 19  2  0  0  0
 16 21  1  0  0  0
 21 22  1  0  0  0
 21 23  2  0  0  0
  9  4  1  0  0  0
 14 15  1  0  0  0
 18 20  1  0  0  0
 22 24  1  0  0  0
M  END
> <minimizedAffinity>
-5.15266

> <CNNscore>
0.3118809462

> <CNNaffinity>
4.3328218460

> <CNN_VS>
1.3513245583

> <CNNaffinity_variance>
0.4369359016

$$$$
[H]OC(=O)C([H])(C(=O)O[H])N([H])S(=O)(=O)c1c([H])c([H])c(C(C([H])([H])[H])(C([H])([H])[H])C([H])([H])[H])c([H])c1[H]


 24 24  0  0  0  0  0  0  0  0999 V2000
    2.7724    5.4611   15.7947 S   0  0  0  0  0  0  0  0  0  0  0  0
    2.0730    4.8816   17.0175 O   0  0  0  0  0  0  0  0  0  0  0  0
    3.9163    4.5043   15.5059 O   0  0  0  0  0  0  0  0  0  0  0  0
   -0.0374    5.2519   12.1699 C   0  0  0  0  0  0  0  0  0  0  0  0
   -0.1371    6.2692   13.0909 C   0  0  0  0  0  0  0  0  0  0  0  0
    0.7124    6.3628   14.1852 C   0  0  0  0  0  0  0  0  0  0  0  0
    1.7082    5.4422   14.4181 C   0  0  0  0  0  0  0  0  0  0  0  0
    1.8247    4.3990   13.4919 C   0  0  0  0  0  0  0  0  0  0  0  0
    0.9790    4.3228   12.4188 C   0  0  0  0  0  0  0  0  0  0  0  0
   -0.7045    6.2866   10.0625 C   0  0  0  0  0  0  0  0  0  0  0  0
   -0.9096    5.0954   10.9803 C   0  0  0  0  0  0  0  0  0  0  0  0
   -2.3586    5.1669   11.4251 C   0  0  0  0  0  0  0  0  0  0  0  0
   -0.6647    3.7729   10.2653 C   0  0  0  0  0  0  0  0  0  0  0  0
    3.3003    6.9911   16.1726 N   0  0  0  0  0  0  0  0  0  0  0  0
    3.0508    7.4276   17.0519 H   0  0  0  0  0  0  0  0  0  0  0  0
    4.0629    7.7427   15.2671 C   0  0  0  0  0  0  0  0  0  0  0  0
    5.3401    8.1899   15.8517 C   0  0  0  0  0  0  0  0  0  0  0  0
    5.9096    9.3721   15.4523 O   0  0  0  0  0  0  0  0  0  0  0  0
    5.8935    7.4799   16.7214 O   0  0  0  0  0  0  0  0  0  0  0  0
    5.5790   10.2251   15.9246 H   0  0  0  0  0  0  0  0  0  0  0  0
    3.2477    8.9578   14.7852 C   0  0  0  0  0  0  0  0  0  0  0  0
    2.8533    9.8371   15.7705 O   0  0  0  0  0  0  0  0  0  0  0  0
    3.0044    9.0604   13.5793 O   0  0  0  0  0  0  0  0  0  0  0  0
    2.2682   10.6550   15.5934 H   0  0  0  0  0  0  0  0  0  0  0  0
 10 11  1  0  0  0
 11 12  1  0  0  0
 11 13  1  0  0  0
 11  4  1  0  0  0
  4  5  2  0  0  0
  5  6  1  0  0  0
  6  7  2  0  0  0
  7  8  1  0  0  0
  8  9  2  0  0  0
  7  1  1  0  0  0
  1  2  2  0  0  0
  1  3  2  0  0  0
  1 14  1  0  0  0
 14 16  1  0  0  0
 16 17  1  0  0  0
 17 18  1  0  0  0
 17 19  2  0  0  0
 16 21  1  0  0  0
 21 22  1  0  0  0
 21 23  2  0  0  0
  9  4  1  0  0  0
 14 15  1  0  0  0
 18 20  1  0  0  0
 22 24  1  0  0  0
M  END
> <minimizedAffinity>
-5.05149

> <CNNscore>
0.3117521107

> <CNNaffinity>
4.2281174660

> <CNN_VS>
1.3181245327

> <CNNaffinity_variance>
0.1882150918

$$$$
[H]OC(=O)C([H])(C(=O)O[H])N([H])S(=O)(=O)c1c([H])c([H])c(C(C([H])([H])[H])(C([H])([H])[H])C([H])([H])[H])c([H])c1[H]


 24 24  0  0  0  0  0  0  0  0999 V2000
    3.3554    4.4567   16.4452 S   0  0  0  0  0  0  0  0  0  0  0  0
    3.1165    3.4085   15.3661 O   0  0  0  0  0  0  0  0  0  0  0  0
    1.9729    4.9742   16.8034 O   0  0  0  0  0  0  0  0  0  0  0  0
    5.0539    2.6213   20.2954 C   0  0  0  0  0  0  0  0  0  0  0  0
    4.7419    1.8364   19.2094 C   0  0  0  0  0  0  0  0  0  0  0  0
    4.2434    2.3708   18.0287 C   0  0  0  0  0  0  0  0  0  0  0  0
    4.0291    3.7208   17.8709 C   0  0  0  0  0  0  0  0  0  0  0  0
    4.3402    4.5357   18.9657 C   0  0  0  0  0  0  0  0  0  0  0  0
    4.8310    3.9918   20.1215 C   0  0  0  0  0  0  0  0  0  0  0  0
    6.4184    0.8718   21.3125 C   0  0  0  0  0  0  0  0  0  0  0  0
    5.5910    2.1151   21.5822 C   0  0  0  0  0  0  0  0  0  0  0  0
    4.4322    1.6552   22.4472 C   0  0  0  0  0  0  0  0  0  0  0  0
    6.3852    3.1811   22.3258 C   0  0  0  0  0  0  0  0  0  0  0  0
    4.3360    5.6407   15.8137 N   0  0  0  0  0  0  0  0  0  0  0  0
    5.1969    5.4055   15.3347 H   0  0  0  0  0  0  0  0  0  0  0  0
    4.0286    7.0001   15.9683 C   0  0  0  0  0  0  0  0  0  0  0  0
    3.4328    7.5783   14.7503 C   0  0  0  0  0  0  0  0  0  0  0  0
    2.3622    8.4311   14.8394 O   0  0  0  0  0  0  0  0  0  0  0  0
    3.9212    7.2860   13.6355 O   0  0  0  0  0  0  0  0  0  0  0  0
    2.5769    9.4231   15.0122 H   0  0  0  0  0  0  0  0  0  0  0  0
    5.2999    7.7789   16.3563 C   0  0  0  0  0  0  0  0  0  0  0  0
    6.1428    8.0973   15.3134 O   0  0  0  0  0  0  0  0  0  0  0  0
    5.4777    8.0572   17.5457 O   0  0  0  0  0  0  0  0  0  0  0  0
    7.0404    8.5679   15.4390 H   0  0  0  0  0  0  0  0  0  0  0  0
 10 11  1  0  0  0
 11 12  1  0  0  0
 11 13  1  0  0  0
 11  4  1  0  0  0
  4  5  2  0  0  0
  5  6  1  0  0  0
  6  7  2  0  0  0
  7  8  1  0  0  0
  8  9  2  0  0  0
  7  1  1  0  0  0
  1  2  2  0  0  0
  1  3  2  0  0  0
  1 14  1  0  0  0
 14 16  1  0  0  0
 16 17  1  0  0  0
 17 18  1  0  0  0
 17 19  2  0  0  0
 16 21  1  0  0  0
 21 22  1  0  0  0
 21 23  2  0  0  0
  9  4  1  0  0  0
 14 15  1  0  0  0
 18 20  1  0  0  0
 22 24  1  0  0  0
M  END
> <minimizedAffinity>
-6.63766

> <CNNscore>
0.3074736297

> <CNNaffinity>
4.8114027977

> <CNN_VS>
1.4793795347

> <CNNaffinity_variance>
0.2930247188

$$$$
[H]OC(=O)C([H])(C(=O)O[H])N([H])S(=O)(=O)c1c([H])c([H])c(C(C([H])([H])[H])(C([H])([H])[H])C([H])([H])[H])c([H])c1[H]


 24 24  0  0  0  0  0  0  0  0999 V2000
    3.5608    5.1300   16.2204 S   0  0  0  0  0  0  0  0  0  0  0  0
    3.9530    3.6645   16.0831 O   0  0  0  0  0  0  0  0  0  0  0  0
    2.0660    5.1131   16.4905 O   0  0  0  0  0  0  0  0  0  0  0  0
    5.4727    7.0638   19.9194 C   0  0  0  0  0  0  0  0  0  0  0  0
    5.9322    5.8651   19.4243 C   0  0  0  0  0  0  0  0  0  0  0  0
    5.3812    5.2699   18.2972 C   0  0  0  0  0  0  0  0  0  0  0  0
    4.3391    5.8419   17.6043 C   0  0  0  0  0  0  0  0  0  0  0  0
    3.8574    7.0618   18.0937 C   0  0  0  0  0  0  0  0  0  0  0  0
    4.4128    7.6342   19.2056 C   0  0  0  0  0  0  0  0  0  0  0  0
    7.3723    8.3411   20.7662 C   0  0  0  0  0  0  0  0  0  0  0  0
    6.0173    7.7530   21.1147 C   0  0  0  0  0  0  0  0  0  0  0  0
    6.2852    6.7202   22.1936 C   0  0  0  0  0  0  0  0  0  0  0  0
    5.0567    8.8066   21.6508 C   0  0  0  0  0  0  0  0  0  0  0  0
    3.9441    5.9072   14.8022 N   0  0  0  0  0  0  0  0  0  0  0  0
    4.7692    5.6518   14.2731 H   0  0  0  0  0  0  0  0  0  0  0  0
    3.1675    6.9714   14.3220 C   0  0  0  0  0  0  0  0  0  0  0  0
    2.4676    6.6297   13.0705 C   0  0  0  0  0  0  0  0  0  0  0  0
    1.3513    7.3285   12.6870 O   0  0  0  0  0  0  0  0  0  0  0  0
    2.9096    5.6987   12.3602 O   0  0  0  0  0  0  0  0  0  0  0  0
    1.5114    8.2045   12.1703 H   0  0  0  0  0  0  0  0  0  0  0  0
    4.0590    8.2095   14.1084 C   0  0  0  0  0  0  0  0  0  0  0  0
    3.7346    8.9949   13.0232 O   0  0  0  0  0  0  0  0  0  0  0  0
    4.9839    8.4106   14.9008 O   0  0  0  0  0  0  0  0  0  0  0  0
    4.2734    9.8152   12.7413 H   0  0  0  0  0  0  0  0  0  0  0  0
 10 11  1  0  0  0
 11 12  1  0  0  0
 11 13  1  0  0  0
 11  4  1  0  0  0
  4  5  2  0  0  0
  5  6  1  0  0  0
  6  7  2  0  0  0
  7  8  1  0  0  0
  8  9  2  0  0  0
  7  1  1  0  0  0
  1  2  2  0  0  0
  1  3  2  0  0  0
  1 14  1  0  0  0
 14 16  1  0  0  0
 16 17  1  0  0  0
 17 18  1  0  0  0
 17 19  2  0  0  0
 16 21  1  0  0  0
 21 22  1  0  0  0
 21 23  2  0  0  0
  9  4  1  0  0  0
 14 15  1  0  0  0
 18 20  1  0  0  0
 22 24  1  0  0  0
M  END
> <minimizedAffinity>
-5.21822

> <CNNscore>
0.3049130142

> <CNNaffinity>
4.3974957466

> <CNN_VS>
1.3408536911

> <CNNaffinity_variance>
0.8879016042

$$$$
[H]OC(=O)C([H])(C(=O)O[H])N([H])S(=O)(=O)c1c([H])c([H])c(C(C([H])([H])[H])(C([H])([H])[H])C([H])([H])[H])c([H])c1[H]


 24 24  0  0  0  0  0  0  0  0999 V2000
    4.6144    6.2167   17.9179 S   0  0  0  0  0  0  0  0  0  0  0  0
    5.1490    5.5751   16.6441 O   0  0  0  0  0  0  0  0  0  0  0  0
    3.1568    6.5248   17.6210 O   0  0  0  0  0  0  0  0  0  0  0  0
    4.8554    3.1567   21.3320 C   0  0  0  0  0  0  0  0  0  0  0  0
    4.4077    4.4385   21.5544 C   0  0  0  0  0  0  0  0  0  0  0  0
    4.3099    5.3758   20.5346 C   0  0  0  0  0  0  0  0  0  0  0  0
    4.6558    5.0812   19.2358 C   0  0  0  0  0  0  0  0  0  0  0  0
    5.1144    3.7816   18.9900 C   0  0  0  0  0  0  0  0  0  0  0  0
    5.2039    2.8707   20.0072 C   0  0  0  0  0  0  0  0  0  0  0  0
    6.3134    1.4028   22.2007 C   0  0  0  0  0  0  0  0  0  0  0  0
    4.9812    2.1087   22.3743 C   0  0  0  0  0  0  0  0  0  0  0  0
    3.9225    1.0493   22.1310 C   0  0  0  0  0  0  0  0  0  0  0  0
    4.8136    2.6784   23.7770 C   0  0  0  0  0  0  0  0  0  0  0  0
    5.5058    7.5852   18.2260 N   0  0  0  0  0  0  0  0  0  0  0  0
    5.3409    8.1400   19.0572 H   0  0  0  0  0  0  0  0  0  0  0  0
    6.4763    8.0410   17.3223 C   0  0  0  0  0  0  0  0  0  0  0  0
    7.6335    8.6460   18.0061 C   0  0  0  0  0  0  0  0  0  0  0  0
    8.5231    9.4230   17.3087 O   0  0  0  0  0  0  0  0  0  0  0  0
    7.7892    8.4465   19.2320 O   0  0  0  0  0  0  0  0  0  0  0  0
    8.2755   10.4157   17.1934 H   0  0  0  0  0  0  0  0  0  0  0  0
    5.8451    9.0570   16.3515 C   0  0  0  0  0  0  0  0  0  0  0  0
    6.5001    9.2157   15.1492 O   0  0  0  0  0  0  0  0  0  0  0  0
    4.8220    9.6499   16.7057 O   0  0  0  0  0  0  0  0  0  0  0  0
    6.2154    9.8912   14.4383 H   0  0  0  0  0  0  0  0  0  0  0  0
 10 11  1  0  0  0
 11 12  1  0  0  0
 11 13  1  0  0  0
 11  4  1  0  0  0
  4  5  2  0  0  0
  5  6  1  0  0  0
  6  7  2  0  0  0
  7  8  1  0  0  0
  8  9  2  0  0  0
  7  1  1  0  0  0
  1  2  2  0  0  0
  1  3  2  0  0  0
  1 14  1  0  0  0
 14 16  1  0  0  0
 16 17  1  0  0  0
 17 18  1  0  0  0
 17 19  2  0  0  0
 16 21  1  0  0  0
 21 22  1  0  0  0
 21 23  2  0  0  0
  9  4  1  0  0  0
 14 15  1  0  0  0
 18 20  1  0  0  0
 22 24  1  0  0  0
M  END
> <minimizedAffinity>
-5.87354

> <CNNscore>
0.2821365893

> <CNNaffinity>
4.7152523994

> <CNN_VS>
1.3303452730

> <CNNaffinity_variance>
0.3257042766

$$$$
[H]/C(C(=O)N([H])c1c(OC([H])([H])[H])c([H])c2nc([H])nc(N([H])c3c([H])c([H])c(F)c(Cl)c3[H])c2c1[H])=C(/[H])C([H])([H])N1C([H])([H])C([H])([H])C([H])([H])C([H])([H])C1([H])[H]


 35 38  0  0  0  0  0  0  0  0999 V2000
    4.5512    2.3094   22.3017 C   0  0  0  0  0  0  0  0  0  0  0  0
    3.6788    1.2855   22.0510 C   0  0  0  0  0  0  0  0  0  0  0  0
    3.4386    0.9030   20.7538 C   0  0  0  0  0  0  0  0  0  0  0  0
    2.5774   -0.1103   20.5307 N   0  0  0  0  0  0  0  0  0  0  0  0
    2.3551   -0.4738   19.2598 C   0  0  0  0  0  0  0  0  0  0  0  0
    2.9454    0.1223   18.2462 N   0  0  0  0  0  0  0  0  0  0  0  0
    3.8252    1.1497   18.3806 C   0  0  0  0  0  0  0  0  0  0  0  0
    4.0616    1.5321   19.6880 C   0  0  0  0  0  0  0  0  0  0  0  0
    4.9272    2.5532   20.0069 C   0  0  0  0  0  0  0  0  0  0  0  0
    5.2225    2.9964   21.2728 C   0  0  0  0  0  0  0  0  0  0  0  0
    6.1193    4.0477   21.5962 N   0  0  0  0  0  0  0  0  0  0  0  0
    5.8360    5.3904   21.8389 C   0  0  0  0  0  0  0  0  0  0  0  0
    4.6658    5.9004   21.8058 O   0  0  0  0  0  0  0  0  0  0  0  0
    7.1516    3.7476   21.6578 H   0  0  0  0  0  0  0  0  0  0  0  0
    6.8807    6.3613   22.1613 C   0  0  0  0  0  0  0  0  0  0  0  0
    7.7582    6.7313   21.2842 C   0  0  0  0  0  0  0  0  0  0  0  0
    8.8380    7.7358   21.6205 C   0  0  0  0  0  0  0  0  0  0  0  0
    9.8197    7.0476   22.3899 N   0  0  0  0  0  0  0  0  0  0  0  0
   10.3616    7.7773   23.4901 C   0  0  0  0  0  0  0  0  0  0  0  0
   11.0471    6.8284   24.4409 C   0  0  0  0  0  0  0  0  0  0  0  0
   12.0738    5.9995   23.7234 C   0  0  0  0  0  0  0  0  0  0  0  0
   11.4298    5.2793   22.5793 C   0  0  0  0  0  0  0  0  0  0  0  0
   10.7679    6.2754   21.6536 C   0  0  0  0  0  0  0  0  0  0  0  0
    5.6436    1.9400   24.4092 C   0  0  0  0  0  0  0  0  0  0  0  0
    4.8063    2.7095   23.6031 O   0  0  0  0  0  0  0  0  0  0  0  0
    4.4105    1.7782   17.2715 N   0  0  0  0  0  0  0  0  0  0  0  0
    5.4689    1.7584   17.2179 H   0  0  0  0  0  0  0  0  0  0  0  0
    3.7864    2.4379   16.2071 C   0  0  0  0  0  0  0  0  0  0  0  0
    4.0620    3.7928   15.9650 C   0  0  0  0  0  0  0  0  0  0  0  0
    3.5100    4.5021   14.9334 C   0  0  0  0  0  0  0  0  0  0  0  0
    2.6386    3.8907   14.0713 C   0  0  0  0  0  0  0  0  0  0  0  0
    2.0683    4.5450   13.0407 F   0  0  0  0  0  0  0  0  0  0  0  0
    2.3434    2.5665   14.2737 C   0  0  0  0  0  0  0  0  0  0  0  0
    1.2289    1.7854   13.1693 Cl  0  0  0  0  0  0  0  0  0  0  0  0
    2.9171    1.8483   15.3370 C   0  0  0  0  0  0  0  0  0  0  0  0
 24 25  1  0  0  0
 25  1  1  0  0  0
  1  2  2  0  0  0
  2  3  1  0  0  0
  3  4  2  0  0  0
  4  5  1  0  0  0
  5  6  2  0  0  0
  6  7  1  0  0  0
  7 26  1  0  0  0
 26 28  1  0  0  0
 28 29  2  0  0  0
 29 30  1  0  0  0
 30 31  2  0  0  0
 31 32  1  0  0  0
 31 33  1  0  0  0
 33 34  1  0  0  0
 33 35  2  0  0  0
  7  8  2  0  0  0
  8  9  1  0  0  0
  9 10  2  0  0  0
 10 11  1  0  0  0
 11 12  1  0  0  0
 12 13  2  0  0  0
 12 15  1  0  0  0
 15 16  2  0  0  0
 16 17  1  0  0  0
 17 18  1  0  0  0
 18 19  1  0  0  0
 19 20  1  0  0  0
 20 21  1  0  0  0
 21 22  1  0  0  0
 22 23  1  0  0  0
 10  1  1  0  0  0
 23 18  1  0  0  0
  8  3  1  0  0  0
 35 28  1  0  0  0
 26 27  1  0  0  0
 11 14  1  0  0  0
M  END
> <minimizedAffinity>
-8.94177

> <CNNscore>
0.5546721220

> <CNNaffinity>
7.2893228531

> <CNN_VS>
4.0431842804

> <CNNaffinity_variance>
0.1908321679

$$$$
[H]/C(C(=O)N([H])c1c(OC([H])([H])[H])c([H])c2nc([H])nc(N([H])c3c([H])c([H])c(F)c(Cl)c3[H])c2c1[H])=C(/[H])C([H])([H])N1C([H])([H])C([H])([H])C([H])([H])C([H])([H])C1([H])[H]


 35 38  0  0  0  0  0  0  0  0999 V2000
    4.4058    2.1356   22.2869 C   0  0  0  0  0  0  0  0  0  0  0  0
    3.6444    1.0370   21.9938 C   0  0  0  0  0  0  0  0  0  0  0  0
    3.4255    0.6956   20.6814 C   0  0  0  0  0  0  0  0  0  0  0  0
    2.6746   -0.3926   20.4163 N   0  0  0  0  0  0  0  0  0  0  0  0
    2.4720   -0.7145   19.1311 C   0  0  0  0  0  0  0  0  0  0  0  0
    2.9781   -0.0085   18.1428 N   0  0  0  0  0  0  0  0  0  0  0  0
    3.7445    1.1001   18.3199 C   0  0  0  0  0  0  0  0  0  0  0  0
    3.9597    1.4404   19.6424 C   0  0  0  0  0  0  0  0  0  0  0  0
    4.7157    2.5321   20.0036 C   0  0  0  0  0  0  0  0  0  0  0  0
    4.9824    2.9413   21.2872 C   0  0  0  0  0  0  0  0  0  0  0  0
    5.7662    4.0661   21.6540 N   0  0  0  0  0  0  0  0  0  0  0  0
    5.3451    5.2899   22.1710 C   0  0  0  0  0  0  0  0  0  0  0  0
    4.1277    5.5961   22.4046 O   0  0  0  0  0  0  0  0  0  0  0  0
    6.8249    3.9370   21.5060 H   0  0  0  0  0  0  0  0  0  0  0  0
    6.2841    6.3612   22.5004 C   0  0  0  0  0  0  0  0  0  0  0  0
    6.0083    7.6034   22.2615 C   0  0  0  0  0  0  0  0  0  0  0  0
    6.9816    8.7097   22.6032 C   0  0  0  0  0  0  0  0  0  0  0  0
    7.0862    9.5408   21.4508 N   0  0  0  0  0  0  0  0  0  0  0  0
    5.9375    9.5659   20.6044 C   0  0  0  0  0  0  0  0  0  0  0  0
    6.0086   10.7607   19.6868 C   0  0  0  0  0  0  0  0  0  0  0  0
    7.3016   10.7732   18.9225 C   0  0  0  0  0  0  0  0  0  0  0  0
    8.4527   10.7315   19.8793 C   0  0  0  0  0  0  0  0  0  0  0  0
    8.3384    9.5119   20.7663 C   0  0  0  0  0  0  0  0  0  0  0  0
    5.4242    1.6784   24.4141 C   0  0  0  0  0  0  0  0  0  0  0  0
    4.6376    2.4960   23.6042 O   0  0  0  0  0  0  0  0  0  0  0  0
    4.2406    1.8424   17.2380 N   0  0  0  0  0  0  0  0  0  0  0  0
    5.2937    1.9439   17.1745 H   0  0  0  0  0  0  0  0  0  0  0  0
    3.5322    2.4782   16.2125 C   0  0  0  0  0  0  0  0  0  0  0  0
    3.0637    3.7889   16.3936 C   0  0  0  0  0  0  0  0  0  0  0  0
    2.3830    4.4859   15.4329 C   0  0  0  0  0  0  0  0  0  0  0  0
    2.1271    3.9062   14.2185 C   0  0  0  0  0  0  0  0  0  0  0  0
    1.4608    4.5500   13.2403 F   0  0  0  0  0  0  0  0  0  0  0  0
    2.5688    2.6258   14.0019 C   0  0  0  0  0  0  0  0  0  0  0  0
    2.2413    1.8857   12.4472 Cl  0  0  0  0  0  0  0  0  0  0  0  0
    3.2675    1.9199   14.9965 C   0  0  0  0  0  0  0  0  0  0  0  0
 24 25  1  0  0  0
 25  1  1  0  0  0
  1  2  2  0  0  0
  2  3  1  0  0  0
  3  4  2  0  0  0
  4  5  1  0  0  0
  5  6  2  0  0  0
  6  7  1  0  0  0
  7 26  1  0  0  0
 26 28  1  0  0  0
 28 29  2  0  0  0
 29 30  1  0  0  0
 30 31  2  0  0  0
 31 32  1  0  0  0
 31 33  1  0  0  0
 33 34  1  0  0  0
 33 35  2  0  0  0
  7  8  2  0  0  0
  8  9  1  0  0  0
  9 10  2  0  0  0
 10 11  1  0  0  0
 11 12  1  0  0  0
 12 13  2  0  0  0
 12 15  1  0  0  0
 15 16  2  0  0  0
 16 17  1  0  0  0
 17 18  1  0  0  0
 18 19  1  0  0  0
 19 20  1  0  0  0
 20 21  1  0  0  0
 21 22  1  0  0  0
 22 23  1  0  0  0
 10  1  1  0  0  0
 23 18  1  0  0  0
  8  3  1  0  0  0
 35 28  1  0  0  0
 26 27  1  0  0  0
 11 14  1  0  0  0
M  END
> <minimizedAffinity>
-8.02705

> <CNNscore>
0.4902489781

> <CNNaffinity>
7.2017264366

> <CNN_VS>
3.5306389332

> <CNNaffinity_variance>
0.0361121558

$$$$
[H]/C(C(=O)N([H])c1c(OC([H])([H])[H])c([H])c2nc([H])nc(N([H])c3c([H])c([H])c(F)c(Cl)c3[H])c2c1[H])=C(/[H])C([H])([H])N1C([H])([H])C([H])([H])C([H])([H])C([H])([H])C1([H])[H]


 35 38  0  0  0  0  0  0  0  0999 V2000
    2.9184    1.8672   14.9815 C   0  0  0  0  0  0  0  0  0  0  0  0
    2.5329    0.9654   15.9359 C   0  0  0  0  0  0  0  0  0  0  0  0
    3.0401    1.0679   17.2083 C   0  0  0  0  0  0  0  0  0  0  0  0
    2.6439    0.1701   18.1331 N   0  0  0  0  0  0  0  0  0  0  0  0
    3.1454    0.2845   19.3708 C   0  0  0  0  0  0  0  0  0  0  0  0
    3.9973    1.2325   19.6978 N   0  0  0  0  0  0  0  0  0  0  0  0
    4.4487    2.1764   18.8299 C   0  0  0  0  0  0  0  0  0  0  0  0
    3.9369    2.0672   17.5503 C   0  0  0  0  0  0  0  0  0  0  0  0
    4.2838    2.9417   16.5461 C   0  0  0  0  0  0  0  0  0  0  0  0
    3.8245    2.9098   15.2522 C   0  0  0  0  0  0  0  0  0  0  0  0
    4.1829    3.8169   14.2213 N   0  0  0  0  0  0  0  0  0  0  0  0
    3.4869    4.9341   13.7634 C   0  0  0  0  0  0  0  0  0  0  0  0
    2.3652    5.3286   14.2289 O   0  0  0  0  0  0  0  0  0  0  0  0
    5.1210    3.5957   13.7414 H   0  0  0  0  0  0  0  0  0  0  0  0
    3.9916    5.7767   12.6803 C   0  0  0  0  0  0  0  0  0  0  0  0
    4.9192    5.3657   11.8760 C   0  0  0  0  0  0  0  0  0  0  0  0
    5.4396    6.2395   10.7563 C   0  0  0  0  0  0  0  0  0  0  0  0
    6.6277    6.8632   11.2349 N   0  0  0  0  0  0  0  0  0  0  0  0
    6.4975    8.2369   11.5989 C   0  0  0  0  0  0  0  0  0  0  0  0
    7.6680    8.6486   12.4561 C   0  0  0  0  0  0  0  0  0  0  0  0
    8.9686    8.3439   11.7692 C   0  0  0  0  0  0  0  0  0  0  0  0
    9.0202    6.8912   11.4097 C   0  0  0  0  0  0  0  0  0  0  0  0
    7.8326    6.5348   10.5436 C   0  0  0  0  0  0  0  0  0  0  0  0
    1.0831    2.0986   13.4489 C   0  0  0  0  0  0  0  0  0  0  0  0
    2.4180    1.7801   13.6928 O   0  0  0  0  0  0  0  0  0  0  0  0
    5.3806    3.1529   19.2111 N   0  0  0  0  0  0  0  0  0  0  0  0
    6.3999    2.9399   19.0134 H   0  0  0  0  0  0  0  0  0  0  0  0
    5.1533    4.3898   19.8247 C   0  0  0  0  0  0  0  0  0  0  0  0
    5.5172    4.5829   21.1665 C   0  0  0  0  0  0  0  0  0  0  0  0
    5.3481    5.7671   21.8308 C   0  0  0  0  0  0  0  0  0  0  0  0
    4.7981    6.8422   21.1843 C   0  0  0  0  0  0  0  0  0  0  0  0
    4.6103    8.0291   21.7938 F   0  0  0  0  0  0  0  0  0  0  0  0
    4.4292    6.6942   19.8715 C   0  0  0  0  0  0  0  0  0  0  0  0
    3.7264    8.0710   19.0454 Cl  0  0  0  0  0  0  0  0  0  0  0  0
    4.6083    5.4726   19.1996 C   0  0  0  0  0  0  0  0  0  0  0  0
 24 25  1  0  0  0
 25  1  1  0  0  0
  1  2  2  0  0  0
  2  3  1  0  0  0
  3  4  2  0  0  0
  4  5  1  0  0  0
  5  6  2  0  0  0
  6  7  1  0  0  0
  7 26  1  0  0  0
 26 28  1  0  0  0
 28 29  2  0  0  0
 29 30  1  0  0  0
 30 31  2  0  0  0
 31 32  1  0  0  0
 31 33  1  0  0  0
 33 34  1  0  0  0
 33 35  2  0  0  0
  7  8  2  0  0  0
  8  9  1  0  0  0
  9 10  2  0  0  0
 10 11  1  0  0  0
 11 12  1  0  0  0
 12 13  2  0  0  0
 12 15  1  0  0  0
 15 16  2  0  0  0
 16 17  1  0  0  0
 17 18  1  0  0  0
 18 19  1  0  0  0
 19 20  1  0  0  0
 20 21  1  0  0  0
 21 22  1  0  0  0
 22 23  1  0  0  0
 10  1  1  0  0  0
 23 18  1  0  0  0
  8  3  1  0  0  0
 35 28  1  0  0  0
 26 27  1  0  0  0
 11 14  1  0  0  0
M  END
> <minimizedAffinity>
-8.45708

> <CNNscore>
0.4178366661

> <CNNaffinity>
6.7219138145

> <CNN_VS>
2.8086621761

> <CNNaffinity_variance>
0.2825399041

$$$$
[H]/C(C(=O)N([H])c1c(OC([H])([H])[H])c([H])c2nc([H])nc(N([H])c3c([H])c([H])c(F)c(Cl)c3[H])c2c1[H])=C(/[H])C([H])([H])N1C([H])([H])C([H])([H])C([H])([H])C([H])([H])C1([H])[H]


 35 38  0  0  0  0  0  0  0  0999 V2000
    4.8166    6.1014   16.3707 C   0  0  0  0  0  0  0  0  0  0  0  0
    3.7890    5.4946   15.7009 C   0  0  0  0  0  0  0  0  0  0  0  0
    3.4713    4.1894   15.9875 C   0  0  0  0  0  0  0  0  0  0  0  0
    2.4532    3.6129   15.3172 N   0  0  0  0  0  0  0  0  0  0  0  0
    2.1534    2.3396   15.6096 C   0  0  0  0  0  0  0  0  0  0  0  0
    2.8154    1.6534   16.5163 N   0  0  0  0  0  0  0  0  0  0  0  0
    3.8528    2.1558   17.2370 C   0  0  0  0  0  0  0  0  0  0  0  0
    4.1697    3.4689   16.9430 C   0  0  0  0  0  0  0  0  0  0  0  0
    5.1906    4.1359   17.5806 C   0  0  0  0  0  0  0  0  0  0  0  0
    5.5718    5.4358   17.3545 C   0  0  0  0  0  0  0  0  0  0  0  0
    6.6233    6.1200   18.0180 N   0  0  0  0  0  0  0  0  0  0  0  0
    6.5720    6.8631   19.1958 C   0  0  0  0  0  0  0  0  0  0  0  0
    5.5161    7.0471   19.8898 O   0  0  0  0  0  0  0  0  0  0  0  0
    7.5805    6.0424   17.5309 H   0  0  0  0  0  0  0  0  0  0  0  0
    7.7537    7.5163   19.7572 C   0  0  0  0  0  0  0  0  0  0  0  0
    8.0912    7.3604   20.9973 C   0  0  0  0  0  0  0  0  0  0  0  0
    9.3141    8.0374   21.5755 C   0  0  0  0  0  0  0  0  0  0  0  0
    9.0136    8.3474   22.9331 N   0  0  0  0  0  0  0  0  0  0  0  0
    7.6356    8.5828   23.2198 C   0  0  0  0  0  0  0  0  0  0  0  0
    7.4018    8.4836   24.7064 C   0  0  0  0  0  0  0  0  0  0  0  0
    8.3229    9.4030   25.4562 C   0  0  0  0  0  0  0  0  0  0  0  0
    9.7433    9.1013   25.0905 C   0  0  0  0  0  0  0  0  0  0  0  0
    9.9249    9.2250   23.5942 C   0  0  0  0  0  0  0  0  0  0  0  0
    4.3058    8.4447   16.5088 C   0  0  0  0  0  0  0  0  0  0  0  0
    5.1519    7.4169   16.0955 O   0  0  0  0  0  0  0  0  0  0  0  0
    4.5520    1.3809   18.1741 N   0  0  0  0  0  0  0  0  0  0  0  0
    5.3521    0.7934   17.8026 H   0  0  0  0  0  0  0  0  0  0  0  0
    4.3415    1.2715   19.5531 C   0  0  0  0  0  0  0  0  0  0  0  0
    3.2928    0.4757   20.0402 C   0  0  0  0  0  0  0  0  0  0  0  0
    3.0352    0.3004   21.3724 C   0  0  0  0  0  0  0  0  0  0  0  0
    3.8211    0.9184   22.3088 C   0  0  0  0  0  0  0  0  0  0  0  0
    3.6087    0.7781   23.6320 F   0  0  0  0  0  0  0  0  0  0  0  0
    4.8571    1.7049   21.8732 C   0  0  0  0  0  0  0  0  0  0  0  0
    5.8624    2.4943   23.0726 Cl  0  0  0  0  0  0  0  0  0  0  0  0
    5.1120    1.8771   20.5017 C   0  0  0  0  0  0  0  0  0  0  0  0
 24 25  1  0  0  0
 25  1  1  0  0  0
  1  2  2  0  0  0
  2  3  1  0  0  0
  3  4  2  0  0  0
  4  5  1  0  0  0
  5  6  2  0  0  0
  6  7  1  0  0  0
  7 26  1  0  0  0
 26 28  1  0  0  0
 28 29  2  0  0  0
 29 30  1  0  0  0
 30 31  2  0  0  0
 31 32  1  0  0  0
 31 33  1  0  0  0
 33 34  1  0  0  0
 33 35  2  0  0  0
  7  8  2  0  0  0
  8  9  1  0  0  0
  9 10  2  0  0  0
 10 11  1  0  0  0
 11 12  1  0  0  0
 12 13  2  0  0  0
 12 15  1  0  0  0
 15 16  2  0  0  0
 16 17  1  0  0  0
 17 18  1  0  0  0
 18 19  1  0  0  0
 19 20  1  0  0  0
 20 21  1  0  0  0
 21 22  1  0  0  0
 22 23  1  0  0  0
 10  1  1  0  0  0
 23 18  1  0  0  0
  8  3  1  0  0  0
 35 28  1  0  0  0
 26 27  1  0  0  0
 11 14  1  0  0  0
M  END
> <minimizedAffinity>
-8.06335

> <CNNscore>
0.3798267543

> <CNNaffinity>
6.8348398209

> <CNN_VS>
2.5960550308

> <CNNaffinity_variance>
0.0830614567

$$$$
[H]/C(C(=O)N([H])c1c(OC([H])([H])[H])c([H])c2nc([H])nc(N([H])c3c([H])c([H])c(F)c(Cl)c3[H])c2c1[H])=C(/[H])C([H])([H])N1C([H])([H])C([H])([H])C([H])([H])C([H])([H])C1([H])[H]


 35 38  0  0  0  0  0  0  0  0999 V2000
    4.3989    2.5127   22.0231 C   0  0  0  0  0  0  0  0  0  0  0  0
    3.6616    1.3843   21.7874 C   0  0  0  0  0  0  0  0  0  0  0  0
    3.4334    0.9825   20.4939 C   0  0  0  0  0  0  0  0  0  0  0  0
    2.7067   -0.1341   20.2856 N   0  0  0  0  0  0  0  0  0  0  0  0
    2.4945   -0.5148   19.0181 C   0  0  0  0  0  0  0  0  0  0  0  0
    2.9689    0.1612   17.9937 N   0  0  0  0  0  0  0  0  0  0  0  0
    3.7094    1.2950   18.1130 C   0  0  0  0  0  0  0  0  0  0  0  0
    3.9342    1.6959   19.4168 C   0  0  0  0  0  0  0  0  0  0  0  0
    4.6672    2.8202   19.7208 C   0  0  0  0  0  0  0  0  0  0  0  0
    4.9411    3.2895   20.9821 C   0  0  0  0  0  0  0  0  0  0  0  0
    5.7012    4.4478   21.2899 N   0  0  0  0  0  0  0  0  0  0  0  0
    5.3447    5.7873   21.1455 C   0  0  0  0  0  0  0  0  0  0  0  0
    4.2218    6.1923   20.6922 O   0  0  0  0  0  0  0  0  0  0  0  0
    6.6809    4.2435   21.6872 H   0  0  0  0  0  0  0  0  0  0  0  0
    6.2483    6.8778   21.5094 C   0  0  0  0  0  0  0  0  0  0  0  0
    7.5327    6.7169   21.5311 C   0  0  0  0  0  0  0  0  0  0  0  0
    8.4652    7.8467   21.9079 C   0  0  0  0  0  0  0  0  0  0  0  0
    9.1031    7.4697   23.1247 N   0  0  0  0  0  0  0  0  0  0  0  0
    9.6795    6.1642   23.1381 C   0  0  0  0  0  0  0  0  0  0  0  0
   10.6546    6.0511   24.2829 C   0  0  0  0  0  0  0  0  0  0  0  0
    9.9986    6.4167   25.5837 C   0  0  0  0  0  0  0  0  0  0  0  0
    9.4095    7.7896   25.4824 C   0  0  0  0  0  0  0  0  0  0  0  0
    8.4337    7.8451   24.3282 C   0  0  0  0  0  0  0  0  0  0  0  0
    5.3833    2.1269   24.1802 C   0  0  0  0  0  0  0  0  0  0  0  0
    4.6396    2.9338   23.3206 O   0  0  0  0  0  0  0  0  0  0  0  0
    4.1716    2.0030   16.9938 N   0  0  0  0  0  0  0  0  0  0  0  0
    5.2172    2.1660   16.9332 H   0  0  0  0  0  0  0  0  0  0  0  0
    3.4376    2.5332   15.9271 C   0  0  0  0  0  0  0  0  0  0  0  0
    3.0859    1.7133   14.8434 C   0  0  0  0  0  0  0  0  0  0  0  0
    2.3522    2.1501   13.7743 C   0  0  0  0  0  0  0  0  0  0  0  0
    1.9210    3.4493   13.7248 C   0  0  0  0  0  0  0  0  0  0  0  0
    1.1965    3.9280   12.6945 F   0  0  0  0  0  0  0  0  0  0  0  0
    2.2438    4.2829   14.7651 C   0  0  0  0  0  0  0  0  0  0  0  0
    1.6907    5.9448   14.7008 Cl  0  0  0  0  0  0  0  0  0  0  0  0
    2.9979    3.8225   15.8583 C   0  0  0  0  0  0  0  0  0  0  0  0
 24 25  1  0  0  0
 25  1  1  0  0  0
  1  2  2  0  0  0
  2  3  1  0  0  0
  3  4  2  0  0  0
  4  5  1  0  0  0
  5  6  2  0  0  0
  6  7  1  0  0  0
  7 26  1  0  0  0
 26 28  1  0  0  0
 28 29  2  0  0  0
 29 30  1  0  0  0
 30 31  2  0  0  0
 31 32  1  0  0  0
 31 33  1  0  0  0
 33 34  1  0  0  0
 33 35  2  0  0  0
  7  8  2  0  0  0
  8  9  1  0  0  0
  9 10  2  0  0  0
 10 11  1  0  0  0
 11 12  1  0  0  0
 12 13  2  0  0  0
 12 15  1  0  0  0
 15 16  2  0  0  0
 16 17  1  0  0  0
 17 18  1  0  0  0
 18 19  1  0  0  0
 19 20  1  0  0  0
 20 21  1  0  0  0
 21 22  1  0  0  0
 22 23  1  0  0  0
 10  1  1  0  0  0
 23 18  1  0  0  0
  8  3  1  0  0  0
 35 28  1  0  0  0
 26 27  1  0  0  0
 11 14  1  0  0  0
M  END
> <minimizedAffinity>
-8.72331

> <CNNscore>
0.3708520234

> <CNNaffinity>
7.1394515038

> <CNN_VS>
2.6476800442

> <CNNaffinity_variance>
0.2053375989

$$$$
[H]/C(C(=O)N([H])c1c(OC([H])([H])[H])c([H])c2nc([H])nc(N([H])c3c([H])c([H])c(F)c(Cl)c3[H])c2c1[H])=C(/[H])C([H])([H])N1C([H])([H])C([H])([H])C([H])([H])C([H])([H])C1([H])[H]


 35 38  0  0  0  0  0  0  0  0999 V2000
    4.4493    1.8774   20.5192 C   0  0  0  0  0  0  0  0  0  0  0  0
    3.7393    0.8935   19.8864 C   0  0  0  0  0  0  0  0  0  0  0  0
    3.4964    0.9943   18.5382 C   0  0  0  0  0  0  0  0  0  0  0  0
    2.7973    0.0115   17.9351 N   0  0  0  0  0  0  0  0  0  0  0  0
    2.5704    0.1227   16.6187 C   0  0  0  0  0  0  0  0  0  0  0  0
    3.0048    1.1467   15.9160 N   0  0  0  0  0  0  0  0  0  0  0  0
    3.7154    2.1789   16.4427 C   0  0  0  0  0  0  0  0  0  0  0  0
    3.9551    2.0735   17.8001 C   0  0  0  0  0  0  0  0  0  0  0  0
    4.6622    3.0279   18.4949 C   0  0  0  0  0  0  0  0  0  0  0  0
    4.9483    3.0035   19.8379 C   0  0  0  0  0  0  0  0  0  0  0  0
    5.6816    3.9890   20.5486 N   0  0  0  0  0  0  0  0  0  0  0  0
    5.2348    5.2046   21.0631 C   0  0  0  0  0  0  0  0  0  0  0  0
    4.0360    5.6339   20.9674 O   0  0  0  0  0  0  0  0  0  0  0  0
    6.7196    3.7464   20.7008 H   0  0  0  0  0  0  0  0  0  0  0  0
    6.1219    6.1218   21.7771 C   0  0  0  0  0  0  0  0  0  0  0  0
    7.1635    6.6395   21.2089 C   0  0  0  0  0  0  0  0  0  0  0  0
    8.0797    7.5880   21.9499 C   0  0  0  0  0  0  0  0  0  0  0  0
    9.1713    6.8137   22.4381 N   0  0  0  0  0  0  0  0  0  0  0  0
    9.6550    7.1785   23.7301 C   0  0  0  0  0  0  0  0  0  0  0  0
   10.4940    6.0591   24.2933 C   0  0  0  0  0  0  0  0  0  0  0  0
   11.5919    5.6808   23.3407 C   0  0  0  0  0  0  0  0  0  0  0  0
   11.0042    5.3263   22.0098 C   0  0  0  0  0  0  0  0  0  0  0  0
   10.1833    6.4840   21.4869 C   0  0  0  0  0  0  0  0  0  0  0  0
    3.6904    1.3910   22.7460 C   0  0  0  0  0  0  0  0  0  0  0  0
    4.7043    1.7935   21.8781 O   0  0  0  0  0  0  0  0  0  0  0  0
    4.1349    3.2675   15.6639 N   0  0  0  0  0  0  0  0  0  0  0  0
    5.1617    3.2975   15.4031 H   0  0  0  0  0  0  0  0  0  0  0  0
    3.3785    4.3374   15.1729 C   0  0  0  0  0  0  0  0  0  0  0  0
    3.7611    5.6565   15.4628 C   0  0  0  0  0  0  0  0  0  0  0  0
    3.0880    6.7553   15.0029 C   0  0  0  0  0  0  0  0  0  0  0  0
    1.9782    6.5984   14.2155 C   0  0  0  0  0  0  0  0  0  0  0  0
    1.2807    7.6477   13.7381 F   0  0  0  0  0  0  0  0  0  0  0  0
    1.5717    5.3247   13.9090 C   0  0  0  0  0  0  0  0  0  0  0  0
    0.1519    5.1255   12.9007 Cl  0  0  0  0  0  0  0  0  0  0  0  0
    2.2717    4.2035   14.3872 C   0  0  0  0  0  0  0  0  0  0  0  0
 24 25  1  0  0  0
 25  1  1  0  0  0
  1  2  2  0  0  0
  2  3  1  0  0  0
  3  4  2  0  0  0
  4  5  1  0  0  0
  5  6  2  0  0  0
  6  7  1  0  0  0
  7 26  1  0  0  0
 26 28  1  0  0  0
 28 29  2  0  0  0
 29 30  1  0  0  0
 30 31  2  0  0  0
 31 32  1  0  0  0
 31 33  1  0  0  0
 33 34  1  0  0  0
 33 35  2  0  0  0
  7  8  2  0  0  0
  8  9  1  0  0  0
  9 10  2  0  0  0
 10 11  1  0  0  0
 11 12  1  0  0  0
 12 13  2  0  0  0
 12 15  1  0  0  0
 15 16  2  0  0  0
 16 17  1  0  0  0
 17 18  1  0  0  0
 18 19  1  0  0  0
 19 20  1  0  0  0
 20 21  1  0  0  0
 21 22  1  0  0  0
 22 23  1  0  0  0
 10  1  1  0  0  0
 23 18  1  0  0  0
  8  3  1  0  0  0
 35 28  1  0  0  0
 26 27  1  0  0  0
 11 14  1  0  0  0
M  END
> <minimizedAffinity>
-8.31196

> <CNNscore>
0.3640321493

> <CNNaffinity>
6.9037499428

> <CNN_VS>
2.5131869316

> <CNNaffinity_variance>
0.1131087318

$$$$
[H]/C(C(=O)N([H])c1c(OC([H])([H])[H])c([H])c2nc([H])nc(N([H])c3c([H])c([H])c(F)c(Cl)c3[H])c2c1[H])=C(/[H])C([H])([H])N1C([H])([H])C([H])([H])C([H])([H])C([H])([H])C1([H])[H]


 35 38  0  0  0  0  0  0  0  0999 V2000
    5.0259    2.6333   19.9870 C   0  0  0  0  0  0  0  0  0  0  0  0
    4.4583    1.4396   19.6329 C   0  0  0  0  0  0  0  0  0  0  0  0
    3.8115    1.3290   18.4262 C   0  0  0  0  0  0  0  0  0  0  0  0
    3.2623    0.1423   18.0969 N   0  0  0  0  0  0  0  0  0  0  0  0
    2.6367    0.0492   16.9151 C   0  0  0  0  0  0  0  0  0  0  0  0
    2.5480    1.0672   16.0861 N   0  0  0  0  0  0  0  0  0  0  0  0
    3.0718    2.2960   16.3381 C   0  0  0  0  0  0  0  0  0  0  0  0
    3.7196    2.4023   17.5547 C   0  0  0  0  0  0  0  0  0  0  0  0
    4.3109    3.5737   17.9693 C   0  0  0  0  0  0  0  0  0  0  0  0
    4.9748    3.7680   19.1557 C   0  0  0  0  0  0  0  0  0  0  0  0
    5.5863    4.9776   19.5765 N   0  0  0  0  0  0  0  0  0  0  0  0
    5.0016    6.2278   19.7698 C   0  0  0  0  0  0  0  0  0  0  0  0
    3.7638    6.4834   19.5886 O   0  0  0  0  0  0  0  0  0  0  0  0
    6.6431    4.8981   19.7671 H   0  0  0  0  0  0  0  0  0  0  0  0
    5.7735    7.3896   20.2085 C   0  0  0  0  0  0  0  0  0  0  0  0
    6.9481    7.2640   20.7382 C   0  0  0  0  0  0  0  0  0  0  0  0
    7.7444    8.4676   21.1913 C   0  0  0  0  0  0  0  0  0  0  0  0
    7.9307    8.3363   22.5976 N   0  0  0  0  0  0  0  0  0  0  0  0
    7.2425    9.2939   23.4012 C   0  0  0  0  0  0  0  0  0  0  0  0
    7.1786    8.8081   24.8276 C   0  0  0  0  0  0  0  0  0  0  0  0
    8.5509    8.4847   25.3455 C   0  0  0  0  0  0  0  0  0  0  0  0
    9.2081    7.4874   24.4422 C   0  0  0  0  0  0  0  0  0  0  0  0
    9.2554    8.0273   23.0303 C   0  0  0  0  0  0  0  0  0  0  0  0
    6.4122    1.6910   21.7080 C   0  0  0  0  0  0  0  0  0  0  0  0
    5.6822    2.7644   21.1998 O   0  0  0  0  0  0  0  0  0  0  0  0
    2.9293    3.3641   15.4400 N   0  0  0  0  0  0  0  0  0  0  0  0
    2.6200    4.2914   15.8497 H   0  0  0  0  0  0  0  0  0  0  0  0
    3.1417    3.3812   14.0571 C   0  0  0  0  0  0  0  0  0  0  0  0
    2.3947    2.5340   13.2237 C   0  0  0  0  0  0  0  0  0  0  0  0
    2.5278    2.5066   11.8622 C   0  0  0  0  0  0  0  0  0  0  0  0
    3.4270    3.3356   11.2454 C   0  0  0  0  0  0  0  0  0  0  0  0
    3.5958    3.3465    9.9086 F   0  0  0  0  0  0  0  0  0  0  0  0
    4.1764    4.1793   12.0251 C   0  0  0  0  0  0  0  0  0  0  0  0
    5.3261    5.2400   11.2344 Cl  0  0  0  0  0  0  0  0  0  0  0  0
    4.0306    4.1985   13.4230 C   0  0  0  0  0  0  0  0  0  0  0  0
 24 25  1  0  0  0
 25  1  1  0  0  0
  1  2  2  0  0  0
  2  3  1  0  0  0
  3  4  2  0  0  0
  4  5  1  0  0  0
  5  6  2  0  0  0
  6  7  1  0  0  0
  7 26  1  0  0  0
 26 28  1  0  0  0
 28 29  2  0  0  0
 29 30  1  0  0  0
 30 31  2  0  0  0
 31 32  1  0  0  0
 31 33  1  0  0  0
 33 34  1  0  0  0
 33 35  2  0  0  0
  7  8  2  0  0  0
  8  9  1  0  0  0
  9 10  2  0  0  0
 10 11  1  0  0  0
 11 12  1  0  0  0
 12 13  2  0  0  0
 12 15  1  0  0  0
 15 16  2  0  0  0
 16 17  1  0  0  0
 17 18  1  0  0  0
 18 19  1  0  0  0
 19 20  1  0  0  0
 20 21  1  0  0  0
 21 22  1  0  0  0
 22 23  1  0  0  0
 10  1  1  0  0  0
 23 18  1  0  0  0
  8  3  1  0  0  0
 35 28  1  0  0  0
 26 27  1  0  0  0
 11 14  1  0  0  0
M  END
> <minimizedAffinity>
-7.88766

> <CNNscore>
0.3530160785

> <CNNaffinity>
6.8396544456

> <CNN_VS>
2.4145081043

> <CNNaffinity_variance>
0.3120439351

$$$$
[H]/C(C(=O)N([H])c1c(OC([H])([H])[H])c([H])c2nc([H])nc(N([H])c3c([H])c([H])c(F)c(Cl)c3[H])c2c1[H])=C(/[H])C([H])([H])N1C([H])([H])C([H])([H])C([H])([H])C([H])([H])C1([H])[H]


 35 38  0  0  0  0  0  0  0  0999 V2000
    4.4822    2.4199   22.2065 C   0  0  0  0  0  0  0  0  0  0  0  0
    3.6884    1.3413   21.9253 C   0  0  0  0  0  0  0  0  0  0  0  0
    3.4749    0.9805   20.6172 C   0  0  0  0  0  0  0  0  0  0  0  0
    2.6917   -0.0875   20.3640 N   0  0  0  0  0  0  0  0  0  0  0  0
    2.4947   -0.4288   19.0828 C   0  0  0  0  0  0  0  0  0  0  0  0
    3.0364    0.2398   18.0874 N   0  0  0  0  0  0  0  0  0  0  0  0
    3.8370    1.3259   18.2525 C   0  0  0  0  0  0  0  0  0  0  0  0
    4.0467    1.6859   19.5707 C   0  0  0  0  0  0  0  0  0  0  0  0
    4.8339    2.7592   19.9200 C   0  0  0  0  0  0  0  0  0  0  0  0
    5.0979    3.1855   21.1985 C   0  0  0  0  0  0  0  0  0  0  0  0
    5.9139    4.2911   21.5532 N   0  0  0  0  0  0  0  0  0  0  0  0
    5.7261    5.6411   21.2624 C   0  0  0  0  0  0  0  0  0  0  0  0
    4.7393    6.1080   20.6001 O   0  0  0  0  0  0  0  0  0  0  0  0
    6.7901    4.0318   22.1229 H   0  0  0  0  0  0  0  0  0  0  0  0
    6.6669    6.6709   21.7009 C   0  0  0  0  0  0  0  0  0  0  0  0
    7.9475    6.4875   21.6489 C   0  0  0  0  0  0  0  0  0  0  0  0
    8.9186    7.5545   22.1032 C   0  0  0  0  0  0  0  0  0  0  0  0
    9.7967    6.9429   23.0436 N   0  0  0  0  0  0  0  0  0  0  0  0
    9.6448    7.3717   24.3962 C   0  0  0  0  0  0  0  0  0  0  0  0
   10.3092    6.3824   25.3205 C   0  0  0  0  0  0  0  0  0  0  0  0
   11.7434    6.1649   24.9311 C   0  0  0  0  0  0  0  0  0  0  0  0
   11.8166    5.7316   23.4996 C   0  0  0  0  0  0  0  0  0  0  0  0
   11.1468    6.7612   22.6173 C   0  0  0  0  0  0  0  0  0  0  0  0
    5.5827    2.0549   24.3105 C   0  0  0  0  0  0  0  0  0  0  0  0
    4.7092    2.7992   23.5192 O   0  0  0  0  0  0  0  0  0  0  0  0
    4.3711    2.0291   17.1627 N   0  0  0  0  0  0  0  0  0  0  0  0
    5.0459    1.4996   16.5401 H   0  0  0  0  0  0  0  0  0  0  0  0
    4.1359    3.3521   16.7725 C   0  0  0  0  0  0  0  0  0  0  0  0
    2.9341    3.6895   16.1305 C   0  0  0  0  0  0  0  0  0  0  0  0
    2.6203    4.9620   15.7379 C   0  0  0  0  0  0  0  0  0  0  0  0
    3.5008    5.9860   15.9670 C   0  0  0  0  0  0  0  0  0  0  0  0
    3.2390    7.2556   15.5996 F   0  0  0  0  0  0  0  0  0  0  0  0
    4.6870    5.6975   16.5926 C   0  0  0  0  0  0  0  0  0  0  0  0
    5.8123    7.0089   16.8859 Cl  0  0  0  0  0  0  0  0  0  0  0  0
    4.9980    4.3861   16.9916 C   0  0  0  0  0  0  0  0  0  0  0  0
 24 25  1  0  0  0
 25  1  1  0  0  0
  1  2  2  0  0  0
  2  3  1  0  0  0
  3  4  2  0  0  0
  4  5  1  0  0  0
  5  6  2  0  0  0
  6  7  1  0  0  0
  7 26  1  0  0  0
 26 28  1  0  0  0
 28 29  2  0  0  0
 29 30  1  0  0  0
 30 31  2  0  0  0
 31 32  1  0  0  0
 31 33  1  0  0  0
 33 34  1  0  0  0
 33 35  2  0  0  0
  7  8  2  0  0  0
  8  9  1  0  0  0
  9 10  2  0  0  0
 10 11  1  0  0  0
 11 12  1  0  0  0
 12 13  2  0  0  0
 12 15  1  0  0  0
 15 16  2  0  0  0
 16 17  1  0  0  0
 17 18  1  0  0  0
 18 19  1  0  0  0
 19 20  1  0  0  0
 20 21  1  0  0  0
 21 22  1  0  0  0
 22 23  1  0  0  0
 10  1  1  0  0  0
 23 18  1  0  0  0
  8  3  1  0  0  0
 35 28  1  0  0  0
 26 27  1  0  0  0
 11 14  1  0  0  0
M  END
> <minimizedAffinity>
-8.36565

> <CNNscore>
0.3305899203

> <CNNaffinity>
7.0733170509

> <CNN_VS>
2.3383672237

> <CNNaffinity_variance>
0.1533447504

$$$$
[H]/C(C(=O)N([H])c1c(OC([H])([H])[H])c([H])c2nc([H])nc(N([H])c3c([H])c([H])c(F)c(Cl)c3[H])c2c1[H])=C(/[H])C([H])([H])N1C([H])([H])C([H])([H])C([H])([H])C([H])([H])C1([H])[H]


 35 38  0  0  0  0  0  0  0  0999 V2000
    4.8079    2.8964   20.1419 C   0  0  0  0  0  0  0  0  0  0  0  0
    4.1723    1.7125   19.8834 C   0  0  0  0  0  0  0  0  0  0  0  0
    3.7513    1.4350   18.6057 C   0  0  0  0  0  0  0  0  0  0  0  0
    3.1298    0.2610   18.3737 N   0  0  0  0  0  0  0  0  0  0  0  0
    2.7270    0.0035   17.1215 C   0  0  0  0  0  0  0  0  0  0  0  0
    2.9197    0.8515   16.1341 N   0  0  0  0  0  0  0  0  0  0  0  0
    3.5359    2.0544   16.2793 C   0  0  0  0  0  0  0  0  0  0  0  0
    3.9556    2.3295   17.5674 C   0  0  0  0  0  0  0  0  0  0  0  0
    4.6004    3.5008   17.8928 C   0  0  0  0  0  0  0  0  0  0  0  0
    5.0523    3.8548   19.1405 C   0  0  0  0  0  0  0  0  0  0  0  0
    5.7203    5.0629   19.4696 N   0  0  0  0  0  0  0  0  0  0  0  0
    5.1775    6.3294   19.6782 C   0  0  0  0  0  0  0  0  0  0  0  0
    3.9330    6.6047   19.6013 O   0  0  0  0  0  0  0  0  0  0  0  0
    6.7884    4.9674   19.5670 H   0  0  0  0  0  0  0  0  0  0  0  0
    6.0060    7.4870   20.0122 C   0  0  0  0  0  0  0  0  0  0  0  0
    7.2239    7.3526   20.4301 C   0  0  0  0  0  0  0  0  0  0  0  0
    8.0788    8.5519   20.7750 C   0  0  0  0  0  0  0  0  0  0  0  0
    8.1981    8.5817   22.1943 N   0  0  0  0  0  0  0  0  0  0  0  0
    8.3462    7.3107   22.8260 C   0  0  0  0  0  0  0  0  0  0  0  0
    8.8699    7.4979   24.2278 C   0  0  0  0  0  0  0  0  0  0  0  0
    7.9966    8.4414   25.0045 C   0  0  0  0  0  0  0  0  0  0  0  0
    7.8817    9.7414   24.2704 C   0  0  0  0  0  0  0  0  0  0  0  0
    7.3438    9.4983   22.8780 C   0  0  0  0  0  0  0  0  0  0  0  0
    4.3036    3.4545   22.4234 C   0  0  0  0  0  0  0  0  0  0  0  0
    5.2397    3.1942   21.4240 O   0  0  0  0  0  0  0  0  0  0  0  0
    3.6953    2.9432   15.2059 N   0  0  0  0  0  0  0  0  0  0  0  0
    4.6764    3.0508   14.8197 H   0  0  0  0  0  0  0  0  0  0  0  0
    2.7276    3.7208   14.5602 C   0  0  0  0  0  0  0  0  0  0  0  0
    2.3432    4.9555   15.1063 C   0  0  0  0  0  0  0  0  0  0  0  0
    1.4213    5.7828   14.5252 C   0  0  0  0  0  0  0  0  0  0  0  0
    0.8215    5.4201   13.3483 C   0  0  0  0  0  0  0  0  0  0  0  0
   -0.0921    6.1989   12.7366 F   0  0  0  0  0  0  0  0  0  0  0  0
    1.1704    4.2204   12.7820 C   0  0  0  0  0  0  0  0  0  0  0  0
    0.4028    3.7581   11.2756 Cl  0  0  0  0  0  0  0  0  0  0  0  0
    2.1192    3.3791   13.3884 C   0  0  0  0  0  0  0  0  0  0  0  0
 24 25  1  0  0  0
 25  1  1  0  0  0
  1  2  2  0  0  0
  2  3  1  0  0  0
  3  4  2  0  0  0
  4  5  1  0  0  0
  5  6  2  0  0  0
  6  7  1  0  0  0
  7 26  1  0  0  0
 26 28  1  0  0  0
 28 29  2  0  0  0
 29 30  1  0  0  0
 30 31  2  0  0  0
 31 32  1  0  0  0
 31 33  1  0  0  0
 33 34  1  0  0  0
 33 35  2  0  0  0
  7  8  2  0  0  0
  8  9  1  0  0  0
  9 10  2  0  0  0
 10 11  1  0  0  0
 11 12  1  0  0  0
 12 13  2  0  0  0
 12 15  1  0  0  0
 15 16  2  0  0  0
 16 17  1  0  0  0
 17 18  1  0  0  0
 18 19  1  0  0  0
 19 20  1  0  0  0
 20 21  1  0  0  0
 21 22  1  0  0  0
 22 23  1  0  0  0
 10  1  1  0  0  0
 23 18  1  0  0  0
  8  3  1  0  0  0
 35 28  1  0  0  0
 26 27  1  0  0  0
 11 14  1  0  0  0
M  END
> <minimizedAffinity>
-7.87186

> <CNNscore>
0.3197968304

> <CNNaffinity>
6.7708625793

> <CNN_VS>
2.1653003693

> <CNNaffinity_variance>
0.2183526456

$$$$
[H]/C(C(=O)N([H])c1c(OC([H])([H])C([H])([H])[H])c([H])c2nc([H])c(C#N)c(N([H])c3c([H])c([H])c(OC([H])([H])c4nc([H])c([H])c([H])c4[H])c(Cl)c3[H])c2c1[H])=C(/[H])C([H])([H])N1C([H])([H])C([H])([H])C([H])([H])C([H])([H])C1([H])[H]


 45 49  0  0  0  0  0  0  0  0999 V2000
    4.5255    1.9530   20.5330 C   0  0  0  0  0  0  0  0  0  0  0  0
    3.9499    1.0135   19.7195 C   0  0  0  0  0  0  0  0  0  0  0  0
    3.6599    1.2579   18.3900 C   0  0  0  0  0  0  0  0  0  0  0  0
    3.1243    0.2991   17.6108 N   0  0  0  0  0  0  0  0  0  0  0  0
    2.8554    0.4766   16.3088 C   0  0  0  0  0  0  0  0  0  0  0  0
    3.1451    1.7122   15.7402 C   0  0  0  0  0  0  0  0  0  0  0  0
    3.6855    2.7364   16.4598 C   0  0  0  0  0  0  0  0  0  0  0  0
    3.9353    2.4643   17.8192 C   0  0  0  0  0  0  0  0  0  0  0  0
    4.5077    3.4085   18.6226 C   0  0  0  0  0  0  0  0  0  0  0  0
    4.8363    3.2249   19.9975 C   0  0  0  0  0  0  0  0  0  0  0  0
    5.5296    4.0963   20.6795 N   0  0  0  0  0  0  0  0  0  0  0  0
    6.2812    5.0129   21.4227 C   0  0  0  0  0  0  0  0  0  0  0  0
    7.1017    4.6619   22.3606 O   0  0  0  0  0  0  0  0  0  0  0  0
    6.2669    3.0997   21.2574 H   0  0  0  0  0  0  0  0  0  0  0  0
    6.2204    6.4808   21.2413 C   0  0  0  0  0  0  0  0  0  0  0  0
    5.1070    7.0808   21.0070 C   0  0  0  0  0  0  0  0  0  0  0  0
    5.0479    8.5842   20.8208 C   0  0  0  0  0  0  0  0  0  0  0  0
    4.2327    8.8221   19.6914 N   0  0  0  0  0  0  0  0  0  0  0  0
    3.7630    7.6996   18.9656 C   0  0  0  0  0  0  0  0  0  0  0  0
    4.5528    7.6764   17.6413 C   0  0  0  0  0  0  0  0  0  0  0  0
    4.2019    8.8878   16.8096 C   0  0  0  0  0  0  0  0  0  0  0  0
    3.6085    9.9884   17.7004 C   0  0  0  0  0  0  0  0  0  0  0  0
    4.3425   10.0535   19.0204 C   0  0  0  0  0  0  0  0  0  0  0  0
    2.9024    1.9181   14.3475 C   0  0  0  0  0  0  0  0  0  0  0  0
    2.7148    2.0641   13.2243 N   0  0  0  0  0  0  0  0  0  0  0  0
    4.0719    4.0017   16.0181 N   0  0  0  0  0  0  0  0  0  0  0  0
    5.0768    4.3062   16.3196 H   0  0  0  0  0  0  0  0  0  0  0  0
    3.3984    4.9530   15.2526 C   0  0  0  0  0  0  0  0  0  0  0  0
    2.0341    5.1903   15.5009 C   0  0  0  0  0  0  0  0  0  0  0  0
    1.3028    6.1394   14.8298 C   0  0  0  0  0  0  0  0  0  0  0  0
    1.9368    6.9088   13.8555 C   0  0  0  0  0  0  0  0  0  0  0  0
    3.2747    6.7049   13.5843 C   0  0  0  0  0  0  0  0  0  0  0  0
    4.0519    7.6834   12.3503 Cl  0  0  0  0  0  0  0  0  0  0  0  0
    3.9832    5.7254   14.2900 C   0  0  0  0  0  0  0  0  0  0  0  0
    1.2764    7.8880   13.1453 O   0  0  0  0  0  0  0  0  0  0  0  0
    0.8236    7.7911   11.8371 C   0  0  0  0  0  0  0  0  0  0  0  0
   -0.1652    6.6795   11.6487 C   0  0  0  0  0  0  0  0  0  0  0  0
   -1.3465    6.6302   12.3417 C   0  0  0  0  0  0  0  0  0  0  0  0
   -2.2764    5.6096   12.1752 C   0  0  0  0  0  0  0  0  0  0  0  0
   -1.9855    4.6136   11.2743 C   0  0  0  0  0  0  0  0  0  0  0  0
   -0.7890    4.6726   10.5795 C   0  0  0  0  0  0  0  0  0  0  0  0
    0.0929    5.6746   10.7622 N   0  0  0  0  0  0  0  0  0  0  0  0
    4.7934    1.6821   21.8417 O   0  0  0  0  0  0  0  0  0  0  0  0
    4.8805    2.3828   24.0955 C   0  0  0  0  0  0  0  0  0  0  0  0
    4.0158    1.8221   22.9689 C   0  0  0  0  0  0  0  0  0  0  0  0
 44 45  1  0  0  0
 45 43  1  0  0  0
 43  1  1  0  0  0
  1  2  2  0  0  0
  2  3  1  0  0  0
  3  4  2  0  0  0
  4  5  1  0  0  0
  5  6  2  0  0  0
  6 24  1  0  0  0
 24 25  3  0  0  0
  6  7  1  0  0  0
  7 26  1  0  0  0
 26 28  1  0  0  0
 28 29  2  0  0  0
 29 30  1  0  0  0
 30 31  2  0  0  0
 31 35  1  0  0  0
 35 36  1  0  0  0
 36 37  1  0  0  0
 37 38  2  0  0  0
 38 39  1  0  0  0
 39 40  2  0  0  0
 40 41  1  0  0  0
 41 42  2  0  0  0
 31 32  1  0  0  0
 32 33  1  0  0  0
 32 34  2  0  0  0
  7  8  2  0  0  0
  8  9  1  0  0  0
  9 10  2  0  0  0
 10 11  1  0  0  0
 11 12  1  0  0  0
 12 13  2  0  0  0
 12 15  1  0  0  0
 15 16  2  0  0  0
 16 17  1  0  0  0
 17 18  1  0  0  0
 18 19  1  0  0  0
 19 20  1  0  0  0
 20 21  1  0  0  0
 21 22  1  0  0  0
 22 23  1  0  0  0
 10  1  1  0  0  0
 23 18  1  0  0  0
  8  3  1  0  0  0
 34 28  1  0  0  0
 42 37  1  0  0  0
 26 27  1  0  0  0
 11 14  1  0  0  0
M  END
> <minimizedAffinity>
-8.58474

> <CNNscore>
0.3485748470

> <CNNaffinity>
7.6971702576

> <CNN_VS>
2.6830399036

> <CNNaffinity_variance>
0.1143679470

$$$$
[H]/C(C(=O)N([H])c1c(OC([H])([H])C([H])([H])[H])c([H])c2nc([H])c(C#N)c(N([H])c3c([H])c([H])c(OC([H])([H])c4nc([H])c([H])c([H])c4[H])c(Cl)c3[H])c2c1[H])=C(/[H])C([H])([H])N1C([H])([H])C([H])([H])C([H])([H])C([H])([H])C1([H])[H]


 45 49  0  0  0  0  0  0  0  0999 V2000
    4.5878    2.2437   20.3823 C   0  0  0  0  0  0  0  0  0  0  0  0
    4.0435    1.2519   19.6104 C   0  0  0  0  0  0  0  0  0  0  0  0
    3.7067    1.4425   18.2832 C   0  0  0  0  0  0  0  0  0  0  0  0
    3.2042    0.4346   17.5450 N   0  0  0  0  0  0  0  0  0  0  0  0
    2.8927    0.5603   16.2464 C   0  0  0  0  0  0  0  0  0  0  0  0
    3.1002    1.7930   15.6370 C   0  0  0  0  0  0  0  0  0  0  0  0
    3.6023    2.8647   16.3137 C   0  0  0  0  0  0  0  0  0  0  0  0
    3.9013    2.6452   17.6727 C   0  0  0  0  0  0  0  0  0  0  0  0
    4.4420    3.6411   18.4344 C   0  0  0  0  0  0  0  0  0  0  0  0
    4.8152    3.5147   19.8044 C   0  0  0  0  0  0  0  0  0  0  0  0
    5.4774    4.4411   20.4435 N   0  0  0  0  0  0  0  0  0  0  0  0
    6.1930    5.4181   21.1440 C   0  0  0  0  0  0  0  0  0  0  0  0
    6.8765    5.1656   22.2141 O   0  0  0  0  0  0  0  0  0  0  0  0
    6.0802    3.5032   21.2359 H   0  0  0  0  0  0  0  0  0  0  0  0
    6.2440    6.8473   20.7616 C   0  0  0  0  0  0  0  0  0  0  0  0
    7.0977    7.2803   19.9024 C   0  0  0  0  0  0  0  0  0  0  0  0
    7.1482    8.7447   19.5133 C   0  0  0  0  0  0  0  0  0  0  0  0
    6.4078    8.8730   18.3167 N   0  0  0  0  0  0  0  0  0  0  0  0
    5.1968    9.6071   18.3628 C   0  0  0  0  0  0  0  0  0  0  0  0
    4.0574    8.5741   18.2498 C   0  0  0  0  0  0  0  0  0  0  0  0
    4.0930    7.9126   16.8922 C   0  0  0  0  0  0  0  0  0  0  0  0
    5.4858    8.0654   16.2645 C   0  0  0  0  0  0  0  0  0  0  0  0
    6.5603    7.8978   17.3145 C   0  0  0  0  0  0  0  0  0  0  0  0
    2.8110    1.9458   14.2463 C   0  0  0  0  0  0  0  0  0  0  0  0
    2.5848    2.0487   13.1254 N   0  0  0  0  0  0  0  0  0  0  0  0
    3.9080    4.1358   15.8277 N   0  0  0  0  0  0  0  0  0  0  0  0
    4.8345    4.5653   16.2157 H   0  0  0  0  0  0  0  0  0  0  0  0
    3.2363    4.9608   14.9261 C   0  0  0  0  0  0  0  0  0  0  0  0
    3.8875    5.3550   13.7429 C   0  0  0  0  0  0  0  0  0  0  0  0
    3.2883    6.1262   12.7774 C   0  0  0  0  0  0  0  0  0  0  0  0
    1.9717    6.5407   12.9720 C   0  0  0  0  0  0  0  0  0  0  0  0
    1.3001    6.1733   14.1205 C   0  0  0  0  0  0  0  0  0  0  0  0
   -0.3568    6.7097   14.3463 Cl  0  0  0  0  0  0  0  0  0  0  0  0
    1.9484    5.3880   15.0810 C   0  0  0  0  0  0  0  0  0  0  0  0
    1.2964    7.3069   12.0468 O   0  0  0  0  0  0  0  0  0  0  0  0
    0.7468    6.8604   10.8532 C   0  0  0  0  0  0  0  0  0  0  0  0
    1.5832    7.2200    9.6617 C   0  0  0  0  0  0  0  0  0  0  0  0
    1.9622    6.2891    8.7300 C   0  0  0  0  0  0  0  0  0  0  0  0
    2.7331    6.6066    7.6169 C   0  0  0  0  0  0  0  0  0  0  0  0
    3.1254    7.9138    7.4566 C   0  0  0  0  0  0  0  0  0  0  0  0
    2.7375    8.8466    8.4039 C   0  0  0  0  0  0  0  0  0  0  0  0
    1.9901    8.5088    9.4727 N   0  0  0  0  0  0  0  0  0  0  0  0
    4.9035    2.0249   21.6901 O   0  0  0  0  0  0  0  0  0  0  0  0
    4.9814    2.4124   24.0186 C   0  0  0  0  0  0  0  0  0  0  0  0
    4.1173    2.0276   22.8200 C   0  0  0  0  0  0  0  0  0  0  0  0
 44 45  1  0  0  0
 45 43  1  0  0  0
 43  1  1  0  0  0
  1  2  2  0  0  0
  2  3  1  0  0  0
  3  4  2  0  0  0
  4  5  1  0  0  0
  5  6  2  0  0  0
  6 24  1  0  0  0
 24 25  3  0  0  0
  6  7  1  0  0  0
  7 26  1  0  0  0
 26 28  1  0  0  0
 28 29  2  0  0  0
 29 30  1  0  0  0
 30 31  2  0  0  0
 31 35  1  0  0  0
 35 36  1  0  0  0
 36 37  1  0  0  0
 37 38  2  0  0  0
 38 39  1  0  0  0
 39 40  2  0  0  0
 40 41  1  0  0  0
 41 42  2  0  0  0
 31 32  1  0  0  0
 32 33  1  0  0  0
 32 34  2  0  0  0
  7  8  2  0  0  0
  8  9  1  0  0  0
  9 10  2  0  0  0
 10 11  1  0  0  0
 11 12  1  0  0  0
 12 13  2  0  0  0
 12 15  1  0  0  0
 15 16  2  0  0  0
 16 17  1  0  0  0
 17 18  1  0  0  0
 18 19  1  0  0  0
 19 20  1  0  0  0
 20 21  1  0  0  0
 21 22  1  0  0  0
 22 23  1  0  0  0
 10  1  1  0  0  0
 23 18  1  0  0  0
  8  3  1  0  0  0
 34 28  1  0  0  0
 42 37  1  0  0  0
 26 27  1  0  0  0
 11 14  1  0  0  0
M  END
> <minimizedAffinity>
-8.08108

> <CNNscore>
0.3357209265

> <CNNaffinity>
7.3655066490

> <CNN_VS>
2.4727547169

> <CNNaffinity_variance>
0.3044759631

$$$$
[H]/C(C(=O)N([H])c1c(OC([H])([H])C([H])([H])[H])c([H])c2nc([H])c(C#N)c(N([H])c3c([H])c([H])c(OC([H])([H])c4nc([H])c([H])c([H])c4[H])c(Cl)c3[H])c2c1[H])=C(/[H])C([H])([H])N1C([H])([H])C([H])([H])C([H])([H])C([H])([H])C1([H])[H]


 45 49  0  0  0  0  0  0  0  0999 V2000
    4.6045    2.3091   20.5350 C   0  0  0  0  0  0  0  0  0  0  0  0
    4.0000    1.3144   19.8131 C   0  0  0  0  0  0  0  0  0  0  0  0
    3.6983    1.4479   18.4705 C   0  0  0  0  0  0  0  0  0  0  0  0
    3.1338    0.4362   17.7841 N   0  0  0  0  0  0  0  0  0  0  0  0
    2.8522    0.5049   16.4745 C   0  0  0  0  0  0  0  0  0  0  0  0
    3.1595    1.6798   15.7968 C   0  0  0  0  0  0  0  0  0  0  0  0
    3.7293    2.7512   16.4180 C   0  0  0  0  0  0  0  0  0  0  0  0
    3.9907    2.5937   17.7933 C   0  0  0  0  0  0  0  0  0  0  0  0
    4.5920    3.5921   18.5047 C   0  0  0  0  0  0  0  0  0  0  0  0
    4.9341    3.5224   19.8868 C   0  0  0  0  0  0  0  0  0  0  0  0
    5.6532    4.4353   20.4823 N   0  0  0  0  0  0  0  0  0  0  0  0
    6.4303    5.3977   21.1360 C   0  0  0  0  0  0  0  0  0  0  0  0
    7.1565    5.1363   22.1754 O   0  0  0  0  0  0  0  0  0  0  0  0
    6.2653    3.4882   21.2565 H   0  0  0  0  0  0  0  0  0  0  0  0
    6.5052    6.8205   20.7342 C   0  0  0  0  0  0  0  0  0  0  0  0
    7.1785    7.6753   21.4202 C   0  0  0  0  0  0  0  0  0  0  0  0
    7.2526    9.1320   21.0068 C   0  0  0  0  0  0  0  0  0  0  0  0
    7.9148    9.8173   22.0502 N   0  0  0  0  0  0  0  0  0  0  0  0
    9.2583   10.2123   21.8349 C   0  0  0  0  0  0  0  0  0  0  0  0
   10.1295    9.2827   22.7038 C   0  0  0  0  0  0  0  0  0  0  0  0
    9.8504    9.5326   24.1672 C   0  0  0  0  0  0  0  0  0  0  0  0
    8.4845   10.2125   24.3377 C   0  0  0  0  0  0  0  0  0  0  0  0
    7.4781    9.6267   23.3737 C   0  0  0  0  0  0  0  0  0  0  0  0
    2.9034    1.7683   14.3941 C   0  0  0  0  0  0  0  0  0  0  0  0
    2.6997    1.8604   13.2680 N   0  0  0  0  0  0  0  0  0  0  0  0
    4.1355    3.9647   15.8631 N   0  0  0  0  0  0  0  0  0  0  0  0
    5.1704    4.2431   16.0752 H   0  0  0  0  0  0  0  0  0  0  0  0
    3.4500    4.8912   15.0782 C   0  0  0  0  0  0  0  0  0  0  0  0
    2.0991    5.1627   15.3623 C   0  0  0  0  0  0  0  0  0  0  0  0
    1.3593    6.0924   14.6736 C   0  0  0  0  0  0  0  0  0  0  0  0
    1.9702    6.8057   13.6434 C   0  0  0  0  0  0  0  0  0  0  0  0
    3.2943    6.5669   13.3358 C   0  0  0  0  0  0  0  0  0  0  0  0
    4.0424    7.4746   12.0317 Cl  0  0  0  0  0  0  0  0  0  0  0  0
    4.0122    5.6088   14.0612 C   0  0  0  0  0  0  0  0  0  0  0  0
    1.3001    7.7624   12.9120 O   0  0  0  0  0  0  0  0  0  0  0  0
    0.7438    7.5938   11.6518 C   0  0  0  0  0  0  0  0  0  0  0  0
   -0.4688    6.7116   11.6689 C   0  0  0  0  0  0  0  0  0  0  0  0
   -1.4865    6.8897   12.5693 C   0  0  0  0  0  0  0  0  0  0  0  0
   -2.6199    6.0842   12.5955 C   0  0  0  0  0  0  0  0  0  0  0  0
   -2.7103    5.0692   11.6735 C   0  0  0  0  0  0  0  0  0  0  0  0
   -1.6764    4.8975   10.7683 C   0  0  0  0  0  0  0  0  0  0  0  0
   -0.5900    5.6943   10.7674 N   0  0  0  0  0  0  0  0  0  0  0  0
    4.8834    2.1478   21.8594 O   0  0  0  0  0  0  0  0  0  0  0  0
    3.9305    1.3641   23.8733 C   0  0  0  0  0  0  0  0  0  0  0  0
    4.8082    1.0362   22.6677 C   0  0  0  0  0  0  0  0  0  0  0  0
 44 45  1  0  0  0
 45 43  1  0  0  0
 43  1  1  0  0  0
  1  2  2  0  0  0
  2  3  1  0  0  0
  3  4  2  0  0  0
  4  5  1  0  0  0
  5  6  2  0  0  0
  6 24  1  0  0  0
 24 25  3  0  0  0
  6  7  1  0  0  0
  7 26  1  0  0  0
 26 28  1  0  0  0
 28 29  2  0  0  0
 29 30  1  0  0  0
 30 31  2  0  0  0
 31 35  1  0  0  0
 35 36  1  0  0  0
 36 37  1  0  0  0
 37 38  2  0  0  0
 38 39  1  0  0  0
 39 40  2  0  0  0
 40 41  1  0  0  0
 41 42  2  0  0  0
 31 32  1  0  0  0
 32 33  1  0  0  0
 32 34  2  0  0  0
  7  8  2  0  0  0
  8  9  1  0  0  0
  9 10  2  0  0  0
 10 11  1  0  0  0
 11 12  1  0  0  0
 12 13  2  0  0  0
 12 15  1  0  0  0
 15 16  2  0  0  0
 16 17  1  0  0  0
 17 18  1  0  0  0
 18 19  1  0  0  0
 19 20  1  0  0  0
 20 21  1  0  0  0
 21 22  1  0  0  0
 22 23  1  0  0  0
 10  1  1  0  0  0
 23 18  1  0  0  0
  8  3  1  0  0  0
 34 28  1  0  0  0
 42 37  1  0  0  0
 26 27  1  0  0  0
 11 14  1  0  0  0
M  END
> <minimizedAffinity>
-7.24088

> <CNNscore>
0.3103135526

> <CNNaffinity>
7.3467206955

> <CNN_VS>
2.2797870636

> <CNNaffinity_variance>
0.0886223763

$$$$
[H]/C(C(=O)N([H])c1c(OC([H])([H])C([H])([H])[H])c([H])c2nc([H])c(C#N)c(N([H])c3c([H])c([H])c(OC([H])([H])c4nc([H])c([H])c([H])c4[H])c(Cl)c3[H])c2c1[H])=C(/[H])C([H])([H])N1C([H])([H])C([H])([H])C([H])([H])C([H])([H])C1([H])[H]


 45 49  0  0  0  0  0  0  0  0999 V2000
    4.3636    2.9874   20.4940 C   0  0  0  0  0  0  0  0  0  0  0  0
    4.0232    1.8905   19.7478 C   0  0  0  0  0  0  0  0  0  0  0  0
    3.7622    1.9648   18.3922 C   0  0  0  0  0  0  0  0  0  0  0  0
    3.4629    0.8597   17.6834 N   0  0  0  0  0  0  0  0  0  0  0  0
    3.2340    0.8749   16.3618 C   0  0  0  0  0  0  0  0  0  0  0  0
    3.3103    2.0932   15.6955 C   0  0  0  0  0  0  0  0  0  0  0  0
    3.6049    3.2583   16.3393 C   0  0  0  0  0  0  0  0  0  0  0  0
    3.8302    3.1515   17.7258 C   0  0  0  0  0  0  0  0  0  0  0  0
    4.1671    4.2514   18.4613 C   0  0  0  0  0  0  0  0  0  0  0  0
    4.4519    4.2478   19.8581 C   0  0  0  0  0  0  0  0  0  0  0  0
    4.9276    5.2906   20.4837 N   0  0  0  0  0  0  0  0  0  0  0  0
    5.4260    6.4216   21.1394 C   0  0  0  0  0  0  0  0  0  0  0  0
    5.1070    7.6316   20.8077 O   0  0  0  0  0  0  0  0  0  0  0  0
    4.0638    6.1180   19.8202 H   0  0  0  0  0  0  0  0  0  0  0  0
    6.3803    6.3756   22.2702 C   0  0  0  0  0  0  0  0  0  0  0  0
    7.0635    7.4104   22.6121 C   0  0  0  0  0  0  0  0  0  0  0  0
    8.0408    7.3601   23.7700 C   0  0  0  0  0  0  0  0  0  0  0  0
    9.3196    7.1342   23.2129 N   0  0  0  0  0  0  0  0  0  0  0  0
    9.8344    8.1071   22.3208 C   0  0  0  0  0  0  0  0  0  0  0  0
    9.7723    7.4819   20.9124 C   0  0  0  0  0  0  0  0  0  0  0  0
   10.7112    6.3015   20.8298 C   0  0  0  0  0  0  0  0  0  0  0  0
   11.0280    5.7766   22.2373 C   0  0  0  0  0  0  0  0  0  0  0  0
    9.7915    5.8134   23.1061 C   0  0  0  0  0  0  0  0  0  0  0  0
    3.1064    2.1340   14.2821 C   0  0  0  0  0  0  0  0  0  0  0  0
    2.9304    2.1840   13.1487 N   0  0  0  0  0  0  0  0  0  0  0  0
    3.7635    4.5348   15.8001 N   0  0  0  0  0  0  0  0  0  0  0  0
    4.6369    5.0814   16.1632 H   0  0  0  0  0  0  0  0  0  0  0  0
    3.0001    5.2413   14.8714 C   0  0  0  0  0  0  0  0  0  0  0  0
    3.6036    5.6734   13.6762 C   0  0  0  0  0  0  0  0  0  0  0  0
    2.9190    6.3334   12.6854 C   0  0  0  0  0  0  0  0  0  0  0  0
    1.5606    6.5896   12.8654 C   0  0  0  0  0  0  0  0  0  0  0  0
    0.9338    6.1805   14.0250 C   0  0  0  0  0  0  0  0  0  0  0  0
   -0.7774    6.5171   14.2320 Cl  0  0  0  0  0  0  0  0  0  0  0  0
    1.6689    5.5125   15.0113 C   0  0  0  0  0  0  0  0  0  0  0  0
    0.8010    7.2367   11.9150 O   0  0  0  0  0  0  0  0  0  0  0  0
    0.7610    6.9481   10.5581 C   0  0  0  0  0  0  0  0  0  0  0  0
   -0.1240    5.7794   10.2419 C   0  0  0  0  0  0  0  0  0  0  0  0
   -1.4651    5.9256   10.0007 C   0  0  0  0  0  0  0  0  0  0  0  0
   -2.2987    4.8535    9.7011 C   0  0  0  0  0  0  0  0  0  0  0  0
   -1.7407    3.5988    9.6482 C   0  0  0  0  0  0  0  0  0  0  0  0
   -0.3847    3.4619    9.8938 C   0  0  0  0  0  0  0  0  0  0  0  0
    0.3980    4.5200   10.1819 N   0  0  0  0  0  0  0  0  0  0  0  0
    4.6091    2.8811   21.8305 O   0  0  0  0  0  0  0  0  0  0  0  0
    5.3583    2.3064   23.9953 C   0  0  0  0  0  0  0  0  0  0  0  0
    5.7026    2.3941   22.5103 C   0  0  0  0  0  0  0  0  0  0  0  0
 44 45  1  0  0  0
 45 43  1  0  0  0
 43  1  1  0  0  0
  1  2  2  0  0  0
  2  3  1  0  0  0
  3  4  2  0  0  0
  4  5  1  0  0  0
  5  6  2  0  0  0
  6 24  1  0  0  0
 24 25  3  0  0  0
  6  7  1  0  0  0
  7 26  1  0  0  0
 26 28  1  0  0  0
 28 29  2  0  0  0
 29 30  1  0  0  0
 30 31  2  0  0  0
 31 35  1  0  0  0
 35 36  1  0  0  0
 36 37  1  0  0  0
 37 38  2  0  0  0
 38 39  1  0  0  0
 39 40  2  0  0  0
 40 41  1  0  0  0
 41 42  2  0  0  0
 31 32  1  0  0  0
 32 33  1  0  0  0
 32 34  2  0  0  0
  7  8  2  0  0  0
  8  9  1  0  0  0
  9 10  2  0  0  0
 10 11  1  0  0  0
 11 12  1  0  0  0
 12 13  2  0  0  0
 12 15  1  0  0  0
 15 16  2  0  0  0
 16 17  1  0  0  0
 17 18  1  0  0  0
 18 19  1  0  0  0
 19 20  1  0  0  0
 20 21  1  0  0  0
 21 22  1  0  0  0
 22 23  1  0  0  0
 10  1  1  0  0  0
 23 18  1  0  0  0
  8  3  1  0  0  0
 34 28  1  0  0  0
 42 37  1  0  0  0
 26 27  1  0  0  0
 11 14  1  0  0  0
M  END
> <minimizedAffinity>
-7.93961

> <CNNscore>
0.2491444349

> <CNNaffinity>
7.3416976929

> <CNN_VS>
1.8291431665

> <CNNaffinity_variance>
0.0930202231

$$$$
[H]/C(C(=O)N([H])c1c(OC([H])([H])C([H])([H])[H])c([H])c2nc([H])c(C#N)c(N([H])c3c([H])c([H])c(OC([H])([H])c4nc([H])c([H])c([H])c4[H])c(Cl)c3[H])c2c1[H])=C(/[H])C([H])([H])N1C([H])([H])C([H])([H])C([H])([H])C([H])([H])C1([H])[H]


 45 49  0  0  0  0  0  0  0  0999 V2000
    2.5329    3.3900   14.6391 C   0  0  0  0  0  0  0  0  0  0  0  0
    3.0405    2.3152   15.3196 C   0  0  0  0  0  0  0  0  0  0  0  0
    3.4805    2.4031   16.6273 C   0  0  0  0  0  0  0  0  0  0  0  0
    3.9430    1.3177   17.2764 N   0  0  0  0  0  0  0  0  0  0  0  0
    4.3503    1.3446   18.5541 C   0  0  0  0  0  0  0  0  0  0  0  0
    4.2906    2.5542   19.2377 C   0  0  0  0  0  0  0  0  0  0  0  0
    3.8381    3.6997   18.6530 C   0  0  0  0  0  0  0  0  0  0  0  0
    3.4311    3.5817   17.3095 C   0  0  0  0  0  0  0  0  0  0  0  0
    2.9282    4.6597   16.6391 C   0  0  0  0  0  0  0  0  0  0  0  0
    2.4546    4.6410   15.2946 C   0  0  0  0  0  0  0  0  0  0  0  0
    1.8331    5.6529   14.7516 N   0  0  0  0  0  0  0  0  0  0  0  0
    1.1873    6.7481   14.1676 C   0  0  0  0  0  0  0  0  0  0  0  0
    1.8153    7.7965   13.7407 O   0  0  0  0  0  0  0  0  0  0  0  0
    3.0207    6.2133   14.3691 H   0  0  0  0  0  0  0  0  0  0  0  0
   -0.2779    6.8489   13.9821 C   0  0  0  0  0  0  0  0  0  0  0  0
   -0.8842    6.1803   13.0656 C   0  0  0  0  0  0  0  0  0  0  0  0
   -2.3848    6.2863   12.8774 C   0  0  0  0  0  0  0  0  0  0  0  0
   -2.6806    5.6940   11.6291 N   0  0  0  0  0  0  0  0  0  0  0  0
   -4.0133    5.7780   11.1555 C   0  0  0  0  0  0  0  0  0  0  0  0
   -4.6129    4.3637   11.2906 C   0  0  0  0  0  0  0  0  0  0  0  0
   -3.8993    3.4095   10.3620 C   0  0  0  0  0  0  0  0  0  0  0  0
   -2.5240    3.9732    9.9774 C   0  0  0  0  0  0  0  0  0  0  0  0
   -1.8731    4.6381   11.1687 C   0  0  0  0  0  0  0  0  0  0  0  0
    4.6843    2.6048   20.6101 C   0  0  0  0  0  0  0  0  0  0  0  0
    5.0030    2.6665   21.7113 N   0  0  0  0  0  0  0  0  0  0  0  0
    3.6759    4.9625   19.2226 N   0  0  0  0  0  0  0  0  0  0  0  0
    2.6386    5.2876   19.3309 H   0  0  0  0  0  0  0  0  0  0  0  0
    4.6102    5.8895   19.6833 C   0  0  0  0  0  0  0  0  0  0  0  0
    4.5852    6.2715   21.0371 C   0  0  0  0  0  0  0  0  0  0  0  0
    5.4940    7.1409   21.5888 C   0  0  0  0  0  0  0  0  0  0  0  0
    6.4923    7.6731   20.7743 C   0  0  0  0  0  0  0  0  0  0  0  0
    6.5490    7.3213   19.4409 C   0  0  0  0  0  0  0  0  0  0  0  0
    7.8131    8.0067   18.4327 Cl  0  0  0  0  0  0  0  0  0  0  0  0
    5.6018    6.4334   18.9177 C   0  0  0  0  0  0  0  0  0  0  0  0
    7.4476    8.5432   21.2533 O   0  0  0  0  0  0  0  0  0  0  0  0
    8.1193    8.4418   22.4635 C   0  0  0  0  0  0  0  0  0  0  0  0
    9.1797    7.3815   22.4486 C   0  0  0  0  0  0  0  0  0  0  0  0
    9.8479    7.0356   21.3031 C   0  0  0  0  0  0  0  0  0  0  0  0
   10.8371    6.0586   21.2728 C   0  0  0  0  0  0  0  0  0  0  0  0
   11.1479    5.4199   22.4492 C   0  0  0  0  0  0  0  0  0  0  0  0
   10.4666    5.7764   23.6009 C   0  0  0  0  0  0  0  0  0  0  0  0
    9.5123    6.7274   23.5992 N   0  0  0  0  0  0  0  0  0  0  0  0
    2.1128    3.2712   13.3479 O   0  0  0  0  0  0  0  0  0  0  0  0
    1.4139    1.8788   11.5728 C   0  0  0  0  0  0  0  0  0  0  0  0
    0.9984    2.6640   12.8147 C   0  0  0  0  0  0  0  0  0  0  0  0
 44 45  1  0  0  0
 45 43  1  0  0  0
 43  1  1  0  0  0
  1  2  2  0  0  0
  2  3  1  0  0  0
  3  4  2  0  0  0
  4  5  1  0  0  0
  5  6  2  0  0  0
  6 24  1  0  0  0
 24 25  3  0  0  0
  6  7  1  0  0  0
  7 26  1  0  0  0
 26 28  1  0  0  0
 28 29  2  0  0  0
 29 30  1  0  0  0
 30 31  2  0  0  0
 31 35  1  0  0  0
 35 36  1  0  0  0
 36 37  1  0  0  0
 37 38  2  0  0  0
 38 39  1  0  0  0
 39 40  2  0  0  0
 40 41  1  0  0  0
 41 42  2  0  0  0
 31 32  1  0  0  0
 32 33  1  0  0  0
 32 34  2  0  0  0
  7  8  2  0  0  0
  8  9  1  0  0  0
  9 10  2  0  0  0
 10 11  1  0  0  0
 11 12  1  0  0  0
 12 13  2  0  0  0
 12 15  1  0  0  0
 15 16  2  0  0  0
 16 17  1  0  0  0
 17 18  1  0  0  0
 18 19  1  0  0  0
 19 20  1  0  0  0
 20 21  1  0  0  0
 21 22  1  0  0  0
 22 23  1  0  0  0
 10  1  1  0  0  0
 23 18  1  0  0  0
  8  3  1  0  0  0
 34 28  1  0  0  0
 42 37  1  0  0  0
 26 27  1  0  0  0
 11 14  1  0  0  0
M  END
> <minimizedAffinity>
-8.40669

> <CNNscore>
0.2076095790

> <CNNaffinity>
7.2301635742

> <CNN_VS>
1.5010511875

> <CNNaffinity_variance>
0.0847960040

$$$$
[H]/C(C(=O)N([H])c1c(OC([H])([H])C([H])([H])[H])c([H])c2nc([H])c(C#N)c(N([H])c3c([H])c([H])c(OC([H])([H])c4nc([H])c([H])c([H])c4[H])c(Cl)c3[H])c2c1[H])=C(/[H])C([H])([H])N1C([H])([H])C([H])([H])C([H])([H])C([H])([H])C1([H])[H]


 45 49  0  0  0  0  0  0  0  0999 V2000
    4.2908    2.1750   19.6524 C   0  0  0  0  0  0  0  0  0  0  0  0
    4.0739    1.3694   18.5663 C   0  0  0  0  0  0  0  0  0  0  0  0
    3.4936    1.8329   17.4002 C   0  0  0  0  0  0  0  0  0  0  0  0
    3.3261    1.0201   16.3398 N   0  0  0  0  0  0  0  0  0  0  0  0
    2.7988    1.4301   15.1766 C   0  0  0  0  0  0  0  0  0  0  0  0
    2.4072    2.7599   15.0649 C   0  0  0  0  0  0  0  0  0  0  0  0
    2.5399    3.6469   16.0916 C   0  0  0  0  0  0  0  0  0  0  0  0
    3.1022    3.1323   17.2764 C   0  0  0  0  0  0  0  0  0  0  0  0
    3.3125    3.9434   18.3545 C   0  0  0  0  0  0  0  0  0  0  0  0
    3.9069    3.5348   19.5842 C   0  0  0  0  0  0  0  0  0  0  0  0
    4.2364    4.3800   20.5234 N   0  0  0  0  0  0  0  0  0  0  0  0
    4.5885    5.2684   21.5452 C   0  0  0  0  0  0  0  0  0  0  0  0
    4.7586    4.9028   22.7754 O   0  0  0  0  0  0  0  0  0  0  0  0
    4.4519    3.3579   21.4065 H   0  0  0  0  0  0  0  0  0  0  0  0
    4.7924    6.7218   21.3514 C   0  0  0  0  0  0  0  0  0  0  0  0
    4.6386    7.2714   20.1987 C   0  0  0  0  0  0  0  0  0  0  0  0
    4.8489    8.7600   20.0029 C   0  0  0  0  0  0  0  0  0  0  0  0
    5.4403    8.9229   18.7299 N   0  0  0  0  0  0  0  0  0  0  0  0
    6.4438    8.0006   18.3431 C   0  0  0  0  0  0  0  0  0  0  0  0
    7.7818    8.7654   18.3978 C   0  0  0  0  0  0  0  0  0  0  0  0
    7.7948    9.8581   17.3548 C   0  0  0  0  0  0  0  0  0  0  0  0
    6.3598   10.2099   16.9377 C   0  0  0  0  0  0  0  0  0  0  0  0
    5.4423   10.1995   18.1392 C   0  0  0  0  0  0  0  0  0  0  0  0
    1.8755    3.2331   13.8263 C   0  0  0  0  0  0  0  0  0  0  0  0
    1.4352    3.5968   12.8303 N   0  0  0  0  0  0  0  0  0  0  0  0
    2.2407    5.0091   16.1094 N   0  0  0  0  0  0  0  0  0  0  0  0
    1.4206    5.2905   16.7740 H   0  0  0  0  0  0  0  0  0  0  0  0
    2.8085    6.0835   15.4255 C   0  0  0  0  0  0  0  0  0  0  0  0
    4.0144    6.6344   15.8962 C   0  0  0  0  0  0  0  0  0  0  0  0
    4.6692    7.6611   15.2612 C   0  0  0  0  0  0  0  0  0  0  0  0
    4.1186    8.1865   14.0933 C   0  0  0  0  0  0  0  0  0  0  0  0
    2.9366    7.6716   13.6007 C   0  0  0  0  0  0  0  0  0  0  0  0
    2.2594    8.3513   12.1298 Cl  0  0  0  0  0  0  0  0  0  0  0  0
    2.3000    6.6262   14.2799 C   0  0  0  0  0  0  0  0  0  0  0  0
    4.7189    9.2095   13.3916 O   0  0  0  0  0  0  0  0  0  0  0  0
    6.0790    9.4789   13.3328 C   0  0  0  0  0  0  0  0  0  0  0  0
    6.8184    8.5273   12.4402 C   0  0  0  0  0  0  0  0  0  0  0  0
    8.1761    8.3587   12.5207 C   0  0  0  0  0  0  0  0  0  0  0  0
    8.8762    7.4771   11.7043 C   0  0  0  0  0  0  0  0  0  0  0  0
    8.1639    6.7501   10.7810 C   0  0  0  0  0  0  0  0  0  0  0  0
    6.7925    6.9282   10.7075 C   0  0  0  0  0  0  0  0  0  0  0  0
    6.1414    7.7905   11.5123 N   0  0  0  0  0  0  0  0  0  0  0  0
    4.8602    1.6853   20.7898 O   0  0  0  0  0  0  0  0  0  0  0  0
    6.9721    1.0950   21.6668 C   0  0  0  0  0  0  0  0  0  0  0  0
    5.6935    0.6080   20.9891 C   0  0  0  0  0  0  0  0  0  0  0  0
 44 45  1  0  0  0
 45 43  1  0  0  0
 43  1  1  0  0  0
  1  2  2  0  0  0
  2  3  1  0  0  0
  3  4  2  0  0  0
  4  5  1  0  0  0
  5  6  2  0  0  0
  6 24  1  0  0  0
 24 25  3  0  0  0
  6  7  1  0  0  0
  7 26  1  0  0  0
 26 28  1  0  0  0
 28 29  2  0  0  0
 29 30  1  0  0  0
 30 31  2  0  0  0
 31 35  1  0  0  0
 35 36  1  0  0  0
 36 37  1  0  0  0
 37 38  2  0  0  0
 38 39  1  0  0  0
 39 40  2  0  0  0
 40 41  1  0  0  0
 41 42  2  0  0  0
 31 32  1  0  0  0
 32 33  1  0  0  0
 32 34  2  0  0  0
  7  8  2  0  0  0
  8  9  1  0  0  0
  9 10  2  0  0  0
 10 11  1  0  0  0
 11 12  1  0  0  0
 12 13  2  0  0  0
 12 15  1  0  0  0
 15 16  2  0  0  0
 16 17  1  0  0  0
 17 18  1  0  0  0
 18 19  1  0  0  0
 19 20  1  0  0  0
 20 21  1  0  0  0
 21 22  1  0  0  0
 22 23  1  0  0  0
 10  1  1  0  0  0
 23 18  1  0  0  0
  8  3  1  0  0  0
 34 28  1  0  0  0
 42 37  1  0  0  0
 26 27  1  0  0  0
 11 14  1  0  0  0
M  END
> <minimizedAffinity>
-7.89211

> <CNNscore>
0.1959122419

> <CNNaffinity>
6.9182219505

> <CNN_VS>
1.3553643227

> <CNNaffinity_variance>
0.2651585639

$$$$
[H]/C(C(=O)N([H])c1c(OC([H])([H])C([H])([H])[H])c([H])c2nc([H])c(C#N)c(N([H])c3c([H])c([H])c(OC([H])([H])c4nc([H])c([H])c([H])c4[H])c(Cl)c3[H])c2c1[H])=C(/[H])C([H])([H])N1C([H])([H])C([H])([H])C([H])([H])C([H])([H])C1([H])[H]


 45 49  0  0  0  0  0  0  0  0999 V2000
    3.4667    3.1741   17.5309 C   0  0  0  0  0  0  0  0  0  0  0  0
    2.8994    2.2345   16.7116 C   0  0  0  0  0  0  0  0  0  0  0  0
    2.4033    2.5425   15.4584 C   0  0  0  0  0  0  0  0  0  0  0  0
    1.8822    1.5864   14.6661 N   0  0  0  0  0  0  0  0  0  0  0  0
    1.4185    1.8287   13.4311 C   0  0  0  0  0  0  0  0  0  0  0  0
    1.4804    3.1320   12.9497 C   0  0  0  0  0  0  0  0  0  0  0  0
    1.9902    4.1580   13.6887 C   0  0  0  0  0  0  0  0  0  0  0  0
    2.4542    3.8152   14.9739 C   0  0  0  0  0  0  0  0  0  0  0  0
    3.0164    4.7596   15.7840 C   0  0  0  0  0  0  0  0  0  0  0  0
    3.5497    4.5132   17.0829 C   0  0  0  0  0  0  0  0  0  0  0  0
    4.2227    5.4109   17.7510 N   0  0  0  0  0  0  0  0  0  0  0  0
    4.9379    6.3885   18.4512 C   0  0  0  0  0  0  0  0  0  0  0  0
    4.9877    7.6291   18.0849 O   0  0  0  0  0  0  0  0  0  0  0  0
    3.6806    6.4173   16.9999 H   0  0  0  0  0  0  0  0  0  0  0  0
    5.7294    6.1251   19.6741 C   0  0  0  0  0  0  0  0  0  0  0  0
    5.5462    5.0615   20.3739 C   0  0  0  0  0  0  0  0  0  0  0  0
    6.3578    4.7949   21.6264 C   0  0  0  0  0  0  0  0  0  0  0  0
    5.4451    4.3758   22.6205 N   0  0  0  0  0  0  0  0  0  0  0  0
    5.7722    3.2227   23.3759 C   0  0  0  0  0  0  0  0  0  0  0  0
    4.8301    2.1027   22.8901 C   0  0  0  0  0  0  0  0  0  0  0  0
    3.4008    2.4411   23.2429 C   0  0  0  0  0  0  0  0  0  0  0  0
    3.2579    3.9503   23.4860 C   0  0  0  0  0  0  0  0  0  0  0  0
    4.0892    4.7272   22.4907 C   0  0  0  0  0  0  0  0  0  0  0  0
    1.0266    3.4128   11.6245 C   0  0  0  0  0  0  0  0  0  0  0  0
    0.6810    3.6333   10.5521 N   0  0  0  0  0  0  0  0  0  0  0  0
    2.1612    5.4931   13.3232 N   0  0  0  0  0  0  0  0  0  0  0  0
    1.2786    6.1227   13.4578 H   0  0  0  0  0  0  0  0  0  0  0  0
    3.2679    6.1719   12.8145 C   0  0  0  0  0  0  0  0  0  0  0  0
    3.6253    7.4133   13.3720 C   0  0  0  0  0  0  0  0  0  0  0  0
    4.7249    8.1294   12.9672 C   0  0  0  0  0  0  0  0  0  0  0  0
    5.5306    7.6067   11.9568 C   0  0  0  0  0  0  0  0  0  0  0  0
    5.2119    6.3911   11.3859 C   0  0  0  0  0  0  0  0  0  0  0  0
    6.2391    5.7534   10.1121 Cl  0  0  0  0  0  0  0  0  0  0  0  0
    4.0806    5.6942   11.8263 C   0  0  0  0  0  0  0  0  0  0  0  0
    6.6566    8.2579   11.5017 O   0  0  0  0  0  0  0  0  0  0  0  0
    7.6074    8.8999   12.2827 C   0  0  0  0  0  0  0  0  0  0  0  0
    8.9775    8.3111   12.1254 C   0  0  0  0  0  0  0  0  0  0  0  0
   10.0277    8.6867   12.9219 C   0  0  0  0  0  0  0  0  0  0  0  0
   11.3029    8.1471   12.7928 C   0  0  0  0  0  0  0  0  0  0  0  0
   11.5051    7.1975   11.8203 C   0  0  0  0  0  0  0  0  0  0  0  0
   10.4376    6.8252   11.0206 C   0  0  0  0  0  0  0  0  0  0  0  0
    9.2127    7.3662   11.1693 N   0  0  0  0  0  0  0  0  0  0  0  0
    3.9414    2.8386   18.7638 O   0  0  0  0  0  0  0  0  0  0  0  0
    3.8980    0.8057   19.9651 C   0  0  0  0  0  0  0  0  0  0  0  0
    4.7438    1.7957   19.1678 C   0  0  0  0  0  0  0  0  0  0  0  0
 44 45  1  0  0  0
 45 43  1  0  0  0
 43  1  1  0  0  0
  1  2  2  0  0  0
  2  3  1  0  0  0
  3  4  2  0  0  0
  4  5  1  0  0  0
  5  6  2  0  0  0
  6 24  1  0  0  0
 24 25  3  0  0  0
  6  7  1  0  0  0
  7 26  1  0  0  0
 26 28  1  0  0  0
 28 29  2  0  0  0
 29 30  1  0  0  0
 30 31  2  0  0  0
 31 35  1  0  0  0
 35 36  1  0  0  0
 36 37  1  0  0  0
 37 38  2  0  0  0
 38 39  1  0  0  0
 39 40  2  0  0  0
 40 41  1  0  0  0
 41 42  2  0  0  0
 31 32  1  0  0  0
 32 33  1  0  0  0
 32 34  2  0  0  0
  7  8  2  0  0  0
  8  9  1  0  0  0
  9 10  2  0  0  0
 10 11  1  0  0  0
 11 12  1  0  0  0
 12 13  2  0  0  0
 12 15  1  0  0  0
 15 16  2  0  0  0
 16 17  1  0  0  0
 17 18  1  0  0  0
 18 19  1  0  0  0
 19 20  1  0  0  0
 20 21  1  0  0  0
 21 22  1  0  0  0
 22 23  1  0  0  0
 10  1  1  0  0  0
 23 18  1  0  0  0
  8  3  1  0  0  0
 34 28  1  0  0  0
 42 37  1  0  0  0
 26 27  1  0  0  0
 11 14  1  0  0  0
M  END
> <minimizedAffinity>
-7.56484

> <CNNscore>
0.1771968007

> <CNNaffinity>
7.1750793457

> <CNN_VS>
1.2714010477

> <CNNaffinity_variance>
0.0888725370

$$$$
[H]/C(C(=O)N([H])c1c(OC([H])([H])C([H])([H])[H])c([H])c2nc([H])c(C#N)c(N([H])c3c([H])c([H])c(OC([H])([H])c4nc([H])c([H])c([H])c4[H])c(Cl)c3[H])c2c1[H])=C(/[H])C([H])([H])N1C([H])([H])C([H])([H])C([H])([H])C([H])([H])C1([H])[H]


 45 49  0  0  0  0  0  0  0  0999 V2000
    1.2959    1.0686    9.0746 C   0  0  0  0  0  0  0  0  0  0  0  0
    0.2975    1.9523    9.3879 C   0  0  0  0  0  0  0  0  0  0  0  0
    0.4063    2.8609   10.4242 C   0  0  0  0  0  0  0  0  0  0  0  0
   -0.5825    3.7378   10.6825 N   0  0  0  0  0  0  0  0  0  0  0  0
   -0.5110    4.6592   11.6546 C   0  0  0  0  0  0  0  0  0  0  0  0
    0.6418    4.7076   12.4310 C   0  0  0  0  0  0  0  0  0  0  0  0
    1.6873    3.8544   12.2365 C   0  0  0  0  0  0  0  0  0  0  0  0
    1.5282    2.9187   11.1955 C   0  0  0  0  0  0  0  0  0  0  0  0
    2.5289    2.0405   10.8923 C   0  0  0  0  0  0  0  0  0  0  0  0
    2.4864    1.0812    9.8387 C   0  0  0  0  0  0  0  0  0  0  0  0
    3.5271    0.3771    9.4834 N   0  0  0  0  0  0  0  0  0  0  0  0
    4.6308   -0.3965    9.1081 C   0  0  0  0  0  0  0  0  0  0  0  0
    4.6327   -1.6908    9.1384 O   0  0  0  0  0  0  0  0  0  0  0  0
    2.7985   -0.7792    9.5371 H   0  0  0  0  0  0  0  0  0  0  0  0
    5.9227    0.1628    8.6502 C   0  0  0  0  0  0  0  0  0  0  0  0
    6.1115    1.4326    8.5699 C   0  0  0  0  0  0  0  0  0  0  0  0
    7.4353    2.0026    8.0998 C   0  0  0  0  0  0  0  0  0  0  0  0
    7.1621    3.2864    7.5764 N   0  0  0  0  0  0  0  0  0  0  0  0
    7.8381    4.3923    8.1486 C   0  0  0  0  0  0  0  0  0  0  0  0
    6.7884    5.1644    8.9733 C   0  0  0  0  0  0  0  0  0  0  0  0
    5.7377    5.7460    8.0568 C   0  0  0  0  0  0  0  0  0  0  0  0
    5.7279    4.9951    6.7178 C   0  0  0  0  0  0  0  0  0  0  0  0
    5.9278    3.5133    6.9410 C   0  0  0  0  0  0  0  0  0  0  0  0
    0.7604    5.7018   13.4500 C   0  0  0  0  0  0  0  0  0  0  0  0
    0.8537    6.5158   14.2542 N   0  0  0  0  0  0  0  0  0  0  0  0
    2.9151    3.8171   12.8971 N   0  0  0  0  0  0  0  0  0  0  0  0
    3.7524    4.2357   12.3341 H   0  0  0  0  0  0  0  0  0  0  0  0
    3.2652    3.3384   14.1591 C   0  0  0  0  0  0  0  0  0  0  0  0
    4.0105    4.1631   15.0216 C   0  0  0  0  0  0  0  0  0  0  0  0
    4.3596    3.7941   16.2975 C   0  0  0  0  0  0  0  0  0  0  0  0
    3.9585    2.5444   16.7674 C   0  0  0  0  0  0  0  0  0  0  0  0
    3.2257    1.7077   15.9501 C   0  0  0  0  0  0  0  0  0  0  0  0
    2.7342    0.1365   16.5616 Cl  0  0  0  0  0  0  0  0  0  0  0  0
    2.8926    2.1216   14.6550 C   0  0  0  0  0  0  0  0  0  0  0  0
    4.2592    2.1042   18.0382 O   0  0  0  0  0  0  0  0  0  0  0  0
    4.6272    2.8959   19.1170 C   0  0  0  0  0  0  0  0  0  0  0  0
    4.2618    2.2819   20.4355 C   0  0  0  0  0  0  0  0  0  0  0  0
    3.8779    0.9710   20.5471 C   0  0  0  0  0  0  0  0  0  0  0  0
    3.5409    0.3847   21.7623 C   0  0  0  0  0  0  0  0  0  0  0  0
    3.5991    1.1648   22.8921 C   0  0  0  0  0  0  0  0  0  0  0  0
    3.9879    2.4882   22.7684 C   0  0  0  0  0  0  0  0  0  0  0  0
    4.3085    3.0287   21.5767 N   0  0  0  0  0  0  0  0  0  0  0  0
    1.1548    0.1812    8.0498 O   0  0  0  0  0  0  0  0  0  0  0  0
    1.6562   -1.9341    7.1266 C   0  0  0  0  0  0  0  0  0  0  0  0
    0.7376   -1.1306    8.0441 C   0  0  0  0  0  0  0  0  0  0  0  0
 44 45  1  0  0  0
 45 43  1  0  0  0
 43  1  1  0  0  0
  1  2  2  0  0  0
  2  3  1  0  0  0
  3  4  2  0  0  0
  4  5  1  0  0  0
  5  6  2  0  0  0
  6 24  1  0  0  0
 24 25  3  0  0  0
  6  7  1  0  0  0
  7 26  1  0  0  0
 26 28  1  0  0  0
 28 29  2  0  0  0
 29 30  1  0  0  0
 30 31  2  0  0  0
 31 35  1  0  0  0
 35 36  1  0  0  0
 36 37  1  0  0  0
 37 38  2  0  0  0
 38 39  1  0  0  0
 39 40  2  0  0  0
 40 41  1  0  0  0
 41 42  2  0  0  0
 31 32  1  0  0  0
 32 33  1  0  0  0
 32 34  2  0  0  0
  7  8  2  0  0  0
  8  9  1  0  0  0
  9 10  2  0  0  0
 10 11  1  0  0  0
 11 12  1  0  0  0
 12 13  2  0  0  0
 12 15  1  0  0  0
 15 16  2  0  0  0
 16 17  1  0  0  0
 17 18  1  0  0  0
 18 19  1  0  0  0
 19 20  1  0  0  0
 20 21  1  0  0  0
 21 22  1  0  0  0
 22 23  1  0  0  0
 10  1  1  0  0  0
 23 18  1  0  0  0
  8  3  1  0  0  0
 34 28  1  0  0  0
 42 37  1  0  0  0
 26 27  1  0  0  0
 11 14  1  0  0  0
M  END
> <minimizedAffinity>
-7.13147

> <CNNscore>
0.1632472128

> <CNNaffinity>
6.9652757645

> <CNN_VS>
1.1370618343

> <CNNaffinity_variance>
0.3543269336

$$$$
[H]/C(C(=O)N([H])c1c(OC([H])([H])C([H])([H])[H])c([H])c2nc([H])c(C#N)c(N([H])c3c([H])c([H])c(OC([H])([H])c4nc([H])c([H])c([H])c4[H])c(Cl)c3[H])c2c1[H])=C(/[H])C([H])([H])N1C([H])([H])C([H])([H])C([H])([H])C([H])([H])C1([H])[H]


 45 49  0  0  0  0  0  0  0  0999 V2000
    3.6689    2.3781    8.6445 C   0  0  0  0  0  0  0  0  0  0  0  0
    3.3571    3.7086    8.7361 C   0  0  0  0  0  0  0  0  0  0  0  0
    2.7417    4.2536    9.8476 C   0  0  0  0  0  0  0  0  0  0  0  0
    2.4800    5.5727    9.9169 N   0  0  0  0  0  0  0  0  0  0  0  0
    1.9150    6.1539   10.9855 C   0  0  0  0  0  0  0  0  0  0  0  0
    1.5847    5.3515   12.0723 C   0  0  0  0  0  0  0  0  0  0  0  0
    1.8136    4.0075   12.0816 C   0  0  0  0  0  0  0  0  0  0  0  0
    2.4094    3.4800   10.9192 C   0  0  0  0  0  0  0  0  0  0  0  0
    2.7146    2.1516   10.8369 C   0  0  0  0  0  0  0  0  0  0  0  0
    3.3501    1.5238    9.7259 C   0  0  0  0  0  0  0  0  0  0  0  0
    3.7687    0.2874    9.7590 N   0  0  0  0  0  0  0  0  0  0  0  0
    4.2313   -1.0320    9.8118 C   0  0  0  0  0  0  0  0  0  0  0  0
    5.0995   -1.4448   10.6788 O   0  0  0  0  0  0  0  0  0  0  0  0
    4.4114    0.5070   10.9462 H   0  0  0  0  0  0  0  0  0  0  0  0
    3.8020   -2.1026    8.8839 C   0  0  0  0  0  0  0  0  0  0  0  0
    3.6057   -3.3056    9.2949 C   0  0  0  0  0  0  0  0  0  0  0  0
    3.1669   -4.4002    8.3422 C   0  0  0  0  0  0  0  0  0  0  0  0
    1.9227   -4.8753    8.8144 N   0  0  0  0  0  0  0  0  0  0  0  0
    0.7788   -4.6485    8.0098 C   0  0  0  0  0  0  0  0  0  0  0  0
   -0.0463   -3.5590    8.7243 C   0  0  0  0  0  0  0  0  0  0  0  0
   -0.5615   -4.0838   10.0438 C   0  0  0  0  0  0  0  0  0  0  0  0
    0.2799   -5.2834   10.5020 C   0  0  0  0  0  0  0  0  0  0  0  0
    1.7423   -5.0505   10.1984 C   0  0  0  0  0  0  0  0  0  0  0  0
    1.0145    5.9488   13.2381 C   0  0  0  0  0  0  0  0  0  0  0  0
    0.5371    6.4265   14.1665 N   0  0  0  0  0  0  0  0  0  0  0  0
    1.5837    3.0923   13.1087 N   0  0  0  0  0  0  0  0  0  0  0  0
    0.6471    2.5360   13.0269 H   0  0  0  0  0  0  0  0  0  0  0  0
    2.3442    2.7579   14.2286 C   0  0  0  0  0  0  0  0  0  0  0  0
    3.2921    3.6783   14.7121 C   0  0  0  0  0  0  0  0  0  0  0  0
    4.0513    3.4545   15.8344 C   0  0  0  0  0  0  0  0  0  0  0  0
    3.8787    2.2608   16.5334 C   0  0  0  0  0  0  0  0  0  0  0  0
    2.9578    1.3335   16.0895 C   0  0  0  0  0  0  0  0  0  0  0  0
    2.7597   -0.1649   16.9837 Cl  0  0  0  0  0  0  0  0  0  0  0  0
    2.2056    1.5999   14.9394 C   0  0  0  0  0  0  0  0  0  0  0  0
    4.5937    1.9653   17.6739 O   0  0  0  0  0  0  0  0  0  0  0  0
    4.7715    2.7960   18.7713 C   0  0  0  0  0  0  0  0  0  0  0  0
    4.2702    2.1850   20.0457 C   0  0  0  0  0  0  0  0  0  0  0  0
    3.8220    0.8913   20.1063 C   0  0  0  0  0  0  0  0  0  0  0  0
    3.3589    0.3078   21.2807 C   0  0  0  0  0  0  0  0  0  0  0  0
    3.3555    1.0728   22.4223 C   0  0  0  0  0  0  0  0  0  0  0  0
    3.8102    2.3788   22.3503 C   0  0  0  0  0  0  0  0  0  0  0  0
    4.2531    2.9170   21.1973 N   0  0  0  0  0  0  0  0  0  0  0  0
    4.2707    1.8710    7.5316 O   0  0  0  0  0  0  0  0  0  0  0  0
    5.8201    2.0184    5.7552 C   0  0  0  0  0  0  0  0  0  0  0  0
    5.6014    1.6889    7.2300 C   0  0  0  0  0  0  0  0  0  0  0  0
 44 45  1  0  0  0
 45 43  1  0  0  0
 43  1  1  0  0  0
  1  2  2  0  0  0
  2  3  1  0  0  0
  3  4  2  0  0  0
  4  5  1  0  0  0
  5  6  2  0  0  0
  6 24  1  0  0  0
 24 25  3  0  0  0
  6  7  1  0  0  0
  7 26  1  0  0  0
 26 28  1  0  0  0
 28 29  2  0  0  0
 29 30  1  0  0  0
 30 31  2  0  0  0
 31 35  1  0  0  0
 35 36  1  0  0  0
 36 37  1  0  0  0
 37 38  2  0  0  0
 38 39  1  0  0  0
 39 40  2  0  0  0
 40 41  1  0  0  0
 41 42  2  0  0  0
 31 32  1  0  0  0
 32 33  1  0  0  0
 32 34  2  0  0  0
  7  8  2  0  0  0
  8  9  1  0  0  0
  9 10  2  0  0  0
 10 11  1  0  0  0
 11 12  1  0  0  0
 12 13  2  0  0  0
 12 15  1  0  0  0
 15 16  2  0  0  0
 16 17  1  0  0  0
 17 18  1  0  0  0
 18 19  1  0  0  0
 19 20  1  0  0  0
 20 21  1  0  0  0
 21 22  1  0  0  0
 22 23  1  0  0  0
 10  1  1  0  0  0
 23 18  1  0  0  0
  8  3  1  0  0  0
 34 28  1  0  0  0
 42 37  1  0  0  0
 26 27  1  0  0  0
 11 14  1  0  0  0
M  END
> <minimizedAffinity>
-7.60160

> <CNNscore>
0.1504432261

> <CNNaffinity>
7.0058875084

> <CNN_VS>
1.0539883375

> <CNNaffinity_variance>
0.2490865439

$$$$
[H]OP(=O)(O[H])C(F)(F)c1c([H])c([H])c(-c2c([H])c([H])c(-c3c([H])c([H])c(-c4c(C([H])([H])c5c([H])c([H])c([H])c([H])c5[H])sc5c([H])c([H])c([H])c([H])c45)c([H])c3[H])c([H])c2[H])c([H])c1[H]


 43 48  0  0  0  0  0  0  0  0999 V2000
    3.2149    4.4371   16.5296 C   0  0  0  0  0  0  0  0  0  0  0  0
    2.6918    5.1672   17.5931 C   0  0  0  0  0  0  0  0  0  0  0  0
    3.3757    5.0686   18.8087 C   0  0  0  0  0  0  0  0  0  0  0  0
    4.5041    4.2921   18.9545 C   0  0  0  0  0  0  0  0  0  0  0  0
    4.9696    3.5966   17.8956 C   0  0  0  0  0  0  0  0  0  0  0  0
    4.3393    3.6521   16.6580 C   0  0  0  0  0  0  0  0  0  0  0  0
    5.1516    4.2850   20.2786 C   0  0  0  0  0  0  0  0  0  0  0  0
    6.1168    5.1957   20.5215 C   0  0  0  0  0  0  0  0  0  0  0  0
    6.6708    4.7918   22.0879 S   0  0  0  0  0  0  0  0  0  0  0  0
    5.6470    3.4589   22.3868 C   0  0  0  0  0  0  0  0  0  0  0  0
    5.5027    2.6189   23.4916 C   0  0  0  0  0  0  0  0  0  0  0  0
    4.5252    1.6061   23.4660 C   0  0  0  0  0  0  0  0  0  0  0  0
    3.7938    1.5572   22.3355 C   0  0  0  0  0  0  0  0  0  0  0  0
    3.9075    2.3421   21.2449 C   0  0  0  0  0  0  0  0  0  0  0  0
    4.8952    3.3799   21.2381 C   0  0  0  0  0  0  0  0  0  0  0  0
    6.6574    6.3332   19.6577 C   0  0  0  0  0  0  0  0  0  0  0  0
    6.4459    7.5815   20.4916 C   0  0  0  0  0  0  0  0  0  0  0  0
    7.4968    8.2485   21.0360 C   0  0  0  0  0  0  0  0  0  0  0  0
    7.2743    9.3382   21.8955 C   0  0  0  0  0  0  0  0  0  0  0  0
    6.0043    9.7492   22.2039 C   0  0  0  0  0  0  0  0  0  0  0  0
    4.9619    9.0411   21.6257 C   0  0  0  0  0  0  0  0  0  0  0  0
    5.1645    7.9739   20.7817 C   0  0  0  0  0  0  0  0  0  0  0  0
    1.1891    4.7594   12.9158 C   0  0  0  0  0  0  0  0  0  0  0  0
    1.1383    5.7869   13.7958 C   0  0  0  0  0  0  0  0  0  0  0  0
    1.8014    5.6615   14.9942 C   0  0  0  0  0  0  0  0  0  0  0  0
    2.4865    4.5071   15.2832 C   0  0  0  0  0  0  0  0  0  0  0  0
    2.5432    3.4564   14.4087 C   0  0  0  0  0  0  0  0  0  0  0  0
    1.8889    3.6025   13.2239 C   0  0  0  0  0  0  0  0  0  0  0  0
   -0.5373    5.1118    9.1503 C   0  0  0  0  0  0  0  0  0  0  0  0
    0.3821    4.1183    9.3203 C   0  0  0  0  0  0  0  0  0  0  0  0
    0.9304    3.9893   10.6090 C   0  0  0  0  0  0  0  0  0  0  0  0
    0.5382    4.8367   11.6188 C   0  0  0  0  0  0  0  0  0  0  0  0
   -0.4025    5.8195   11.3958 C   0  0  0  0  0  0  0  0  0  0  0  0
   -0.9495    5.9477   10.1189 C   0  0  0  0  0  0  0  0  0  0  0  0
   -0.9646    5.4292    7.7215 C   0  0  0  0  0  0  0  0  0  0  0  0
   -0.7895    4.3161    6.9830 F   0  0  0  0  0  0  0  0  0  0  0  0
   -2.1850    6.0118    7.7009 F   0  0  0  0  0  0  0  0  0  0  0  0
    0.6117    6.5495    5.6363 O   0  0  0  0  0  0  0  0  0  0  0  0
    0.2758    6.7422    7.2890 P   0  0  0  0  0  0  0  0  0  0  0  0
   -0.5131    8.2233    7.5573 O   0  0  0  0  0  0  0  0  0  0  0  0
    1.4927    6.6236    8.0937 O   0  0  0  0  0  0  0  0  0  0  0  0
   -0.0550    7.0535    5.0893 H   0  0  0  0  0  0  0  0  0  0  0  0
   -0.5591    8.7757    6.7349 H   0  0  0  0  0  0  0  0  0  0  0  0
 38 39  1  0  0  0
 39 40  1  0  0  0
 39 41  2  0  0  0
 39 35  1  0  0  0
 35 36  1  0  0  0
 35 37  1  0  0  0
 35 29  1  0  0  0
 29 30  2  0  0  0
 30 31  1  0  0  0
 31 32  2  0  0  0
 32 33  1  0  0  0
 33 34  2  0  0  0
 32 23  1  0  0  0
 23 24  2  0  0  0
 24 25  1  0  0  0
 25 26  2  0  0  0
 26 27  1  0  0  0
 27 28  2  0  0  0
 26  1  1  0  0  0
  1  2  2  0  0  0
  2  3  1  0  0  0
  3  4  2  0  0  0
  4  5  1  0  0  0
  5  6  2  0  0  0
  4  7  1  0  0  0
  7  8  2  0  0  0
  8 16  1  0  0  0
 16 17  1  0  0  0
 17 18  2  0  0  0
 18 19  1  0  0  0
 19 20  2  0  0  0
 20 21  1  0  0  0
 21 22  2  0  0  0
  8  9  1  0  0  0
  9 10  1  0  0  0
 10 11  2  0  0  0
 11 12  1  0  0  0
 12 13  2  0  0  0
 13 14  1  0  0  0
 14 15  2  0  0  0
 34 29  1  0  0  0
 28 23  1  0  0  0
  6  1  1  0  0  0
 15  7  1  0  0  0
 22 17  1  0  0  0
 15 10  1  0  0  0
 38 42  1  0  0  0
 40 43  1  0  0  0
M  END
> <minimizedAffinity>
-8.86130

> <CNNscore>
0.3317640722

> <CNNaffinity>
6.1592841148

> <CNN_VS>
2.0434291363

> <CNNaffinity_variance>
0.6678502560

$$$$
[H]OP(=O)(O[H])C(F)(F)c1c([H])c([H])c(-c2c([H])c([H])c(-c3c([H])c([H])c(-c4c(C([H])([H])c5c([H])c([H])c([H])c([H])c5[H])sc5c([H])c([H])c([H])c([H])c45)c([H])c3[H])c([H])c2[H])c([H])c1[H]


 43 48  0  0  0  0  0  0  0  0999 V2000
    3.7318    3.5540   16.2043 C   0  0  0  0  0  0  0  0  0  0  0  0
    2.7570    4.2867   16.8754 C   0  0  0  0  0  0  0  0  0  0  0  0
    2.9825    4.5187   18.2358 C   0  0  0  0  0  0  0  0  0  0  0  0
    4.1038    4.0495   18.8837 C   0  0  0  0  0  0  0  0  0  0  0  0
    5.0182    3.3376   18.1918 C   0  0  0  0  0  0  0  0  0  0  0  0
    4.8569    3.0732   16.8367 C   0  0  0  0  0  0  0  0  0  0  0  0
    4.2427    4.3767   20.3142 C   0  0  0  0  0  0  0  0  0  0  0  0
    4.4419    5.6661   20.6572 C   0  0  0  0  0  0  0  0  0  0  0  0
    4.6534    5.6068   22.3529 S   0  0  0  0  0  0  0  0  0  0  0  0
    4.4831    3.9227   22.5744 C   0  0  0  0  0  0  0  0  0  0  0  0
    4.5109    3.1215   23.7164 C   0  0  0  0  0  0  0  0  0  0  0  0
    4.2956    1.7357   23.5930 C   0  0  0  0  0  0  0  0  0  0  0  0
    4.0659    1.3108   22.3353 C   0  0  0  0  0  0  0  0  0  0  0  0
    4.0398    2.0490   21.2071 C   0  0  0  0  0  0  0  0  0  0  0  0
    4.2587    3.4619   21.2984 C   0  0  0  0  0  0  0  0  0  0  0  0
    4.4971    6.9303   19.8023 C   0  0  0  0  0  0  0  0  0  0  0  0
    5.9554    7.3439   19.8235 C   0  0  0  0  0  0  0  0  0  0  0  0
    6.8843    6.6798   19.0873 C   0  0  0  0  0  0  0  0  0  0  0  0
    8.2461    7.0076   19.2047 C   0  0  0  0  0  0  0  0  0  0  0  0
    8.6662    7.9941   20.0575 C   0  0  0  0  0  0  0  0  0  0  0  0
    7.6850    8.6464   20.7883 C   0  0  0  0  0  0  0  0  0  0  0  0
    6.3487    8.3375   20.6828 C   0  0  0  0  0  0  0  0  0  0  0  0
    2.8715    2.7500   12.2193 C   0  0  0  0  0  0  0  0  0  0  0  0
    2.5007    1.8585   13.1683 C   0  0  0  0  0  0  0  0  0  0  0  0
    2.8042    2.1301   14.4820 C   0  0  0  0  0  0  0  0  0  0  0  0
    3.4807    3.2798   14.8076 C   0  0  0  0  0  0  0  0  0  0  0  0
    3.8688    4.1885   13.8612 C   0  0  0  0  0  0  0  0  0  0  0  0
    3.5512    3.9073   12.5677 C   0  0  0  0  0  0  0  0  0  0  0  0
    2.1598    2.1630    8.1655 C   0  0  0  0  0  0  0  0  0  0  0  0
    2.2908    1.0474    8.9400 C   0  0  0  0  0  0  0  0  0  0  0  0
    2.4954    1.2626   10.3147 C   0  0  0  0  0  0  0  0  0  0  0  0
    2.5555    2.5418   10.8162 C   0  0  0  0  0  0  0  0  0  0  0  0
    2.4077    3.6359    9.9905 C   0  0  0  0  0  0  0  0  0  0  0  0
    2.2023    3.4247    8.6269 C   0  0  0  0  0  0  0  0  0  0  0  0
    2.1799    1.9682    6.6535 C   0  0  0  0  0  0  0  0  0  0  0  0
    2.4908    3.1521    6.0904 F   0  0  0  0  0  0  0  0  0  0  0  0
    2.9298    0.8948    6.3150 F   0  0  0  0  0  0  0  0  0  0  0  0
    0.0052    2.1374    4.8286 O   0  0  0  0  0  0  0  0  0  0  0  0
    0.4045    1.5113    6.3550 P   0  0  0  0  0  0  0  0  0  0  0  0
    0.3690   -0.1872    6.3186 O   0  0  0  0  0  0  0  0  0  0  0  0
   -0.4750    2.0490    7.3942 O   0  0  0  0  0  0  0  0  0  0  0  0
    0.2531    1.4848    4.1141 H   0  0  0  0  0  0  0  0  0  0  0  0
    0.0268   -0.5348    5.4550 H   0  0  0  0  0  0  0  0  0  0  0  0
 38 39  1  0  0  0
 39 40  1  0  0  0
 39 41  2  0  0  0
 39 35  1  0  0  0
 35 36  1  0  0  0
 35 37  1  0  0  0
 35 29  1  0  0  0
 29 30  2  0  0  0
 30 31  1  0  0  0
 31 32  2  0  0  0
 32 33  1  0  0  0
 33 34  2  0  0  0
 32 23  1  0  0  0
 23 24  2  0  0  0
 24 25  1  0  0  0
 25 26  2  0  0  0
 26 27  1  0  0  0
 27 28  2  0  0  0
 26  1  1  0  0  0
  1  2  2  0  0  0
  2  3  1  0  0  0
  3  4  2  0  0  0
  4  5  1  0  0  0
  5  6  2  0  0  0
  4  7  1  0  0  0
  7  8  2  0  0  0
  8 16  1  0  0  0
 16 17  1  0  0  0
 17 18  2  0  0  0
 18 19  1  0  0  0
 19 20  2  0  0  0
 20 21  1  0  0  0
 21 22  2  0  0  0
  8  9  1  0  0  0
  9 10  1  0  0  0
 10 11  2  0  0  0
 11 12  1  0  0  0
 12 13  2  0  0  0
 13 14  1  0  0  0
 14 15  2  0  0  0
 34 29  1  0  0  0
 28 23  1  0  0  0
  6  1  1  0  0  0
 15  7  1  0  0  0
 22 17  1  0  0  0
 15 10  1  0  0  0
 38 42  1  0  0  0
 40 43  1  0  0  0
M  END
> <minimizedAffinity>
-8.71291

> <CNNscore>
0.3015158772

> <CNNaffinity>
6.3068685532

> <CNN_VS>
1.9016209841

> <CNNaffinity_variance>
0.5383015871

$$$$
[H]OP(=O)(O[H])C(F)(F)c1c([H])c([H])c(-c2c([H])c([H])c(-c3c([H])c([H])c(-c4c(C([H])([H])c5c([H])c([H])c([H])c([H])c5[H])sc5c([H])c([H])c([H])c([H])c45)c([H])c3[H])c([H])c2[H])c([H])c1[H]


 43 48  0  0  0  0  0  0  0  0999 V2000
    3.4891    3.7429   16.2783 C   0  0  0  0  0  0  0  0  0  0  0  0
    2.8861    4.6370   17.1583 C   0  0  0  0  0  0  0  0  0  0  0  0
    3.4167    4.6877   18.4511 C   0  0  0  0  0  0  0  0  0  0  0  0
    4.4759    3.8980   18.8406 C   0  0  0  0  0  0  0  0  0  0  0  0
    5.0232    3.0409   17.9532 C   0  0  0  0  0  0  0  0  0  0  0  0
    4.5459    2.9423   16.6514 C   0  0  0  0  0  0  0  0  0  0  0  0
    4.9627    4.0562   20.2227 C   0  0  0  0  0  0  0  0  0  0  0  0
    5.8085    5.0730   20.4887 C   0  0  0  0  0  0  0  0  0  0  0  0
    6.2097    4.8469   22.1353 S   0  0  0  0  0  0  0  0  0  0  0  0
    5.2803    3.4470   22.4365 C   0  0  0  0  0  0  0  0  0  0  0  0
    5.0833    2.6843   23.5882 C   0  0  0  0  0  0  0  0  0  0  0  0
    4.2092    1.5816   23.5450 C   0  0  0  0  0  0  0  0  0  0  0  0
    3.6218    1.3745   22.3503 C   0  0  0  0  0  0  0  0  0  0  0  0
    3.7918    2.0807   21.2141 C   0  0  0  0  0  0  0  0  0  0  0  0
    4.6776    3.2066   21.2241 C   0  0  0  0  0  0  0  0  0  0  0  0
    6.3430    6.1883   19.5928 C   0  0  0  0  0  0  0  0  0  0  0  0
    6.2719    7.4362   20.4506 C   0  0  0  0  0  0  0  0  0  0  0  0
    7.3989    8.0206   20.9347 C   0  0  0  0  0  0  0  0  0  0  0  0
    7.3072    9.1107   21.8172 C   0  0  0  0  0  0  0  0  0  0  0  0
    6.0908    9.6049   22.2085 C   0  0  0  0  0  0  0  0  0  0  0  0
    4.9674    8.9795   21.6898 C   0  0  0  0  0  0  0  0  0  0  0  0
    5.0417    7.9129   20.8243 C   0  0  0  0  0  0  0  0  0  0  0  0
    1.9091    3.6290   12.4367 C   0  0  0  0  0  0  0  0  0  0  0  0
    1.7082    4.7278   13.2016 C   0  0  0  0  0  0  0  0  0  0  0  0
    2.2244    4.7467   14.4762 C   0  0  0  0  0  0  0  0  0  0  0  0
    2.9163    3.6611   14.9538 C   0  0  0  0  0  0  0  0  0  0  0  0
    3.1233    2.5400   14.1972 C   0  0  0  0  0  0  0  0  0  0  0  0
    2.6134    2.5435   12.9350 C   0  0  0  0  0  0  0  0  0  0  0  0
    0.5164    3.2184    8.5411 C   0  0  0  0  0  0  0  0  0  0  0  0
   -0.4209    3.3142    9.5278 C   0  0  0  0  0  0  0  0  0  0  0  0
    0.0655    3.4886   10.8358 C   0  0  0  0  0  0  0  0  0  0  0  0
    1.4191    3.5541   11.0706 C   0  0  0  0  0  0  0  0  0  0  0  0
    2.3247    3.4608   10.0353 C   0  0  0  0  0  0  0  0  0  0  0  0
    1.8443    3.2902    8.7367 C   0  0  0  0  0  0  0  0  0  0  0  0
    0.0333    2.7903    7.1598 C   0  0  0  0  0  0  0  0  0  0  0  0
    0.8878    1.8576    6.6960 F   0  0  0  0  0  0  0  0  0  0  0  0
   -1.2830    2.4807    7.1834 F   0  0  0  0  0  0  0  0  0  0  0  0
   -0.9465    4.3448    4.9892 O   0  0  0  0  0  0  0  0  0  0  0  0
    0.2017    4.3942    6.2383 P   0  0  0  0  0  0  0  0  0  0  0  0
   -0.2014    5.6088    7.3564 O   0  0  0  0  0  0  0  0  0  0  0  0
    1.5538    4.5743    5.7075 O   0  0  0  0  0  0  0  0  0  0  0  0
   -1.8297    4.6728    5.3213 H   0  0  0  0  0  0  0  0  0  0  0  0
   -0.9724    6.1540    7.0531 H   0  0  0  0  0  0  0  0  0  0  0  0
 38 39  1  0  0  0
 39 40  1  0  0  0
 39 41  2  0  0  0
 39 35  1  0  0  0
 35 36  1  0  0  0
 35 37  1  0  0  0
 35 29  1  0  0  0
 29 30  2  0  0  0
 30 31  1  0  0  0
 31 32  2  0  0  0
 32 33  1  0  0  0
 33 34  2  0  0  0
 32 23  1  0  0  0
 23 24  2  0  0  0
 24 25  1  0  0  0
 25 26  2  0  0  0
 26 27  1  0  0  0
 27 28  2  0  0  0
 26  1  1  0  0  0
  1  2  2  0  0  0
  2  3  1  0  0  0
  3  4  2  0  0  0
  4  5  1  0  0  0
  5  6  2  0  0  0
  4  7  1  0  0  0
  7  8  2  0  0  0
  8 16  1  0  0  0
 16 17  1  0  0  0
 17 18  2  0  0  0
 18 19  1  0  0  0
 19 20  2  0  0  0
 20 21  1  0  0  0
 21 22  2  0  0  0
  8  9  1  0  0  0
  9 10  1  0  0  0
 10 11  2  0  0  0
 11 12  1  0  0  0
 12 13  2  0  0  0
 13 14  1  0  0  0
 14 15  2  0  0  0
 34 29  1  0  0  0
 28 23  1  0  0  0
  6  1  1  0  0  0
 15  7  1  0  0  0
 22 17  1  0  0  0
 15 10  1  0  0  0
 38 42  1  0  0  0
 40 43  1  0  0  0
M  END
> <minimizedAffinity>
-8.64160

> <CNNscore>
0.2585780025

> <CNNaffinity>
6.0594997406

> <CNN_VS>
1.5668532848

> <CNNaffinity_variance>
0.5089491606

$$$$
[H]OP(=O)(O[H])C(F)(F)c1c([H])c([H])c(-c2c([H])c([H])c(-c3c([H])c([H])c(-c4c(C([H])([H])c5c([H])c([H])c([H])c([H])c5[H])sc5c([H])c([H])c([H])c([H])c45)c([H])c3[H])c([H])c2[H])c([H])c1[H]


 43 48  0  0  0  0  0  0  0  0999 V2000
    3.9894    4.1700   16.5433 C   0  0  0  0  0  0  0  0  0  0  0  0
    5.2188    3.7146   17.0109 C   0  0  0  0  0  0  0  0  0  0  0  0
    5.6995    4.3157   18.1783 C   0  0  0  0  0  0  0  0  0  0  0  0
    5.0020    5.3061   18.8339 C   0  0  0  0  0  0  0  0  0  0  0  0
    3.8168    5.7195   18.3380 C   0  0  0  0  0  0  0  0  0  0  0  0
    3.2802    5.1623   17.1831 C   0  0  0  0  0  0  0  0  0  0  0  0
    5.5993    5.8482   20.0676 C   0  0  0  0  0  0  0  0  0  0  0  0
    5.1089    5.4277   21.2519 C   0  0  0  0  0  0  0  0  0  0  0  0
    5.9762    6.3504   22.4008 S   0  0  0  0  0  0  0  0  0  0  0  0
    6.9447    7.2555   21.3253 C   0  0  0  0  0  0  0  0  0  0  0  0
    7.9343    8.2157   21.5391 C   0  0  0  0  0  0  0  0  0  0  0  0
    8.6051    8.7738   20.4344 C   0  0  0  0  0  0  0  0  0  0  0  0
    8.2132    8.2964   19.2370 C   0  0  0  0  0  0  0  0  0  0  0  0
    7.2574    7.3783   18.9878 C   0  0  0  0  0  0  0  0  0  0  0  0
    6.5538    6.7938   20.0904 C   0  0  0  0  0  0  0  0  0  0  0  0
    4.0308    4.3962   21.5773 C   0  0  0  0  0  0  0  0  0  0  0  0
    4.7317    3.0576   21.4551 C   0  0  0  0  0  0  0  0  0  0  0  0
    5.8983    2.8138   22.1073 C   0  0  0  0  0  0  0  0  0  0  0  0
    6.5889    1.6081   21.8948 C   0  0  0  0  0  0  0  0  0  0  0  0
    6.1080    0.6591   21.0316 C   0  0  0  0  0  0  0  0  0  0  0  0
    4.9143    0.9486   20.3883 C   0  0  0  0  0  0  0  0  0  0  0  0
    4.2269    2.1234   20.5875 C   0  0  0  0  0  0  0  0  0  0  0  0
    2.7435    2.4763   12.9592 C   0  0  0  0  0  0  0  0  0  0  0  0
    3.3579    3.6825   12.9418 C   0  0  0  0  0  0  0  0  0  0  0  0
    3.7524    4.2383   14.1363 C   0  0  0  0  0  0  0  0  0  0  0  0
    3.5102    3.5773   15.3153 C   0  0  0  0  0  0  0  0  0  0  0  0
    2.8850    2.3609   15.3522 C   0  0  0  0  0  0  0  0  0  0  0  0
    2.5104    1.8222   14.1594 C   0  0  0  0  0  0  0  0  0  0  0  0
    1.5901    0.4166    9.5370 C   0  0  0  0  0  0  0  0  0  0  0  0
    0.6044    0.7607   10.4154 C   0  0  0  0  0  0  0  0  0  0  0  0
    1.0058    1.4881   11.5501 C   0  0  0  0  0  0  0  0  0  0  0  0
    2.3289    1.8168   11.7323 C   0  0  0  0  0  0  0  0  0  0  0  0
    3.2849    1.4521   10.8084 C   0  0  0  0  0  0  0  0  0  0  0  0
    2.8886    0.7325    9.6809 C   0  0  0  0  0  0  0  0  0  0  0  0
    1.2267   -0.5704    8.4331 C   0  0  0  0  0  0  0  0  0  0  0  0
    2.3678   -1.1399    7.9987 F   0  0  0  0  0  0  0  0  0  0  0  0
    0.2260   -1.3897    8.8285 F   0  0  0  0  0  0  0  0  0  0  0  0
    0.8884   -0.0722    5.6537 O   0  0  0  0  0  0  0  0  0  0  0  0
    0.5159    0.5919    7.1707 P   0  0  0  0  0  0  0  0  0  0  0  0
   -1.1645    0.5695    7.4230 O   0  0  0  0  0  0  0  0  0  0  0  0
    1.0657    1.9416    7.3071 O   0  0  0  0  0  0  0  0  0  0  0  0
    0.1871   -0.7310    5.3855 H   0  0  0  0  0  0  0  0  0  0  0  0
   -1.6589    0.2720    6.6163 H   0  0  0  0  0  0  0  0  0  0  0  0
 38 39  1  0  0  0
 39 40  1  0  0  0
 39 41  2  0  0  0
 39 35  1  0  0  0
 35 36  1  0  0  0
 35 37  1  0  0  0
 35 29  1  0  0  0
 29 30  2  0  0  0
 30 31  1  0  0  0
 31 32  2  0  0  0
 32 33  1  0  0  0
 33 34  2  0  0  0
 32 23  1  0  0  0
 23 24  2  0  0  0
 24 25  1  0  0  0
 25 26  2  0  0  0
 26 27  1  0  0  0
 27 28  2  0  0  0
 26  1  1  0  0  0
  1  2  2  0  0  0
  2  3  1  0  0  0
  3  4  2  0  0  0
  4  5  1  0  0  0
  5  6  2  0  0  0
  4  7  1  0  0  0
  7  8  2  0  0  0
  8 16  1  0  0  0
 16 17  1  0  0  0
 17 18  2  0  0  0
 18 19  1  0  0  0
 19 20  2  0  0  0
 20 21  1  0  0  0
 21 22  2  0  0  0
  8  9  1  0  0  0
  9 10  1  0  0  0
 10 11  2  0  0  0
 11 12  1  0  0  0
 12 13  2  0  0  0
 13 14  1  0  0  0
 14 15  2  0  0  0
 34 29  1  0  0  0
 28 23  1  0  0  0
  6  1  1  0  0  0
 15  7  1  0  0  0
 22 17  1  0  0  0
 15 10  1  0  0  0
 38 42  1  0  0  0
 40 43  1  0  0  0
M  END
> <minimizedAffinity>
-9.51381

> <CNNscore>
0.2585708797

> <CNNaffinity>
6.3882150650

> <CNN_VS>
1.6518063545

> <CNNaffinity_variance>
0.4758141935

$$$$
[H]OP(=O)(O[H])C(F)(F)c1c([H])c([H])c(-c2c([H])c([H])c(-c3c([H])c([H])c(-c4c(C([H])([H])c5c([H])c([H])c([H])c([H])c5[H])sc5c([H])c([H])c([H])c([H])c45)c([H])c3[H])c([H])c2[H])c([H])c1[H]


 43 48  0  0  0  0  0  0  0  0999 V2000
    3.9783    6.7885   17.3234 C   0  0  0  0  0  0  0  0  0  0  0  0
    4.2262    7.1692   16.0077 C   0  0  0  0  0  0  0  0  0  0  0  0
    3.4620    6.5340   15.0239 C   0  0  0  0  0  0  0  0  0  0  0  0
    2.5159    5.5814   15.3315 C   0  0  0  0  0  0  0  0  0  0  0  0
    2.3161    5.2404   16.6220 C   0  0  0  0  0  0  0  0  0  0  0  0
    3.0395    5.8348   17.6493 C   0  0  0  0  0  0  0  0  0  0  0  0
    1.7568    4.9981   14.2108 C   0  0  0  0  0  0  0  0  0  0  0  0
    2.3161    3.9817   13.5221 C   0  0  0  0  0  0  0  0  0  0  0  0
    1.1918    3.6717   12.2718 S   0  0  0  0  0  0  0  0  0  0  0  0
    0.0331    4.8614   12.6672 C   0  0  0  0  0  0  0  0  0  0  0  0
   -1.1948    5.1980   12.0964 C   0  0  0  0  0  0  0  0  0  0  0  0
   -1.9683    6.2215   12.6761 C   0  0  0  0  0  0  0  0  0  0  0  0
   -1.4253    6.7862   13.7723 C   0  0  0  0  0  0  0  0  0  0  0  0
   -0.2409    6.4969   14.3485 C   0  0  0  0  0  0  0  0  0  0  0  0
    0.5716    5.4626   13.7805 C   0  0  0  0  0  0  0  0  0  0  0  0
    3.6353    3.2408   13.7297 C   0  0  0  0  0  0  0  0  0  0  0  0
    3.4420    2.4681   15.0196 C   0  0  0  0  0  0  0  0  0  0  0  0
    4.2652    2.6602   16.0832 C   0  0  0  0  0  0  0  0  0  0  0  0
    4.1387    1.8570   17.2297 C   0  0  0  0  0  0  0  0  0  0  0  0
    3.1924    0.8689   17.3013 C   0  0  0  0  0  0  0  0  0  0  0  0
    2.3733    0.7082   16.1942 C   0  0  0  0  0  0  0  0  0  0  0  0
    2.4845    1.4876   15.0662 C   0  0  0  0  0  0  0  0  0  0  0  0
    6.4007    8.6553   20.1366 C   0  0  0  0  0  0  0  0  0  0  0  0
    6.9725    7.9020   19.1679 C   0  0  0  0  0  0  0  0  0  0  0  0
    6.1584    7.2780   18.2517 C   0  0  0  0  0  0  0  0  0  0  0  0
    4.7949    7.4155   18.3377 C   0  0  0  0  0  0  0  0  0  0  0  0
    4.1996    8.1675   19.3136 C   0  0  0  0  0  0  0  0  0  0  0  0
    5.0218    8.7852   20.2055 C   0  0  0  0  0  0  0  0  0  0  0  0
    8.6376   10.5605   23.0777 C   0  0  0  0  0  0  0  0  0  0  0  0
    9.2815    9.6320   22.3130 C   0  0  0  0  0  0  0  0  0  0  0  0
    8.5207    9.0225   21.2992 C   0  0  0  0  0  0  0  0  0  0  0  0
    7.2019    9.3677   21.1177 C   0  0  0  0  0  0  0  0  0  0  0  0
    6.6011   10.3200   21.9132 C   0  0  0  0  0  0  0  0  0  0  0  0
    7.3545   10.9276   22.9179 C   0  0  0  0  0  0  0  0  0  0  0  0
    9.3584   11.0563   24.3265 C   0  0  0  0  0  0  0  0  0  0  0  0
   10.6832   10.9434   24.1087 F   0  0  0  0  0  0  0  0  0  0  0  0
    8.8848   12.2637   24.7097 F   0  0  0  0  0  0  0  0  0  0  0  0
   10.0659    9.5189   26.6121 O   0  0  0  0  0  0  0  0  0  0  0  0
    8.7589    9.8137   25.5700 P   0  0  0  0  0  0  0  0  0  0  0  0
    7.4992   10.5815   26.4134 O   0  0  0  0  0  0  0  0  0  0  0  0
    8.3060    8.5792   24.9268 O   0  0  0  0  0  0  0  0  0  0  0  0
   10.0768   10.1935   27.3487 H   0  0  0  0  0  0  0  0  0  0  0  0
    7.6839   10.6415   27.3861 H   0  0  0  0  0  0  0  0  0  0  0  0
 38 39  1  0  0  0
 39 40  1  0  0  0
 39 41  2  0  0  0
 39 35  1  0  0  0
 35 36  1  0  0  0
 35 37  1  0  0  0
 35 29  1  0  0  0
 29 30  2  0  0  0
 30 31  1  0  0  0
 31 32  2  0  0  0
 32 33  1  0  0  0
 33 34  2  0  0  0
 32 23  1  0  0  0
 23 24  2  0  0  0
 24 25  1  0  0  0
 25 26  2  0  0  0
 26 27  1  0  0  0
 27 28  2  0  0  0
 26  1  1  0  0  0
  1  2  2  0  0  0
  2  3  1  0  0  0
  3  4  2  0  0  0
  4  5  1  0  0  0
  5  6  2  0  0  0
  4  7  1  0  0  0
  7  8  2  0  0  0
  8 16  1  0  0  0
 16 17  1  0  0  0
 17 18  2  0  0  0
 18 19  1  0  0  0
 19 20  2  0  0  0
 20 21  1  0  0  0
 21 22  2  0  0  0
  8  9  1  0  0  0
  9 10  1  0  0  0
 10 11  2  0  0  0
 11 12  1  0  0  0
 12 13  2  0  0  0
 13 14  1  0  0  0
 14 15  2  0  0  0
 34 29  1  0  0  0
 28 23  1  0  0  0
  6  1  1  0  0  0
 15  7  1  0  0  0
 22 17  1  0  0  0
 15 10  1  0  0  0
 38 42  1  0  0  0
 40 43  1  0  0  0
M  END
> <minimizedAffinity>
-9.64009

> <CNNscore>
0.2549389899

> <CNNaffinity>
6.1544046402

> <CNN_VS>
1.5689977407

> <CNNaffinity_variance>
0.4133238196

$$$$
[H]OP(=O)(O[H])C(F)(F)c1c([H])c([H])c(-c2c([H])c([H])c(-c3c([H])c([H])c(-c4c(C([H])([H])c5c([H])c([H])c([H])c([H])c5[H])sc5c([H])c([H])c([H])c([H])c45)c([H])c3[H])c([H])c2[H])c([H])c1[H]


 43 48  0  0  0  0  0  0  0  0999 V2000
    3.2001    5.1231   15.9095 C   0  0  0  0  0  0  0  0  0  0  0  0
    2.3213    5.1344   16.9889 C   0  0  0  0  0  0  0  0  0  0  0  0
    2.8968    5.0201   18.2582 C   0  0  0  0  0  0  0  0  0  0  0  0
    4.2571    4.9003   18.4386 C   0  0  0  0  0  0  0  0  0  0  0  0
    5.0686    4.8874   17.3602 C   0  0  0  0  0  0  0  0  0  0  0  0
    4.5624    4.9996   16.0706 C   0  0  0  0  0  0  0  0  0  0  0  0
    4.7482    4.8096   19.8253 C   0  0  0  0  0  0  0  0  0  0  0  0
    4.8946    5.9529   20.5263 C   0  0  0  0  0  0  0  0  0  0  0  0
    5.5695    5.4357   22.0097 S   0  0  0  0  0  0  0  0  0  0  0  0
    5.6483    3.7614   21.6864 C   0  0  0  0  0  0  0  0  0  0  0  0
    6.0749    2.6787   22.4563 C   0  0  0  0  0  0  0  0  0  0  0  0
    5.9838    1.3770   21.9277 C   0  0  0  0  0  0  0  0  0  0  0  0
    5.4639    1.3079   20.6866 C   0  0  0  0  0  0  0  0  0  0  0  0
    5.0495    2.3279   19.9079 C   0  0  0  0  0  0  0  0  0  0  0  0
    5.1323    3.6650   20.4155 C   0  0  0  0  0  0  0  0  0  0  0  0
    4.5767    7.3998   20.1555 C   0  0  0  0  0  0  0  0  0  0  0  0
    5.6897    8.2112   20.7888 C   0  0  0  0  0  0  0  0  0  0  0  0
    5.4361    9.0800   21.8021 C   0  0  0  0  0  0  0  0  0  0  0  0
    6.4606    9.9027   22.3013 C   0  0  0  0  0  0  0  0  0  0  0  0
    7.7273    9.8506   21.7821 C   0  0  0  0  0  0  0  0  0  0  0  0
    7.9419    8.9496   20.7504 C   0  0  0  0  0  0  0  0  0  0  0  0
    6.9496    8.1372   20.2527 C   0  0  0  0  0  0  0  0  0  0  0  0
    1.3856    5.2551   12.1735 C   0  0  0  0  0  0  0  0  0  0  0  0
    1.7702    4.0597   12.6796 C   0  0  0  0  0  0  0  0  0  0  0  0
    2.3825    4.0317   13.9108 C   0  0  0  0  0  0  0  0  0  0  0  0
    2.6036    5.2013   14.5953 C   0  0  0  0  0  0  0  0  0  0  0  0
    2.2275    6.4186   14.0964 C   0  0  0  0  0  0  0  0  0  0  0  0
    1.6144    6.4255   12.8810 C   0  0  0  0  0  0  0  0  0  0  0  0
   -0.4618    5.7076    8.4768 C   0  0  0  0  0  0  0  0  0  0  0  0
    0.6745    4.9533    8.5139 C   0  0  0  0  0  0  0  0  0  0  0  0
    1.2675    4.7801    9.7774 C   0  0  0  0  0  0  0  0  0  0  0  0
    0.7054    5.3550   10.8932 C   0  0  0  0  0  0  0  0  0  0  0  0
   -0.4502    6.1013   10.8019 C   0  0  0  0  0  0  0  0  0  0  0  0
   -1.0414    6.2724    9.5499 C   0  0  0  0  0  0  0  0  0  0  0  0
   -0.9863    6.1108    7.1031 C   0  0  0  0  0  0  0  0  0  0  0  0
   -0.4553    5.2676    6.1963 F   0  0  0  0  0  0  0  0  0  0  0  0
   -2.3316    6.2484    7.1215 F   0  0  0  0  0  0  0  0  0  0  0  0
    0.3474    7.9401    5.3817 O   0  0  0  0  0  0  0  0  0  0  0  0
   -0.2638    7.8160    6.9603 P   0  0  0  0  0  0  0  0  0  0  0  0
   -1.5685    8.8847    7.1688 O   0  0  0  0  0  0  0  0  0  0  0  0
    0.7866    8.0439    7.9540 O   0  0  0  0  0  0  0  0  0  0  0  0
   -0.3736    8.2351    4.7564 H   0  0  0  0  0  0  0  0  0  0  0  0
   -1.6974    9.4740    6.3815 H   0  0  0  0  0  0  0  0  0  0  0  0
 38 39  1  0  0  0
 39 40  1  0  0  0
 39 41  2  0  0  0
 39 35  1  0  0  0
 35 36  1  0  0  0
 35 37  1  0  0  0
 35 29  1  0  0  0
 29 30  2  0  0  0
 30 31  1  0  0  0
 31 32  2  0  0  0
 32 33  1  0  0  0
 33 34  2  0  0  0
 32 23  1  0  0  0
 23 24  2  0  0  0
 24 25  1  0  0  0
 25 26  2  0  0  0
 26 27  1  0  0  0
 27 28  2  0  0  0
 26  1  1  0  0  0
  1  2  2  0  0  0
  2  3  1  0  0  0
  3  4  2  0  0  0
  4  5  1  0  0  0
  5  6  2  0  0  0
  4  7  1  0  0  0
  7  8  2  0  0  0
  8 16  1  0  0  0
 16 17  1  0  0  0
 17 18  2  0  0  0
 18 19  1  0  0  0
 19 20  2  0  0  0
 20 21  1  0  0  0
 21 22  2  0  0  0
  8  9  1  0  0  0
  9 10  1  0  0  0
 10 11  2  0  0  0
 11 12  1  0  0  0
 12 13  2  0  0  0
 13 14  1  0  0  0
 14 15  2  0  0  0
 34 29  1  0  0  0
 28 23  1  0  0  0
  6  1  1  0  0  0
 15  7  1  0  0  0
 22 17  1  0  0  0
 15 10  1  0  0  0
 38 42  1  0  0  0
 40 43  1  0  0  0
M  END
> <minimizedAffinity>
-8.74317

> <CNNscore>
0.2468708456

> <CNNaffinity>
5.8772029877

> <CNN_VS>
1.4509100914

> <CNNaffinity_variance>
0.8602892756

$$$$
[H]OP(=O)(O[H])C(F)(F)c1c([H])c([H])c(-c2c([H])c([H])c(-c3c([H])c([H])c(-c4c(C([H])([H])c5c([H])c([H])c([H])c([H])c5[H])sc5c([H])c([H])c([H])c([H])c45)c([H])c3[H])c([H])c2[H])c([H])c1[H]


 43 48  0  0  0  0  0  0  0  0999 V2000
    3.4853    3.2989   16.3895 C   0  0  0  0  0  0  0  0  0  0  0  0
    4.4999    2.4848   16.8848 C   0  0  0  0  0  0  0  0  0  0  0  0
    4.9577    2.7791   18.1729 C   0  0  0  0  0  0  0  0  0  0  0  0
    4.4401    3.8170   18.9159 C   0  0  0  0  0  0  0  0  0  0  0  0
    3.4614    4.5832   18.3898 C   0  0  0  0  0  0  0  0  0  0  0  0
    2.9587    4.3436   17.1162 C   0  0  0  0  0  0  0  0  0  0  0  0
    4.9875    4.0159   20.2699 C   0  0  0  0  0  0  0  0  0  0  0  0
    5.8459    5.0378   20.4671 C   0  0  0  0  0  0  0  0  0  0  0  0
    6.3188    4.8610   22.1007 S   0  0  0  0  0  0  0  0  0  0  0  0
    5.4012    3.4738   22.4852 C   0  0  0  0  0  0  0  0  0  0  0  0
    5.2538    2.7474   23.6674 C   0  0  0  0  0  0  0  0  0  0  0  0
    4.3766    1.6466   23.6965 C   0  0  0  0  0  0  0  0  0  0  0  0
    3.7369    1.4048   22.5357 C   0  0  0  0  0  0  0  0  0  0  0  0
    3.8580    2.0753   21.3719 C   0  0  0  0  0  0  0  0  0  0  0  0
    4.7453    3.1983   21.3084 C   0  0  0  0  0  0  0  0  0  0  0  0
    6.3424    6.1235   19.5147 C   0  0  0  0  0  0  0  0  0  0  0  0
    6.2337    7.4097   20.3097 C   0  0  0  0  0  0  0  0  0  0  0  0
    7.3421    8.0455   20.7714 C   0  0  0  0  0  0  0  0  0  0  0  0
    7.2166    9.1748   21.5987 C   0  0  0  0  0  0  0  0  0  0  0  0
    5.9853    9.6565   21.9579 C   0  0  0  0  0  0  0  0  0  0  0  0
    4.8818    8.9781   21.4636 C   0  0  0  0  0  0  0  0  0  0  0  0
    4.9892    7.8727   20.6519 C   0  0  0  0  0  0  0  0  0  0  0  0
    2.0677    2.5266   12.5605 C   0  0  0  0  0  0  0  0  0  0  0  0
    1.5428    1.8493   13.6086 C   0  0  0  0  0  0  0  0  0  0  0  0
    2.0309    2.1042   14.8689 C   0  0  0  0  0  0  0  0  0  0  0  0
    3.0386    3.0205   15.0434 C   0  0  0  0  0  0  0  0  0  0  0  0
    3.5852    3.7093   13.9951 C   0  0  0  0  0  0  0  0  0  0  0  0
    3.0826    3.4508   12.7567 C   0  0  0  0  0  0  0  0  0  0  0  0
    0.4865    2.0139    8.7499 C   0  0  0  0  0  0  0  0  0  0  0  0
    1.0114    3.2384    9.0438 C   0  0  0  0  0  0  0  0  0  0  0  0
    1.5745    3.3850   10.3242 C   0  0  0  0  0  0  0  0  0  0  0  0
    1.5777    2.3300   11.2065 C   0  0  0  0  0  0  0  0  0  0  0  0
    1.0417    1.1092   10.8557 C   0  0  0  0  0  0  0  0  0  0  0  0
    0.4848    0.9609    9.5853 C   0  0  0  0  0  0  0  0  0  0  0  0
   -0.3390    1.8974    7.4733 C   0  0  0  0  0  0  0  0  0  0  0  0
    0.2691    2.6323    6.5218 F   0  0  0  0  0  0  0  0  0  0  0  0
   -0.6103    0.6030    7.1904 F   0  0  0  0  0  0  0  0  0  0  0  0
   -3.0510    2.4130    6.7895 O   0  0  0  0  0  0  0  0  0  0  0  0
   -1.9277    2.6795    8.0338 P   0  0  0  0  0  0  0  0  0  0  0  0
   -2.3886    1.8289    9.4308 O   0  0  0  0  0  0  0  0  0  0  0  0
   -1.7627    4.1093    8.3005 O   0  0  0  0  0  0  0  0  0  0  0  0
   -3.4913    1.5243    6.9088 H   0  0  0  0  0  0  0  0  0  0  0  0
   -3.2785    1.4023    9.3312 H   0  0  0  0  0  0  0  0  0  0  0  0
 38 39  1  0  0  0
 39 40  1  0  0  0
 39 41  2  0  0  0
 39 35  1  0  0  0
 35 36  1  0  0  0
 35 37  1  0  0  0
 35 29  1  0  0  0
 29 30  2  0  0  0
 30 31  1  0  0  0
 31 32  2  0  0  0
 32 33  1  0  0  0
 33 34  2  0  0  0
 32 23  1  0  0  0
 23 24  2  0  0  0
 24 25  1  0  0  0
 25 26  2  0  0  0
 26 27  1  0  0  0
 27 28  2  0  0  0
 26  1  1  0  0  0
  1  2  2  0  0  0
  2  3  1  0  0  0
  3  4  2  0  0  0
  4  5  1  0  0  0
  5  6  2  0  0  0
  4  7  1  0  0  0
  7  8  2  0  0  0
  8 16  1  0  0  0
 16 17  1  0  0  0
 17 18  2  0  0  0
 18 19  1  0  0  0
 19 20  2  0  0  0
 20 21  1  0  0  0
 21 22  2  0  0  0
  8  9  1  0  0  0
  9 10  1  0  0  0
 10 11  2  0  0  0
 11 12  1  0  0  0
 12 13  2  0  0  0
 13 14  1  0  0  0
 14 15  2  0  0  0
 34 29  1  0  0  0
 28 23  1  0  0  0
  6  1  1  0  0  0
 15  7  1  0  0  0
 22 17  1  0  0  0
 15 10  1  0  0  0
 38 42  1  0  0  0
 40 43  1  0  0  0
M  END
> <minimizedAffinity>
-9.56904

> <CNNscore>
0.2454284132

> <CNNaffinity>
6.2629098892

> <CNN_VS>
1.5370960236

> <CNNaffinity_variance>
0.4500010014

$$$$
[H]OP(=O)(O[H])C(F)(F)c1c([H])c([H])c(-c2c([H])c([H])c(-c3c([H])c([H])c(-c4c(C([H])([H])c5c([H])c([H])c([H])c([H])c5[H])sc5c([H])c([H])c([H])c([H])c45)c([H])c3[H])c([H])c2[H])c([H])c1[H]


 43 48  0  0  0  0  0  0  0  0999 V2000
    2.6392    2.3654   12.9593 C   0  0  0  0  0  0  0  0  0  0  0  0
    1.3992    1.7877   12.7017 C   0  0  0  0  0  0  0  0  0  0  0  0
    0.9997    1.7488   11.3622 C   0  0  0  0  0  0  0  0  0  0  0  0
    1.7831    2.2541   10.3483 C   0  0  0  0  0  0  0  0  0  0  0  0
    2.9753    2.8111   10.6485 C   0  0  0  0  0  0  0  0  0  0  0  0
    3.4339    2.8797   11.9589 C   0  0  0  0  0  0  0  0  0  0  0  0
    1.2657    2.1358    8.9732 C   0  0  0  0  0  0  0  0  0  0  0  0
    1.4044    0.9531    8.3391 C   0  0  0  0  0  0  0  0  0  0  0  0
    0.7889    1.2578    6.7732 S   0  0  0  0  0  0  0  0  0  0  0  0
    0.3726    2.9009    6.9759 C   0  0  0  0  0  0  0  0  0  0  0  0
   -0.2162    3.8299    6.1172 C   0  0  0  0  0  0  0  0  0  0  0  0
   -0.4814    5.1311    6.5848 C   0  0  0  0  0  0  0  0  0  0  0  0
   -0.1342    5.3505    7.8680 C   0  0  0  0  0  0  0  0  0  0  0  0
    0.4435    4.4851    8.7257 C   0  0  0  0  0  0  0  0  0  0  0  0
    0.7296    3.1541    8.2794 C   0  0  0  0  0  0  0  0  0  0  0  0
    1.9761   -0.3782    8.8215 C   0  0  0  0  0  0  0  0  0  0  0  0
    3.4790   -0.1800    8.8005 C   0  0  0  0  0  0  0  0  0  0  0  0
    4.0962    0.3978    7.7370 C   0  0  0  0  0  0  0  0  0  0  0  0
    5.4989    0.4729    7.6883 C   0  0  0  0  0  0  0  0  0  0  0  0
    6.2708   -0.0316    8.7016 C   0  0  0  0  0  0  0  0  0  0  0  0
    5.5998   -0.6113    9.7674 C   0  0  0  0  0  0  0  0  0  0  0  0
    4.2279   -0.6906    9.8294 C   0  0  0  0  0  0  0  0  0  0  0  0
    3.8387    2.4563   16.9368 C   0  0  0  0  0  0  0  0  0  0  0  0
    3.0870    1.4199   16.4968 C   0  0  0  0  0  0  0  0  0  0  0  0
    2.6848    1.4093   15.1816 C   0  0  0  0  0  0  0  0  0  0  0  0
    3.0357    2.4418   14.3471 C   0  0  0  0  0  0  0  0  0  0  0  0
    3.7893    3.5001   14.7763 C   0  0  0  0  0  0  0  0  0  0  0  0
    4.1861    3.4884   16.0784 C   0  0  0  0  0  0  0  0  0  0  0  0
    5.4108    2.6007   20.7828 C   0  0  0  0  0  0  0  0  0  0  0  0
    5.2522    3.7897   20.1327 C   0  0  0  0  0  0  0  0  0  0  0  0
    4.6861    3.7272   18.8468 C   0  0  0  0  0  0  0  0  0  0  0  0
    4.3244    2.5158   18.3052 C   0  0  0  0  0  0  0  0  0  0  0  0
    4.4979    1.3431   19.0090 C   0  0  0  0  0  0  0  0  0  0  0  0
    5.0571    1.4030   20.2857 C   0  0  0  0  0  0  0  0  0  0  0  0
    6.2359    2.6117   22.0649 C   0  0  0  0  0  0  0  0  0  0  0  0
    6.8267    1.4068   22.1841 F   0  0  0  0  0  0  0  0  0  0  0  0
    7.0263    3.7078   22.1207 F   0  0  0  0  0  0  0  0  0  0  0  0
    5.4759    2.1797   24.7711 O   0  0  0  0  0  0  0  0  0  0  0  0
    4.8895    2.8436   23.3231 P   0  0  0  0  0  0  0  0  0  0  0  0
    4.6986    4.5244   23.4847 O   0  0  0  0  0  0  0  0  0  0  0  0
    3.6443    2.1947   22.9095 O   0  0  0  0  0  0  0  0  0  0  0  0
    6.0075    2.8617   25.2711 H   0  0  0  0  0  0  0  0  0  0  0  0
    4.8594    4.8304   24.4143 H   0  0  0  0  0  0  0  0  0  0  0  0
 38 39  1  0  0  0
 39 40  1  0  0  0
 39 41  2  0  0  0
 39 35  1  0  0  0
 35 36  1  0  0  0
 35 37  1  0  0  0
 35 29  1  0  0  0
 29 30  2  0  0  0
 30 31  1  0  0  0
 31 32  2  0  0  0
 32 33  1  0  0  0
 33 34  2  0  0  0
 32 23  1  0  0  0
 23 24  2  0  0  0
 24 25  1  0  0  0
 25 26  2  0  0  0
 26 27  1  0  0  0
 27 28  2  0  0  0
 26  1  1  0  0  0
  1  2  2  0  0  0
  2  3  1  0  0  0
  3  4  2  0  0  0
  4  5  1  0  0  0
  5  6  2  0  0  0
  4  7  1  0  0  0
  7  8  2  0  0  0
  8 16  1  0  0  0
 16 17  1  0  0  0
 17 18  2  0  0  0
 18 19  1  0  0  0
 19 20  2  0  0  0
 20 21  1  0  0  0
 21 22  2  0  0  0
  8  9  1  0  0  0
  9 10  1  0  0  0
 10 11  2  0  0  0
 11 12  1  0  0  0
 12 13  2  0  0  0
 13 14  1  0  0  0
 14 15  2  0  0  0
 34 29  1  0  0  0
 28 23  1  0  0  0
  6  1  1  0  0  0
 15  7  1  0  0  0
 22 17  1  0  0  0
 15 10  1  0  0  0
 38 42  1  0  0  0
 40 43  1  0  0  0
M  END
> <minimizedAffinity>
-9.87642

> <CNNscore>
0.2445294857

> <CNNaffinity>
6.2038412094

> <CNN_VS>
1.5170221329

> <CNNaffinity_variance>
0.4342691302

$$$$
[H]OP(=O)(O[H])C(F)(F)c1c([H])c([H])c(-c2c([H])c([H])c(-c3c([H])c([H])c(-c4c(C([H])([H])c5c([H])c([H])c([H])c([H])c5[H])sc5c([H])c([H])c([H])c([H])c45)c([H])c3[H])c([H])c2[H])c([H])c1[H]


 43 48  0  0  0  0  0  0  0  0999 V2000
    2.7328    2.6108   12.8675 C   0  0  0  0  0  0  0  0  0  0  0  0
    1.6978    1.7870   12.4343 C   0  0  0  0  0  0  0  0  0  0  0  0
    1.3448    1.8921   11.0853 C   0  0  0  0  0  0  0  0  0  0  0  0
    1.9798    2.7621   10.2268 C   0  0  0  0  0  0  0  0  0  0  0  0
    2.9737    3.5460   10.6952 C   0  0  0  0  0  0  0  0  0  0  0  0
    3.3761    3.4898   12.0245 C   0  0  0  0  0  0  0  0  0  0  0  0
    1.5353    2.7678    8.8215 C   0  0  0  0  0  0  0  0  0  0  0  0
    0.5607    3.6295    8.4642 C   0  0  0  0  0  0  0  0  0  0  0  0
    0.2691    3.2539    6.8219 S   0  0  0  0  0  0  0  0  0  0  0  0
    1.4075    1.9949    6.6400 C   0  0  0  0  0  0  0  0  0  0  0  0
    1.7649    1.2073    5.5451 C   0  0  0  0  0  0  0  0  0  0  0  0
    2.7899    0.2526    5.6864 C   0  0  0  0  0  0  0  0  0  0  0  0
    3.3491    0.2033    6.9112 C   0  0  0  0  0  0  0  0  0  0  0  0
    3.0275    0.9383    7.9951 C   0  0  0  0  0  0  0  0  0  0  0  0
    1.9861    1.9161    7.8850 C   0  0  0  0  0  0  0  0  0  0  0  0
   -0.1712    4.7001    9.2706 C   0  0  0  0  0  0  0  0  0  0  0  0
    0.1561    6.0016    8.5655 C   0  0  0  0  0  0  0  0  0  0  0  0
   -0.7965    6.6896    7.8836 C   0  0  0  0  0  0  0  0  0  0  0  0
   -0.4500    7.8347    7.1457 C   0  0  0  0  0  0  0  0  0  0  0  0
    0.8448    8.2797    7.0950 C   0  0  0  0  0  0  0  0  0  0  0  0
    1.7839    7.5484    7.8060 C   0  0  0  0  0  0  0  0  0  0  0  0
    1.4593    6.4271    8.5336 C   0  0  0  0  0  0  0  0  0  0  0  0
    3.6553    2.5142   16.9180 C   0  0  0  0  0  0  0  0  0  0  0  0
    4.1333    3.5254   16.1553 C   0  0  0  0  0  0  0  0  0  0  0  0
    3.8323    3.5377   14.8134 C   0  0  0  0  0  0  0  0  0  0  0  0
    3.0719    2.5315   14.2702 C   0  0  0  0  0  0  0  0  0  0  0  0
    2.5860    1.4986   15.0246 C   0  0  0  0  0  0  0  0  0  0  0  0
    2.8861    1.5086   16.3523 C   0  0  0  0  0  0  0  0  0  0  0  0
    4.1863    2.3753   21.0390 C   0  0  0  0  0  0  0  0  0  0  0  0
    3.9879    1.1868   20.3990 C   0  0  0  0  0  0  0  0  0  0  0  0
    3.8458    1.2470   19.0011 C   0  0  0  0  0  0  0  0  0  0  0  0
    3.9082    2.4557   18.3479 C   0  0  0  0  0  0  0  0  0  0  0  0
    4.1199    3.6279   19.0421 C   0  0  0  0  0  0  0  0  0  0  0  0
    4.2635    3.5702   20.4285 C   0  0  0  0  0  0  0  0  0  0  0  0
    4.1020    2.3698   22.5614 C   0  0  0  0  0  0  0  0  0  0  0  0
    3.4308    3.4749   22.9401 F   0  0  0  0  0  0  0  0  0  0  0  0
    3.6559    1.1766   23.0157 F   0  0  0  0  0  0  0  0  0  0  0  0
    6.3436    4.1062   22.7813 O   0  0  0  0  0  0  0  0  0  0  0  0
    5.9051    2.4801   22.9932 P   0  0  0  0  0  0  0  0  0  0  0  0
    6.0094    2.0548   24.6351 O   0  0  0  0  0  0  0  0  0  0  0  0
    6.7179    1.5991   22.1531 O   0  0  0  0  0  0  0  0  0  0  0  0
    6.1522    4.6247   23.6133 H   0  0  0  0  0  0  0  0  0  0  0  0
    6.4013    2.7815   25.1845 H   0  0  0  0  0  0  0  0  0  0  0  0
 38 39  1  0  0  0
 39 40  1  0  0  0
 39 41  2  0  0  0
 39 35  1  0  0  0
 35 36  1  0  0  0
 35 37  1  0  0  0
 35 29  1  0  0  0
 29 30  2  0  0  0
 30 31  1  0  0  0
 31 32  2  0  0  0
 32 33  1  0  0  0
 33 34  2  0  0  0
 32 23  1  0  0  0
 23 24  2  0  0  0
 24 25  1  0  0  0
 25 26  2  0  0  0
 26 27  1  0  0  0
 27 28  2  0  0  0
 26  1  1  0  0  0
  1  2  2  0  0  0
  2  3  1  0  0  0
  3  4  2  0  0  0
  4  5  1  0  0  0
  5  6  2  0  0  0
  4  7  1  0  0  0
  7  8  2  0  0  0
  8 16  1  0  0  0
 16 17  1  0  0  0
 17 18  2  0  0  0
 18 19  1  0  0  0
 19 20  2  0  0  0
 20 21  1  0  0  0
 21 22  2  0  0  0
  8  9  1  0  0  0
  9 10  1  0  0  0
 10 11  2  0  0  0
 11 12  1  0  0  0
 12 13  2  0  0  0
 13 14  1  0  0  0
 14 15  2  0  0  0
 34 29  1  0  0  0
 28 23  1  0  0  0
  6  1  1  0  0  0
 15  7  1  0  0  0
 22 17  1  0  0  0
 15 10  1  0  0  0
 38 42  1  0  0  0
 40 43  1  0  0  0
M  END
> <minimizedAffinity>
-8.70059

> <CNNscore>
0.2402199358

> <CNNaffinity>
6.1680068970

> <CNN_VS>
1.4816782475

> <CNNaffinity_variance>
0.4184641242

$$$$
[H]c1nc2c([H])c(OC([H])([H])C([H])([H])C([H])([H])N3C([H])([H])C([H])([H])C([H])([H])C3([H])[H])c(OC([H])([H])[H])c([H])c2c(Oc2c([H])c([H])c(N([H])C(=O)C3(C(=O)N([H])c4c([H])c([H])c(F)c([H])c4[H])C([H])([H])C3([H])[H])c([H])c2F)c1[H]


 47 52  0  0  0  0  0  0  0  0999 V2000
    3.1318    2.2885   15.0481 C   0  0  0  0  0  0  0  0  0  0  0  0
    2.0290    1.6181   14.5362 C   0  0  0  0  0  0  0  0  0  0  0  0
    1.1202    2.2818   13.6971 C   0  0  0  0  0  0  0  0  0  0  0  0
    1.2750    3.6007   13.3500 C   0  0  0  0  0  0  0  0  0  0  0  0
    2.3939    4.2640   13.8737 C   0  0  0  0  0  0  0  0  0  0  0  0
    3.2795    3.6141   14.6910 C   0  0  0  0  0  0  0  0  0  0  0  0
    4.3764    4.2921   15.1570 F   0  0  0  0  0  0  0  0  0  0  0  0
    0.3787    4.3287   12.5407 N   0  0  0  0  0  0  0  0  0  0  0  0
    0.3392    4.2125   11.1601 C   0  0  0  0  0  0  0  0  0  0  0  0
    1.1448    3.3920   10.5898 O   0  0  0  0  0  0  0  0  0  0  0  0
   -0.2693    4.9734   13.0880 H   0  0  0  0  0  0  0  0  0  0  0  0
   -0.5480    4.9381   10.2079 C   0  0  0  0  0  0  0  0  0  0  0  0
    0.1464    6.2305    9.7139 C   0  0  0  0  0  0  0  0  0  0  0  0
   -0.2014    5.0651    8.7981 C   0  0  0  0  0  0  0  0  0  0  0  0
   -1.9626    5.2286   10.6260 C   0  0  0  0  0  0  0  0  0  0  0  0
   -2.1209    5.7962   11.7544 O   0  0  0  0  0  0  0  0  0  0  0  0
   -3.0421    4.8801    9.7942 N   0  0  0  0  0  0  0  0  0  0  0  0
   -2.7663    4.3946    8.8792 H   0  0  0  0  0  0  0  0  0  0  0  0
   -4.4270    5.0769   10.0111 C   0  0  0  0  0  0  0  0  0  0  0  0
   -5.0625    6.2454    9.7797 C   0  0  0  0  0  0  0  0  0  0  0  0
   -6.4365    6.4261   10.0084 C   0  0  0  0  0  0  0  0  0  0  0  0
   -7.1601    5.3708   10.4859 C   0  0  0  0  0  0  0  0  0  0  0  0
   -8.4884    5.4793   10.7276 F   0  0  0  0  0  0  0  0  0  0  0  0
   -6.5282    4.1583   10.7314 C   0  0  0  0  0  0  0  0  0  0  0  0
   -5.2010    4.0192   10.4997 C   0  0  0  0  0  0  0  0  0  0  0  0
    3.9898    1.5855   15.8639 O   0  0  0  0  0  0  0  0  0  0  0  0
    5.2039    3.7320   19.1072 C   0  0  0  0  0  0  0  0  0  0  0  0
    4.7886    2.9984   18.0185 C   0  0  0  0  0  0  0  0  0  0  0  0
    4.0526    1.8478   18.2038 C   0  0  0  0  0  0  0  0  0  0  0  0
    3.6282    1.0954   17.0910 C   0  0  0  0  0  0  0  0  0  0  0  0
    2.8989   -0.0494   17.2610 C   0  0  0  0  0  0  0  0  0  0  0  0
    2.5798   -0.4613   18.5590 C   0  0  0  0  0  0  0  0  0  0  0  0
    2.9739    0.2412   19.6328 N   0  0  0  0  0  0  0  0  0  0  0  0
    3.7005    1.3796   19.4486 C   0  0  0  0  0  0  0  0  0  0  0  0
    4.1216    2.1230   20.5479 C   0  0  0  0  0  0  0  0  0  0  0  0
    4.8558    3.2715   20.3782 C   0  0  0  0  0  0  0  0  0  0  0  0
    5.9778    5.5903   17.7381 C   0  0  0  0  0  0  0  0  0  0  0  0
    5.9537    4.9075   18.9759 O   0  0  0  0  0  0  0  0  0  0  0  0
    5.2676    4.0002   21.4816 O   0  0  0  0  0  0  0  0  0  0  0  0
    6.4597    3.8017   22.1822 C   0  0  0  0  0  0  0  0  0  0  0  0
    7.1851    5.1426   22.2212 C   0  0  0  0  0  0  0  0  0  0  0  0
    6.2170    6.2844   22.2188 C   0  0  0  0  0  0  0  0  0  0  0  0
    6.6494    7.4116   21.4320 N   0  0  0  0  0  0  0  0  0  0  0  0
    5.4819    7.9606   20.7530 C   0  0  0  0  0  0  0  0  0  0  0  0
    5.0156    9.1136   21.5833 C   0  0  0  0  0  0  0  0  0  0  0  0
    6.0536    9.3656   22.6256 C   0  0  0  0  0  0  0  0  0  0  0  0
    7.2062    8.4833   22.1919 C   0  0  0  0  0  0  0  0  0  0  0  0
 37 38  1  0  0  0
 38 27  1  0  0  0
 27 28  2  0  0  0
 28 29  1  0  0  0
 29 30  2  0  0  0
 30 26  1  0  0  0
 26  1  1  0  0  0
  1  2  2  0  0  0
  2  3  1  0  0  0
  3  4  2  0  0  0
  4  8  1  0  0  0
  8  9  1  0  0  0
  9 10  2  0  0  0
  9 12  1  0  0  0
 12 13  1  0  0  0
 13 14  1  0  0  0
 12 15  1  0  0  0
 15 16  2  0  0  0
 15 17  1  0  0  0
 17 19  1  0  0  0
 19 20  2  0  0  0
 20 21  1  0  0  0
 21 22  2  0  0  0
 22 23  1  0  0  0
 22 24  1  0  0  0
 24 25  2  0  0  0
  4  5  1  0  0  0
  5  6  2  0  0  0
  6  7  1  0  0  0
 30 31  1  0  0  0
 31 32  2  0  0  0
 32 33  1  0  0  0
 33 34  2  0  0  0
 34 35  1  0  0  0
 35 36  2  0  0  0
 36 39  1  0  0  0
 39 40  1  0  0  0
 40 41  1  0  0  0
 41 42  1  0  0  0
 42 43  1  0  0  0
 43 44  1  0  0  0
 44 45  1  0  0  0
 45 46  1  0  0  0
 46 47  1  0  0  0
 36 27  1  0  0  0
 47 43  1  0  0  0
 34 29  1  0  0  0
  6  1  1  0  0  0
 14 12  1  0  0  0
 25 19  1  0  0  0
  8 11  1  0  0  0
 17 18  1  0  0  0
M  END
> <minimizedAffinity>
-9.07005

> <CNNscore>
0.2185510844

> <CNNaffinity>
6.6594939232

> <CNN_VS>
1.4554395676

> <CNNaffinity_variance>
0.2705822587

$$$$
[H]c1nc2c([H])c(OC([H])([H])C([H])([H])C([H])([H])N3C([H])([H])C([H])([H])C([H])([H])C3([H])[H])c(OC([H])([H])[H])c([H])c2c(Oc2c([H])c([H])c(N([H])C(=O)C3(C(=O)N([H])c4c([H])c([H])c(F)c([H])c4[H])C([H])([H])C3([H])[H])c([H])c2F)c1[H]


 47 52  0  0  0  0  0  0  0  0999 V2000
    2.3618    4.6012   13.5499 C   0  0  0  0  0  0  0  0  0  0  0  0
    1.7225    5.7869   13.2140 C   0  0  0  0  0  0  0  0  0  0  0  0
    0.4602    5.7647   12.6002 C   0  0  0  0  0  0  0  0  0  0  0  0
   -0.1895    4.5916   12.3075 C   0  0  0  0  0  0  0  0  0  0  0  0
    0.4680    3.4025   12.6537 C   0  0  0  0  0  0  0  0  0  0  0  0
    1.6987    3.4269   13.2533 C   0  0  0  0  0  0  0  0  0  0  0  0
    2.2930    2.2416   13.6023 F   0  0  0  0  0  0  0  0  0  0  0  0
   -1.4403    4.5057   11.6621 N   0  0  0  0  0  0  0  0  0  0  0  0
   -2.4811    5.3878   11.9067 C   0  0  0  0  0  0  0  0  0  0  0  0
   -2.2949    6.3386   12.7486 O   0  0  0  0  0  0  0  0  0  0  0  0
   -1.5109    3.7032   10.9650 H   0  0  0  0  0  0  0  0  0  0  0  0
   -3.8421    5.3845   11.3002 C   0  0  0  0  0  0  0  0  0  0  0  0
   -4.5042    3.9977   11.4873 C   0  0  0  0  0  0  0  0  0  0  0  0
   -5.0378    5.2726   12.1258 C   0  0  0  0  0  0  0  0  0  0  0  0
   -3.9947    5.8522    9.8796 C   0  0  0  0  0  0  0  0  0  0  0  0
   -2.9765    5.7325    9.1251 O   0  0  0  0  0  0  0  0  0  0  0  0
   -5.2128    6.3929    9.4295 N   0  0  0  0  0  0  0  0  0  0  0  0
   -5.9823    6.4486   10.1736 H   0  0  0  0  0  0  0  0  0  0  0  0
   -5.5456    6.8749    8.1409 C   0  0  0  0  0  0  0  0  0  0  0  0
   -5.3147    8.1409    7.7323 C   0  0  0  0  0  0  0  0  0  0  0  0
   -5.6590    8.6054    6.4523 C   0  0  0  0  0  0  0  0  0  0  0  0
   -6.2539    7.7354    5.5837 C   0  0  0  0  0  0  0  0  0  0  0  0
   -6.6108    8.1203    4.3350 F   0  0  0  0  0  0  0  0  0  0  0  0
   -6.5015    6.4276    5.9812 C   0  0  0  0  0  0  0  0  0  0  0  0
   -6.1563    6.0133    7.2237 C   0  0  0  0  0  0  0  0  0  0  0  0
    3.5973    4.6852   14.1517 O   0  0  0  0  0  0  0  0  0  0  0  0
    3.8816    2.2746   17.4241 C   0  0  0  0  0  0  0  0  0  0  0  0
    3.7868    3.0989   16.3253 C   0  0  0  0  0  0  0  0  0  0  0  0
    3.9060    4.4638   16.4763 C   0  0  0  0  0  0  0  0  0  0  0  0
    3.8078    5.3086   15.3532 C   0  0  0  0  0  0  0  0  0  0  0  0
    3.9224    6.6650   15.4894 C   0  0  0  0  0  0  0  0  0  0  0  0
    4.1399    7.2007   16.7630 C   0  0  0  0  0  0  0  0  0  0  0  0
    4.2371    6.4134   17.8460 N   0  0  0  0  0  0  0  0  0  0  0  0
    4.1203    5.0638   17.6956 C   0  0  0  0  0  0  0  0  0  0  0  0
    4.2158    4.2282   18.8051 C   0  0  0  0  0  0  0  0  0  0  0  0
    4.0988    2.8663   18.6696 C   0  0  0  0  0  0  0  0  0  0  0  0
    2.6742    0.3137   16.6341 C   0  0  0  0  0  0  0  0  0  0  0  0
    3.7675    0.8821   17.3274 O   0  0  0  0  0  0  0  0  0  0  0  0
    4.1959    2.0482   19.7828 O   0  0  0  0  0  0  0  0  0  0  0  0
    5.3037    1.2654   20.1164 C   0  0  0  0  0  0  0  0  0  0  0  0
    5.4679    1.3434   21.6306 C   0  0  0  0  0  0  0  0  0  0  0  0
    4.2850    1.9989   22.2724 C   0  0  0  0  0  0  0  0  0  0  0  0
    4.6330    2.9607   23.2874 N   0  0  0  0  0  0  0  0  0  0  0  0
    5.8565    3.6340   22.8687 C   0  0  0  0  0  0  0  0  0  0  0  0
    5.4331    4.9199   22.2334 C   0  0  0  0  0  0  0  0  0  0  0  0
    3.9723    5.0877   22.4893 C   0  0  0  0  0  0  0  0  0  0  0  0
    3.6629    3.9883   23.4845 C   0  0  0  0  0  0  0  0  0  0  0  0
 37 38  1  0  0  0
 38 27  1  0  0  0
 27 28  2  0  0  0
 28 29  1  0  0  0
 29 30  2  0  0  0
 30 26  1  0  0  0
 26  1  1  0  0  0
  1  2  2  0  0  0
  2  3  1  0  0  0
  3  4  2  0  0  0
  4  8  1  0  0  0
  8  9  1  0  0  0
  9 10  2  0  0  0
  9 12  1  0  0  0
 12 13  1  0  0  0
 13 14  1  0  0  0
 12 15  1  0  0  0
 15 16  2  0  0  0
 15 17  1  0  0  0
 17 19  1  0  0  0
 19 20  2  0  0  0
 20 21  1  0  0  0
 21 22  2  0  0  0
 22 23  1  0  0  0
 22 24  1  0  0  0
 24 25  2  0  0  0
  4  5  1  0  0  0
  5  6  2  0  0  0
  6  7  1  0  0  0
 30 31  1  0  0  0
 31 32  2  0  0  0
 32 33  1  0  0  0
 33 34  2  0  0  0
 34 35  1  0  0  0
 35 36  2  0  0  0
 36 39  1  0  0  0
 39 40  1  0  0  0
 40 41  1  0  0  0
 41 42  1  0  0  0
 42 43  1  0  0  0
 43 44  1  0  0  0
 44 45  1  0  0  0
 45 46  1  0  0  0
 46 47  1  0  0  0
 36 27  1  0  0  0
 47 43  1  0  0  0
 34 29  1  0  0  0
  6  1  1  0  0  0
 14 12  1  0  0  0
 25 19  1  0  0  0
  8 11  1  0  0  0
 17 18  1  0  0  0
M  END
> <minimizedAffinity>
-8.70363

> <CNNscore>
0.1825601161

> <CNNaffinity>
6.6395363808

> <CNN_VS>
1.2121145725

> <CNNaffinity_variance>
0.1538449079

$$$$
[H]c1nc2c([H])c(OC([H])([H])C([H])([H])C([H])([H])N3C([H])([H])C([H])([H])C([H])([H])C3([H])[H])c(OC([H])([H])[H])c([H])c2c(Oc2c([H])c([H])c(N([H])C(=O)C3(C(=O)N([H])c4c([H])c([H])c(F)c([H])c4[H])C([H])([H])C3([H])[H])c([H])c2F)c1[H]


 47 52  0  0  0  0  0  0  0  0999 V2000
    3.7659    9.4862   16.5193 C   0  0  0  0  0  0  0  0  0  0  0  0
    3.3463   10.2568   15.4434 C   0  0  0  0  0  0  0  0  0  0  0  0
    3.6032    9.8402   14.1276 C   0  0  0  0  0  0  0  0  0  0  0  0
    4.2701    8.6737   13.8475 C   0  0  0  0  0  0  0  0  0  0  0  0
    4.6865    7.9057   14.9442 C   0  0  0  0  0  0  0  0  0  0  0  0
    4.4337    8.3136   16.2266 C   0  0  0  0  0  0  0  0  0  0  0  0
    4.8322    7.5175   17.2694 F   0  0  0  0  0  0  0  0  0  0  0  0
    4.5869    8.2215   12.5500 N   0  0  0  0  0  0  0  0  0  0  0  0
    3.7060    7.4941   11.7652 C   0  0  0  0  0  0  0  0  0  0  0  0
    2.5398    7.2318   12.2330 O   0  0  0  0  0  0  0  0  0  0  0  0
    5.5644    8.4942   12.2256 H   0  0  0  0  0  0  0  0  0  0  0  0
    3.9359    6.9537   10.3957 C   0  0  0  0  0  0  0  0  0  0  0  0
    4.2871    5.4478   10.4703 C   0  0  0  0  0  0  0  0  0  0  0  0
    3.0264    5.9810    9.8039 C   0  0  0  0  0  0  0  0  0  0  0  0
    4.8993    7.6738    9.4936 C   0  0  0  0  0  0  0  0  0  0  0  0
    5.9646    8.1172   10.0313 O   0  0  0  0  0  0  0  0  0  0  0  0
    4.6151    7.8378    8.1259 N   0  0  0  0  0  0  0  0  0  0  0  0
    3.6765    7.4281    7.8093 H   0  0  0  0  0  0  0  0  0  0  0  0
    5.3938    8.4735    7.1293 C   0  0  0  0  0  0  0  0  0  0  0  0
    6.1855    7.8091    6.2605 C   0  0  0  0  0  0  0  0  0  0  0  0
    6.9585    8.4564    5.2827 C   0  0  0  0  0  0  0  0  0  0  0  0
    6.9051    9.8191    5.2091 C   0  0  0  0  0  0  0  0  0  0  0  0
    7.6260   10.5037    4.2893 F   0  0  0  0  0  0  0  0  0  0  0  0
    6.0975   10.5247    6.0921 C   0  0  0  0  0  0  0  0  0  0  0  0
    5.3651    9.8680    7.0232 C   0  0  0  0  0  0  0  0  0  0  0  0
    3.4838    9.9442   17.7867 O   0  0  0  0  0  0  0  0  0  0  0  0
    5.0727    8.3310   21.1740 C   0  0  0  0  0  0  0  0  0  0  0  0
    4.5414    8.8865   20.0316 C   0  0  0  0  0  0  0  0  0  0  0  0
    4.8776   10.1740   19.6716 C   0  0  0  0  0  0  0  0  0  0  0  0
    4.3337   10.7442   18.5038 C   0  0  0  0  0  0  0  0  0  0  0  0
    4.6575   12.0214   18.1361 C   0  0  0  0  0  0  0  0  0  0  0  0
    5.5392   12.7531   18.9383 C   0  0  0  0  0  0  0  0  0  0  0  0
    6.0690   12.2283   20.0546 N   0  0  0  0  0  0  0  0  0  0  0  0
    5.7370   10.9548   20.4093 C   0  0  0  0  0  0  0  0  0  0  0  0
    6.2728   10.3910   21.5640 C   0  0  0  0  0  0  0  0  0  0  0  0
    5.9466    9.1093   21.9351 C   0  0  0  0  0  0  0  0  0  0  0  0
    5.5725    5.9484   21.1619 C   0  0  0  0  0  0  0  0  0  0  0  0
    4.7647    7.0285   21.5862 O   0  0  0  0  0  0  0  0  0  0  0  0
    6.4877    8.5623   23.0866 O   0  0  0  0  0  0  0  0  0  0  0  0
    7.8509    8.3810   23.3320 C   0  0  0  0  0  0  0  0  0  0  0  0
    8.0713    8.6055   24.8243 C   0  0  0  0  0  0  0  0  0  0  0  0
    8.2839   10.0553   25.1302 C   0  0  0  0  0  0  0  0  0  0  0  0
    9.1061   10.7388   24.1642 N   0  0  0  0  0  0  0  0  0  0  0  0
    8.5848   12.0911   24.0062 C   0  0  0  0  0  0  0  0  0  0  0  0
    9.4219   12.9698   24.8801 C   0  0  0  0  0  0  0  0  0  0  0  0
   10.5706   12.1527   25.3699 C   0  0  0  0  0  0  0  0  0  0  0  0
   10.4726   10.8834   24.5488 C   0  0  0  0  0  0  0  0  0  0  0  0
 37 38  1  0  0  0
 38 27  1  0  0  0
 27 28  2  0  0  0
 28 29  1  0  0  0
 29 30  2  0  0  0
 30 26  1  0  0  0
 26  1  1  0  0  0
  1  2  2  0  0  0
  2  3  1  0  0  0
  3  4  2  0  0  0
  4  8  1  0  0  0
  8  9  1  0  0  0
  9 10  2  0  0  0
  9 12  1  0  0  0
 12 13  1  0  0  0
 13 14  1  0  0  0
 12 15  1  0  0  0
 15 16  2  0  0  0
 15 17  1  0  0  0
 17 19  1  0  0  0
 19 20  2  0  0  0
 20 21  1  0  0  0
 21 22  2  0  0  0
 22 23  1  0  0  0
 22 24  1  0  0  0
 24 25  2  0  0  0
  4  5  1  0  0  0
  5  6  2  0  0  0
  6  7  1  0  0  0
 30 31  1  0  0  0
 31 32  2  0  0  0
 32 33  1  0  0  0
 33 34  2  0  0  0
 34 35  1  0  0  0
 35 36  2  0  0  0
 36 39  1  0  0  0
 39 40  1  0  0  0
 40 41  1  0  0  0
 41 42  1  0  0  0
 42 43  1  0  0  0
 43 44  1  0  0  0
 44 45  1  0  0  0
 45 46  1  0  0  0
 46 47  1  0  0  0
 36 27  1  0  0  0
 47 43  1  0  0  0
 34 29  1  0  0  0
  6  1  1  0  0  0
 14 12  1  0  0  0
 25 19  1  0  0  0
  8 11  1  0  0  0
 17 18  1  0  0  0
M  END
> <minimizedAffinity>
-7.73052

> <CNNscore>
0.1723216921

> <CNNaffinity>
5.6539392471

> <CNN_VS>
0.9742963910

> <CNNaffinity_variance>
0.1947179139

$$$$
[H]c1nc2c([H])c(OC([H])([H])C([H])([H])C([H])([H])N3C([H])([H])C([H])([H])C([H])([H])C3([H])[H])c(OC([H])([H])[H])c([H])c2c(Oc2c([H])c([H])c(N([H])C(=O)C3(C(=O)N([H])c4c([H])c([H])c(F)c([H])c4[H])C([H])([H])C3([H])[H])c([H])c2F)c1[H]


 47 52  0  0  0  0  0  0  0  0999 V2000
    3.8700    2.4829   16.1023 C   0  0  0  0  0  0  0  0  0  0  0  0
    3.9469    3.7340   15.5053 C   0  0  0  0  0  0  0  0  0  0  0  0
    2.9998    4.1226   14.5448 C   0  0  0  0  0  0  0  0  0  0  0  0
    1.9725    3.2992   14.1566 C   0  0  0  0  0  0  0  0  0  0  0  0
    1.9073    2.0396   14.7691 C   0  0  0  0  0  0  0  0  0  0  0  0
    2.8317    1.6633   15.7064 C   0  0  0  0  0  0  0  0  0  0  0  0
    2.7135    0.4341   16.3023 F   0  0  0  0  0  0  0  0  0  0  0  0
    1.0134    3.6203   13.1740 N   0  0  0  0  0  0  0  0  0  0  0  0
    1.1313    3.2383   11.8469 C   0  0  0  0  0  0  0  0  0  0  0  0
    2.1534    2.5456   11.4960 O   0  0  0  0  0  0  0  0  0  0  0  0
    0.1866    4.1798   13.5460 H   0  0  0  0  0  0  0  0  0  0  0  0
    0.1951    3.5323   10.7257 C   0  0  0  0  0  0  0  0  0  0  0  0
    0.9438    4.2654    9.5861 C   0  0  0  0  0  0  0  0  0  0  0  0
    0.3363    2.8781    9.4311 C   0  0  0  0  0  0  0  0  0  0  0  0
   -1.0998    4.2298   11.0375 C   0  0  0  0  0  0  0  0  0  0  0  0
   -1.0584    5.1451   11.9212 O   0  0  0  0  0  0  0  0  0  0  0  0
   -2.2860    3.8705   10.3726 N   0  0  0  0  0  0  0  0  0  0  0  0
   -2.1804    3.0741    9.6631 H   0  0  0  0  0  0  0  0  0  0  0  0
   -3.5853    4.4114   10.5244 C   0  0  0  0  0  0  0  0  0  0  0  0
   -4.5238    3.8872   11.3414 C   0  0  0  0  0  0  0  0  0  0  0  0
   -5.8116    4.4319   11.4740 C   0  0  0  0  0  0  0  0  0  0  0  0
   -6.1262    5.5418   10.7429 C   0  0  0  0  0  0  0  0  0  0  0  0
   -7.3503    6.1157   10.8249 F   0  0  0  0  0  0  0  0  0  0  0  0
   -5.1770    6.0994    9.8957 C   0  0  0  0  0  0  0  0  0  0  0  0
   -3.9442    5.5478    9.7921 C   0  0  0  0  0  0  0  0  0  0  0  0
    4.8255    2.1578   17.0389 O   0  0  0  0  0  0  0  0  0  0  0  0
    5.9886    5.7595   18.5474 C   0  0  0  0  0  0  0  0  0  0  0  0
    5.5925    4.5387   18.0487 C   0  0  0  0  0  0  0  0  0  0  0  0
    5.0561    3.5910   18.8938 C   0  0  0  0  0  0  0  0  0  0  0  0
    4.6517    2.3410   18.3853 C   0  0  0  0  0  0  0  0  0  0  0  0
    4.1197    1.3910   19.2134 C   0  0  0  0  0  0  0  0  0  0  0  0
    3.9823    1.6809   20.5748 C   0  0  0  0  0  0  0  0  0  0  0  0
    4.3609    2.8658   21.0795 N   0  0  0  0  0  0  0  0  0  0  0  0
    4.8900    3.8028   20.2429 C   0  0  0  0  0  0  0  0  0  0  0  0
    5.2913    5.0379   20.7448 C   0  0  0  0  0  0  0  0  0  0  0  0
    5.8276    5.9916   19.9144 C   0  0  0  0  0  0  0  0  0  0  0  0
    5.7425    7.3751   16.7429 C   0  0  0  0  0  0  0  0  0  0  0  0
    6.5397    6.7574   17.7338 O   0  0  0  0  0  0  0  0  0  0  0  0
    6.2223    7.2155   20.4286 O   0  0  0  0  0  0  0  0  0  0  0  0
    5.6157    7.8756   21.4999 C   0  0  0  0  0  0  0  0  0  0  0  0
    6.7342    8.4123   22.3868 C   0  0  0  0  0  0  0  0  0  0  0  0
    7.4442    7.3026   23.0975 C   0  0  0  0  0  0  0  0  0  0  0  0
    8.8144    7.1312   22.6855 N   0  0  0  0  0  0  0  0  0  0  0  0
    9.6155    8.1507   23.3521 C   0  0  0  0  0  0  0  0  0  0  0  0
   10.2188    7.4937   24.5525 C   0  0  0  0  0  0  0  0  0  0  0  0
    9.9416    6.0308   24.4507 C   0  0  0  0  0  0  0  0  0  0  0  0
    9.3878    5.8762   23.0492 C   0  0  0  0  0  0  0  0  0  0  0  0
 37 38  1  0  0  0
 38 27  1  0  0  0
 27 28  2  0  0  0
 28 29  1  0  0  0
 29 30  2  0  0  0
 30 26  1  0  0  0
 26  1  1  0  0  0
  1  2  2  0  0  0
  2  3  1  0  0  0
  3  4  2  0  0  0
  4  8  1  0  0  0
  8  9  1  0  0  0
  9 10  2  0  0  0
  9 12  1  0  0  0
 12 13  1  0  0  0
 13 14  1  0  0  0
 12 15  1  0  0  0
 15 16  2  0  0  0
 15 17  1  0  0  0
 17 19  1  0  0  0
 19 20  2  0  0  0
 20 21  1  0  0  0
 21 22  2  0  0  0
 22 23  1  0  0  0
 22 24  1  0  0  0
 24 25  2  0  0  0
  4  5  1  0  0  0
  5  6  2  0  0  0
  6  7  1  0  0  0
 30 31  1  0  0  0
 31 32  2  0  0  0
 32 33  1  0  0  0
 33 34  2  0  0  0
 34 35  1  0  0  0
 35 36  2  0  0  0
 36 39  1  0  0  0
 39 40  1  0  0  0
 40 41  1  0  0  0
 41 42  1  0  0  0
 42 43  1  0  0  0
 43 44  1  0  0  0
 44 45  1  0  0  0
 45 46  1  0  0  0
 46 47  1  0  0  0
 36 27  1  0  0  0
 47 43  1  0  0  0
 34 29  1  0  0  0
  6  1  1  0  0  0
 14 12  1  0  0  0
 25 19  1  0  0  0
  8 11  1  0  0  0
 17 18  1  0  0  0
M  END
> <minimizedAffinity>
-8.73457

> <CNNscore>
0.1682067961

> <CNNaffinity>
6.5721297264

> <CNN_VS>
1.1054768562

> <CNNaffinity_variance>
0.3356500268

$$$$
[H]c1nc2c([H])c(OC([H])([H])C([H])([H])C([H])([H])N3C([H])([H])C([H])([H])C([H])([H])C3([H])[H])c(OC([H])([H])[H])c([H])c2c(Oc2c([H])c([H])c(N([H])C(=O)C3(C(=O)N([H])c4c([H])c([H])c(F)c([H])c4[H])C([H])([H])C3([H])[H])c([H])c2F)c1[H]


 47 52  0  0  0  0  0  0  0  0999 V2000
    3.9241    2.4545   16.3741 C   0  0  0  0  0  0  0  0  0  0  0  0
    3.8324    3.7282   15.8293 C   0  0  0  0  0  0  0  0  0  0  0  0
    2.8747    4.0122   14.8431 C   0  0  0  0  0  0  0  0  0  0  0  0
    2.0004    3.0617   14.3782 C   0  0  0  0  0  0  0  0  0  0  0  0
    2.1043    1.7806   14.9386 C   0  0  0  0  0  0  0  0  0  0  0  0
    3.0386    1.5064   15.9013 C   0  0  0  0  0  0  0  0  0  0  0  0
    3.0861    0.2481   16.4438 F   0  0  0  0  0  0  0  0  0  0  0  0
    1.0419    3.2782   13.3668 N   0  0  0  0  0  0  0  0  0  0  0  0
    1.3417    3.2227   12.0147 C   0  0  0  0  0  0  0  0  0  0  0  0
    2.5448    2.9455   11.6635 O   0  0  0  0  0  0  0  0  0  0  0  0
    0.0643    3.4839   13.7369 H   0  0  0  0  0  0  0  0  0  0  0  0
    0.4206    3.4484   10.8655 C   0  0  0  0  0  0  0  0  0  0  0  0
    1.1958    4.0657    9.6761 C   0  0  0  0  0  0  0  0  0  0  0  0
    0.5520    2.6869    9.6299 C   0  0  0  0  0  0  0  0  0  0  0  0
   -0.8568    4.2032   11.1084 C   0  0  0  0  0  0  0  0  0  0  0  0
   -0.8161    5.1322   11.9777 O   0  0  0  0  0  0  0  0  0  0  0  0
   -2.0269    3.8797   10.3981 N   0  0  0  0  0  0  0  0  0  0  0  0
   -1.9235    3.0667    9.7073 H   0  0  0  0  0  0  0  0  0  0  0  0
   -3.3082    4.4752   10.4837 C   0  0  0  0  0  0  0  0  0  0  0  0
   -3.6526    5.6076    9.8338 C   0  0  0  0  0  0  0  0  0  0  0  0
   -4.9265    6.1899    9.9364 C   0  0  0  0  0  0  0  0  0  0  0  0
   -5.8572    5.5815   10.7295 C   0  0  0  0  0  0  0  0  0  0  0  0
   -7.1038    6.0919   10.8713 F   0  0  0  0  0  0  0  0  0  0  0  0
   -5.5264    4.4152   11.4078 C   0  0  0  0  0  0  0  0  0  0  0  0
   -4.2878    3.8809   11.2862 C   0  0  0  0  0  0  0  0  0  0  0  0
    4.8813    2.2356   17.3393 O   0  0  0  0  0  0  0  0  0  0  0  0
    5.9035    5.7813   19.0665 C   0  0  0  0  0  0  0  0  0  0  0  0
    5.5546    4.5788   18.4936 C   0  0  0  0  0  0  0  0  0  0  0  0
    4.9926    3.5853   19.2664 C   0  0  0  0  0  0  0  0  0  0  0  0
    4.6364    2.3540   18.6819 C   0  0  0  0  0  0  0  0  0  0  0  0
    4.0797    1.3590   19.4378 C   0  0  0  0  0  0  0  0  0  0  0  0
    3.8685    1.5840   20.8020 C   0  0  0  0  0  0  0  0  0  0  0  0
    4.2002    2.7500   21.3785 N   0  0  0  0  0  0  0  0  0  0  0  0
    4.7547    3.7324   20.6133 C   0  0  0  0  0  0  0  0  0  0  0  0
    5.1084    4.9490   21.1904 C   0  0  0  0  0  0  0  0  0  0  0  0
    5.6694    5.9479   20.4326 C   0  0  0  0  0  0  0  0  0  0  0  0
    5.8782    7.2394   17.1172 C   0  0  0  0  0  0  0  0  0  0  0  0
    6.4777    6.8237   18.3283 O   0  0  0  0  0  0  0  0  0  0  0  0
    6.0161    7.1527   21.0211 O   0  0  0  0  0  0  0  0  0  0  0  0
    5.1156    8.1019   21.5103 C   0  0  0  0  0  0  0  0  0  0  0  0
    5.2483    9.3406   20.6305 C   0  0  0  0  0  0  0  0  0  0  0  0
    4.1290    9.4263   19.6403 C   0  0  0  0  0  0  0  0  0  0  0  0
    4.3710   10.3588   18.5686 N   0  0  0  0  0  0  0  0  0  0  0  0
    3.0896   10.6740   17.9487 C   0  0  0  0  0  0  0  0  0  0  0  0
    2.6354   11.9640   18.5536 C   0  0  0  0  0  0  0  0  0  0  0  0
    3.7679   12.5048   19.3612 C   0  0  0  0  0  0  0  0  0  0  0  0
    4.9271   11.6052   18.9847 C   0  0  0  0  0  0  0  0  0  0  0  0
 37 38  1  0  0  0
 38 27  1  0  0  0
 27 28  2  0  0  0
 28 29  1  0  0  0
 29 30  2  0  0  0
 30 26  1  0  0  0
 26  1  1  0  0  0
  1  2  2  0  0  0
  2  3  1  0  0  0
  3  4  2  0  0  0
  4  8  1  0  0  0
  8  9  1  0  0  0
  9 10  2  0  0  0
  9 12  1  0  0  0
 12 13  1  0  0  0
 13 14  1  0  0  0
 12 15  1  0  0  0
 15 16  2  0  0  0
 15 17  1  0  0  0
 17 19  1  0  0  0
 19 20  2  0  0  0
 20 21  1  0  0  0
 21 22  2  0  0  0
 22 23  1  0  0  0
 22 24  1  0  0  0
 24 25  2  0  0  0
  4  5  1  0  0  0
  5  6  2  0  0  0
  6  7  1  0  0  0
 30 31  1  0  0  0
 31 32  2  0  0  0
 32 33  1  0  0  0
 33 34  2  0  0  0
 34 35  1  0  0  0
 35 36  2  0  0  0
 36 39  1  0  0  0
 39 40  1  0  0  0
 40 41  1  0  0  0
 41 42  1  0  0  0
 42 43  1  0  0  0
 43 44  1  0  0  0
 44 45  1  0  0  0
 45 46  1  0  0  0
 46 47  1  0  0  0
 36 27  1  0  0  0
 47 43  1  0  0  0
 34 29  1  0  0  0
  6  1  1  0  0  0
 14 12  1  0  0  0
 25 19  1  0  0  0
  8 11  1  0  0  0
 17 18  1  0  0  0
M  END
> <minimizedAffinity>
-9.30701

> <CNNscore>
0.1663158238

> <CNNaffinity>
6.6122574806

> <CNN_VS>
1.0997231007

> <CNNaffinity_variance>
0.3732821345

$$$$
[H]c1nc2c([H])c(OC([H])([H])C([H])([H])C([H])([H])N3C([H])([H])C([H])([H])C([H])([H])C3([H])[H])c(OC([H])([H])[H])c([H])c2c(Oc2c([H])c([H])c(N([H])C(=O)C3(C(=O)N([H])c4c([H])c([H])c(F)c([H])c4[H])C([H])([H])C3([H])[H])c([H])c2F)c1[H]


 47 52  0  0  0  0  0  0  0  0999 V2000
    2.8721    3.0707   14.2363 C   0  0  0  0  0  0  0  0  0  0  0  0
    2.3278    2.0355   13.4883 C   0  0  0  0  0  0  0  0  0  0  0  0
    1.1921    2.2543   12.6927 C   0  0  0  0  0  0  0  0  0  0  0  0
    0.5765    3.4788   12.6189 C   0  0  0  0  0  0  0  0  0  0  0  0
    1.1383    4.5146   13.3789 C   0  0  0  0  0  0  0  0  0  0  0  0
    2.2468    4.2989   14.1532 C   0  0  0  0  0  0  0  0  0  0  0  0
    2.7814    5.3469   14.8573 F   0  0  0  0  0  0  0  0  0  0  0  0
   -0.5846    3.7499   11.8659 N   0  0  0  0  0  0  0  0  0  0  0  0
   -0.5516    4.1319   10.5340 C   0  0  0  0  0  0  0  0  0  0  0  0
    0.5879    4.2287    9.9511 O   0  0  0  0  0  0  0  0  0  0  0  0
   -1.4906    3.6297   12.4133 H   0  0  0  0  0  0  0  0  0  0  0  0
   -1.7052    4.4573    9.6488 C   0  0  0  0  0  0  0  0  0  0  0  0
   -2.6885    5.4015   10.3825 C   0  0  0  0  0  0  0  0  0  0  0  0
   -1.9099    5.8070    9.1386 C   0  0  0  0  0  0  0  0  0  0  0  0
   -2.4505    3.3256    8.9977 C   0  0  0  0  0  0  0  0  0  0  0  0
   -2.8475    3.5140    7.8030 O   0  0  0  0  0  0  0  0  0  0  0  0
   -2.6862    2.1270    9.6951 N   0  0  0  0  0  0  0  0  0  0  0  0
   -2.3099    2.1091   10.6986 H   0  0  0  0  0  0  0  0  0  0  0  0
   -3.3554    0.9611    9.2518 C   0  0  0  0  0  0  0  0  0  0  0  0
   -4.6839    0.7625    9.3884 C   0  0  0  0  0  0  0  0  0  0  0  0
   -5.3309   -0.4045    8.9503 C   0  0  0  0  0  0  0  0  0  0  0  0
   -4.5805   -1.3808    8.3594 C   0  0  0  0  0  0  0  0  0  0  0  0
   -5.1432   -2.5299    7.9151 F   0  0  0  0  0  0  0  0  0  0  0  0
   -3.2117   -1.1991    8.2073 C   0  0  0  0  0  0  0  0  0  0  0  0
   -2.6202   -0.0608    8.6419 C   0  0  0  0  0  0  0  0  0  0  0  0
    3.9874    2.7973   14.9961 O   0  0  0  0  0  0  0  0  0  0  0  0
    5.6494    5.2128   17.8251 C   0  0  0  0  0  0  0  0  0  0  0  0
    5.0851    4.3884   16.8776 C   0  0  0  0  0  0  0  0  0  0  0  0
    4.5018    3.1992   17.2592 C   0  0  0  0  0  0  0  0  0  0  0  0
    3.9252    2.3540   16.2908 C   0  0  0  0  0  0  0  0  0  0  0  0
    3.3449    1.1703   16.6558 C   0  0  0  0  0  0  0  0  0  0  0  0
    3.3319    0.8121   18.0078 C   0  0  0  0  0  0  0  0  0  0  0  0
    3.8752    1.6032   18.9465 N   0  0  0  0  0  0  0  0  0  0  0  0
    4.4506    2.7795   18.5684 C   0  0  0  0  0  0  0  0  0  0  0  0
    5.0219    3.6147   19.5246 C   0  0  0  0  0  0  0  0  0  0  0  0
    5.6067    4.8026   19.1587 C   0  0  0  0  0  0  0  0  0  0  0  0
    5.5013    7.4355   16.8430 C   0  0  0  0  0  0  0  0  0  0  0  0
    6.2550    6.4310   17.4924 O   0  0  0  0  0  0  0  0  0  0  0  0
    6.1710    5.6227   20.1215 O   0  0  0  0  0  0  0  0  0  0  0  0
    5.4727    6.2624   21.1485 C   0  0  0  0  0  0  0  0  0  0  0  0
    6.3624    6.2245   22.3865 C   0  0  0  0  0  0  0  0  0  0  0  0
    7.3653    7.3357   22.3692 C   0  0  0  0  0  0  0  0  0  0  0  0
    8.6862    6.9206   21.9701 N   0  0  0  0  0  0  0  0  0  0  0  0
    9.6365    7.9119   22.4597 C   0  0  0  0  0  0  0  0  0  0  0  0
   10.1892    7.3692   23.7390 C   0  0  0  0  0  0  0  0  0  0  0  0
    9.7192    5.9587   23.8688 C   0  0  0  0  0  0  0  0  0  0  0  0
    9.1022    5.6696   22.5159 C   0  0  0  0  0  0  0  0  0  0  0  0
 37 38  1  0  0  0
 38 27  1  0  0  0
 27 28  2  0  0  0
 28 29  1  0  0  0
 29 30  2  0  0  0
 30 26  1  0  0  0
 26  1  1  0  0  0
  1  2  2  0  0  0
  2  3  1  0  0  0
  3  4  2  0  0  0
  4  8  1  0  0  0
  8  9  1  0  0  0
  9 10  2  0  0  0
  9 12  1  0  0  0
 12 13  1  0  0  0
 13 14  1  0  0  0
 12 15  1  0  0  0
 15 16  2  0  0  0
 15 17  1  0  0  0
 17 19  1  0  0  0
 19 20  2  0  0  0
 20 21  1  0  0  0
 21 22  2  0  0  0
 22 23  1  0  0  0
 22 24  1  0  0  0
 24 25  2  0  0  0
  4  5  1  0  0  0
  5  6  2  0  0  0
  6  7  1  0  0  0
 30 31  1  0  0  0
 31 32  2  0  0  0
 32 33  1  0  0  0
 33 34  2  0  0  0
 34 35  1  0  0  0
 35 36  2  0  0  0
 36 39  1  0  0  0
 39 40  1  0  0  0
 40 41  1  0  0  0
 41 42  1  0  0  0
 42 43  1  0  0  0
 43 44  1  0  0  0
 44 45  1  0  0  0
 45 46  1  0  0  0
 46 47  1  0  0  0
 36 27  1  0  0  0
 47 43  1  0  0  0
 34 29  1  0  0  0
  6  1  1  0  0  0
 14 12  1  0  0  0
 25 19  1  0  0  0
  8 11  1  0  0  0
 17 18  1  0  0  0
M  END
> <minimizedAffinity>
-7.97876

> <CNNscore>
0.1396910548

> <CNNaffinity>
6.3589210510

> <CNN_VS>
0.8882843852

> <CNNaffinity_variance>
0.2540632188

$$$$
[H]c1nc2c([H])c(OC([H])([H])C([H])([H])C([H])([H])N3C([H])([H])C([H])([H])C([H])([H])C3([H])[H])c(OC([H])([H])[H])c([H])c2c(Oc2c([H])c([H])c(N([H])C(=O)C3(C(=O)N([H])c4c([H])c([H])c(F)c([H])c4[H])C([H])([H])C3([H])[H])c([H])c2F)c1[H]


 47 52  0  0  0  0  0  0  0  0999 V2000
    2.5035    3.8393   13.8162 C   0  0  0  0  0  0  0  0  0  0  0  0
    2.1045    2.8129   12.9708 C   0  0  0  0  0  0  0  0  0  0  0  0
    0.8973    2.9060   12.2604 C   0  0  0  0  0  0  0  0  0  0  0  0
    0.0689    3.9952   12.3667 C   0  0  0  0  0  0  0  0  0  0  0  0
    0.4858    5.0240   13.2233 C   0  0  0  0  0  0  0  0  0  0  0  0
    1.6643    4.9314   13.9143 C   0  0  0  0  0  0  0  0  0  0  0  0
    2.0485    5.9735   14.7182 F   0  0  0  0  0  0  0  0  0  0  0  0
   -1.1697    4.1298   11.7062 N   0  0  0  0  0  0  0  0  0  0  0  0
   -1.2820    4.4984   10.3748 C   0  0  0  0  0  0  0  0  0  0  0  0
   -0.2086    4.7127    9.7045 O   0  0  0  0  0  0  0  0  0  0  0  0
   -2.0119    3.9173   12.3230 H   0  0  0  0  0  0  0  0  0  0  0  0
   -2.5294    4.6864    9.5817 C   0  0  0  0  0  0  0  0  0  0  0  0
   -3.5547    5.5162   10.3922 C   0  0  0  0  0  0  0  0  0  0  0  0
   -2.9246    6.0016    9.0940 C   0  0  0  0  0  0  0  0  0  0  0  0
   -3.1887    3.4741    8.9851 C   0  0  0  0  0  0  0  0  0  0  0  0
   -3.8372    3.6492    7.9038 O   0  0  0  0  0  0  0  0  0  0  0  0
   -3.0809    2.2186    9.6100 N   0  0  0  0  0  0  0  0  0  0  0  0
   -2.5180    2.2171   10.5222 H   0  0  0  0  0  0  0  0  0  0  0  0
   -3.6203    0.9758    9.1999 C   0  0  0  0  0  0  0  0  0  0  0  0
   -4.9399    0.6906    9.2154 C   0  0  0  0  0  0  0  0  0  0  0  0
   -5.4579   -0.5512    8.8129 C   0  0  0  0  0  0  0  0  0  0  0  0
   -4.5856   -1.5118    8.3866 C   0  0  0  0  0  0  0  0  0  0  0  0
   -5.0205   -2.7302    7.9852 F   0  0  0  0  0  0  0  0  0  0  0  0
   -3.2232   -1.2417    8.3615 C   0  0  0  0  0  0  0  0  0  0  0  0
   -2.7581   -0.0327    8.7572 C   0  0  0  0  0  0  0  0  0  0  0  0
    3.6980    3.6933   14.4853 O   0  0  0  0  0  0  0  0  0  0  0  0
    5.4557    5.6960   17.5675 C   0  0  0  0  0  0  0  0  0  0  0  0
    4.8607    5.0094   16.5328 C   0  0  0  0  0  0  0  0  0  0  0  0
    4.4273    3.7151   16.7249 C   0  0  0  0  0  0  0  0  0  0  0  0
    3.8196    3.0108   15.6668 C   0  0  0  0  0  0  0  0  0  0  0  0
    3.3868    1.7252   15.8434 C   0  0  0  0  0  0  0  0  0  0  0  0
    3.5563    1.1202   17.0931 C   0  0  0  0  0  0  0  0  0  0  0  0
    4.1323    1.7738   18.1145 N   0  0  0  0  0  0  0  0  0  0  0  0
    4.5594    3.0541   17.9241 C   0  0  0  0  0  0  0  0  0  0  0  0
    5.1614    3.7503   18.9687 C   0  0  0  0  0  0  0  0  0  0  0  0
    5.5982    5.0405   18.7917 C   0  0  0  0  0  0  0  0  0  0  0  0
    5.0115    8.0339   17.0537 C   0  0  0  0  0  0  0  0  0  0  0  0
    5.9143    7.0118   17.4269 O   0  0  0  0  0  0  0  0  0  0  0  0
    6.1953    5.7201   19.8404 O   0  0  0  0  0  0  0  0  0  0  0  0
    5.5361    6.1885   20.9795 C   0  0  0  0  0  0  0  0  0  0  0  0
    6.0423    5.3663   22.1600 C   0  0  0  0  0  0  0  0  0  0  0  0
    5.0466    4.3235   22.5626 C   0  0  0  0  0  0  0  0  0  0  0  0
    5.6438    3.1186   23.0803 N   0  0  0  0  0  0  0  0  0  0  0  0
    4.6449    2.4345   23.8924 C   0  0  0  0  0  0  0  0  0  0  0  0
    4.0357    1.3868   23.0161 C   0  0  0  0  0  0  0  0  0  0  0  0
    4.8452    1.3223   21.7640 C   0  0  0  0  0  0  0  0  0  0  0  0
    6.0498    2.1843   22.0813 C   0  0  0  0  0  0  0  0  0  0  0  0
 37 38  1  0  0  0
 38 27  1  0  0  0
 27 28  2  0  0  0
 28 29  1  0  0  0
 29 30  2  0  0  0
 30 26  1  0  0  0
 26  1  1  0  0  0
  1  2  2  0  0  0
  2  3  1  0  0  0
  3  4  2  0  0  0
  4  8  1  0  0  0
  8  9  1  0  0  0
  9 10  2  0  0  0
  9 12  1  0  0  0
 12 13  1  0  0  0
 13 14  1  0  0  0
 12 15  1  0  0  0
 15 16  2  0  0  0
 15 17  1  0  0  0
 17 19  1  0  0  0
 19 20  2  0  0  0
 20 21  1  0  0  0
 21 22  2  0  0  0
 22 23  1  0  0  0
 22 24  1  0  0  0
 24 25  2  0  0  0
  4  5  1  0  0  0
  5  6  2  0  0  0
  6  7  1  0  0  0
 30 31  1  0  0  0
 31 32  2  0  0  0
 32 33  1  0  0  0
 33 34  2  0  0  0
 34 35  1  0  0  0
 35 36  2  0  0  0
 36 39  1  0  0  0
 39 40  1  0  0  0
 40 41  1  0  0  0
 41 42  1  0  0  0
 42 43  1  0  0  0
 43 44  1  0  0  0
 44 45  1  0  0  0
 45 46  1  0  0  0
 46 47  1  0  0  0
 36 27  1  0  0  0
 47 43  1  0  0  0
 34 29  1  0  0  0
  6  1  1  0  0  0
 14 12  1  0  0  0
 25 19  1  0  0  0
  8 11  1  0  0  0
 17 18  1  0  0  0
M  END
> <minimizedAffinity>
-8.04462

> <CNNscore>
0.1179048717

> <CNNaffinity>
6.6100015640

> <CNN_VS>
0.7793514132

> <CNNaffinity_variance>
0.2129353285

$$$$
[H]c1nc2c([H])c(OC([H])([H])C([H])([H])C([H])([H])N3C([H])([H])C([H])([H])C([H])([H])C3([H])[H])c(OC([H])([H])[H])c([H])c2c(Oc2c([H])c([H])c(N([H])C(=O)C3(C(=O)N([H])c4c([H])c([H])c(F)c([H])c4[H])C([H])([H])C3([H])[H])c([H])c2F)c1[H]


 47 52  0  0  0  0  0  0  0  0999 V2000
    2.9876    3.0849   14.2518 C   0  0  0  0  0  0  0  0  0  0  0  0
    3.9728    3.8542   14.8561 C   0  0  0  0  0  0  0  0  0  0  0  0
    4.5172    3.4692   16.0914 C   0  0  0  0  0  0  0  0  0  0  0  0
    4.1084    2.3358   16.7489 C   0  0  0  0  0  0  0  0  0  0  0  0
    3.1139    1.5687   16.1256 C   0  0  0  0  0  0  0  0  0  0  0  0
    2.5852    1.9457   14.9202 C   0  0  0  0  0  0  0  0  0  0  0  0
    1.6359    1.1506   14.3315 F   0  0  0  0  0  0  0  0  0  0  0  0
    4.5927    1.9174   18.0054 N   0  0  0  0  0  0  0  0  0  0  0  0
    4.3921    2.6374   19.1726 C   0  0  0  0  0  0  0  0  0  0  0  0
    3.7201    3.7294   19.1125 O   0  0  0  0  0  0  0  0  0  0  0  0
    5.1234    0.9940   17.9766 H   0  0  0  0  0  0  0  0  0  0  0  0
    4.8677    2.3031   20.5445 C   0  0  0  0  0  0  0  0  0  0  0  0
    3.7665    1.5368   21.3170 C   0  0  0  0  0  0  0  0  0  0  0  0
    5.1095    0.9232   20.9460 C   0  0  0  0  0  0  0  0  0  0  0  0
    5.4353    3.4056   21.3946 C   0  0  0  0  0  0  0  0  0  0  0  0
    5.6300    3.1380   22.6238 O   0  0  0  0  0  0  0  0  0  0  0  0
    5.7282    4.6631   20.8365 N   0  0  0  0  0  0  0  0  0  0  0  0
    5.5017    4.7557   19.7930 H   0  0  0  0  0  0  0  0  0  0  0  0
    6.2673    5.8090   21.4688 C   0  0  0  0  0  0  0  0  0  0  0  0
    7.4729    5.8316   22.0763 C   0  0  0  0  0  0  0  0  0  0  0  0
    7.9895    6.9755   22.7066 C   0  0  0  0  0  0  0  0  0  0  0  0
    7.2367    8.1151   22.7033 C   0  0  0  0  0  0  0  0  0  0  0  0
    7.6771    9.2519   23.2934 F   0  0  0  0  0  0  0  0  0  0  0  0
    5.9931    8.1164   22.0843 C   0  0  0  0  0  0  0  0  0  0  0  0
    5.5255    6.9948   21.4860 C   0  0  0  0  0  0  0  0  0  0  0  0
    2.4927    3.5110   13.0396 O   0  0  0  0  0  0  0  0  0  0  0  0
    5.5522    5.0551   10.8361 C   0  0  0  0  0  0  0  0  0  0  0  0
    4.5162    4.5252   11.5721 C   0  0  0  0  0  0  0  0  0  0  0  0
    3.8287    3.4270   11.1016 C   0  0  0  0  0  0  0  0  0  0  0  0
    2.7676    2.8844   11.8529 C   0  0  0  0  0  0  0  0  0  0  0  0
    2.0759    1.7961   11.3966 C   0  0  0  0  0  0  0  0  0  0  0  0
    2.4398    1.2287   10.1710 C   0  0  0  0  0  0  0  0  0  0  0  0
    3.4480    1.7298    9.4398 N   0  0  0  0  0  0  0  0  0  0  0  0
    4.1281    2.8150    9.9064 C   0  0  0  0  0  0  0  0  0  0  0  0
    5.1759    3.3527    9.1640 C   0  0  0  0  0  0  0  0  0  0  0  0
    5.8697    4.4468    9.6204 C   0  0  0  0  0  0  0  0  0  0  0  0
    5.6505    7.4303   11.3610 C   0  0  0  0  0  0  0  0  0  0  0  0
    6.2831    6.1694   11.2667 O   0  0  0  0  0  0  0  0  0  0  0  0
    6.9096    4.9704    8.8703 O   0  0  0  0  0  0  0  0  0  0  0  0
    6.8440    5.2940    7.5130 C   0  0  0  0  0  0  0  0  0  0  0  0
    5.5765    6.1171    7.3093 C   0  0  0  0  0  0  0  0  0  0  0  0
    5.8938    7.4826    6.7843 C   0  0  0  0  0  0  0  0  0  0  0  0
    5.3703    8.5531    7.5946 N   0  0  0  0  0  0  0  0  0  0  0  0
    5.2557    9.7388    6.7540 C   0  0  0  0  0  0  0  0  0  0  0  0
    3.8311    9.7990    6.3030 C   0  0  0  0  0  0  0  0  0  0  0  0
    3.0733    8.7668    7.0696 C   0  0  0  0  0  0  0  0  0  0  0  0
    4.0657    8.3124    8.1200 C   0  0  0  0  0  0  0  0  0  0  0  0
 37 38  1  0  0  0
 38 27  1  0  0  0
 27 28  2  0  0  0
 28 29  1  0  0  0
 29 30  2  0  0  0
 30 26  1  0  0  0
 26  1  1  0  0  0
  1  2  2  0  0  0
  2  3  1  0  0  0
  3  4  2  0  0  0
  4  8  1  0  0  0
  8  9  1  0  0  0
  9 10  2  0  0  0
  9 12  1  0  0  0
 12 13  1  0  0  0
 13 14  1  0  0  0
 12 15  1  0  0  0
 15 16  2  0  0  0
 15 17  1  0  0  0
 17 19  1  0  0  0
 19 20  2  0  0  0
 20 21  1  0  0  0
 21 22  2  0  0  0
 22 23  1  0  0  0
 22 24  1  0  0  0
 24 25  2  0  0  0
  4  5  1  0  0  0
  5  6  2  0  0  0
  6  7  1  0  0  0
 30 31  1  0  0  0
 31 32  2  0  0  0
 32 33  1  0  0  0
 33 34  2  0  0  0
 34 35  1  0  0  0
 35 36  2  0  0  0
 36 39  1  0  0  0
 39 40  1  0  0  0
 40 41  1  0  0  0
 41 42  1  0  0  0
 42 43  1  0  0  0
 43 44  1  0  0  0
 44 45  1  0  0  0
 45 46  1  0  0  0
 46 47  1  0  0  0
 36 27  1  0  0  0
 47 43  1  0  0  0
 34 29  1  0  0  0
  6  1  1  0  0  0
 14 12  1  0  0  0
 25 19  1  0  0  0
  8 11  1  0  0  0
 17 18  1  0  0  0
M  END
> <minimizedAffinity>
-7.94126

> <CNNscore>
0.1175536066

> <CNNaffinity>
6.5198655128

> <CNN_VS>
0.7664337158

> <CNNaffinity_variance>
0.2684456706

$$$$
[H]c1nc2c([H])c(OC([H])([H])C([H])([H])C([H])([H])N3C([H])([H])C([H])([H])C([H])([H])C3([H])[H])c(OC([H])([H])[H])c([H])c2c(Oc2c([H])c([H])c(N([H])C(=O)C3(C(=O)N([H])c4c([H])c([H])c(F)c([H])c4[H])C([H])([H])C3([H])[H])c([H])c2F)c1[H]


 47 52  0  0  0  0  0  0  0  0999 V2000
    2.3389    2.4983   15.7040 C   0  0  0  0  0  0  0  0  0  0  0  0
    2.9598    3.6843   16.0720 C   0  0  0  0  0  0  0  0  0  0  0  0
    3.8978    3.7013   17.1162 C   0  0  0  0  0  0  0  0  0  0  0  0
    4.2386    2.5677   17.8110 C   0  0  0  0  0  0  0  0  0  0  0  0
    3.6041    1.3776   17.4272 C   0  0  0  0  0  0  0  0  0  0  0  0
    2.6904    1.3634   16.4075 C   0  0  0  0  0  0  0  0  0  0  0  0
    2.1158    0.1725   16.0448 F   0  0  0  0  0  0  0  0  0  0  0  0
    5.1461    2.5291   18.8895 N   0  0  0  0  0  0  0  0  0  0  0  0
    4.8920    3.1244   20.1151 C   0  0  0  0  0  0  0  0  0  0  0  0
    3.7711    3.7266   20.2844 O   0  0  0  0  0  0  0  0  0  0  0  0
    6.0439    1.9959   18.6779 H   0  0  0  0  0  0  0  0  0  0  0  0
    5.7772    3.1615   21.3131 C   0  0  0  0  0  0  0  0  0  0  0  0
    5.1166    2.3974   22.4862 C   0  0  0  0  0  0  0  0  0  0  0  0
    6.4122    1.9526   21.8220 C   0  0  0  0  0  0  0  0  0  0  0  0
    6.2964    4.4931   21.7795 C   0  0  0  0  0  0  0  0  0  0  0  0
    7.4219    4.4921   22.3742 O   0  0  0  0  0  0  0  0  0  0  0  0
    5.5562    5.6686   21.5588 N   0  0  0  0  0  0  0  0  0  0  0  0
    4.6190    5.5229   21.0594 H   0  0  0  0  0  0  0  0  0  0  0  0
    5.8807    6.9997   21.9146 C   0  0  0  0  0  0  0  0  0  0  0  0
    6.8978    7.3274   22.7400 C   0  0  0  0  0  0  0  0  0  0  0  0
    7.2011    8.6535   23.0895 C   0  0  0  0  0  0  0  0  0  0  0  0
    6.4313    9.6548   22.5697 C   0  0  0  0  0  0  0  0  0  0  0  0
    6.6709   10.9542   22.8672 F   0  0  0  0  0  0  0  0  0  0  0  0
    5.3794    9.3423   21.7179 C   0  0  0  0  0  0  0  0  0  0  0  0
    5.1149    8.0520   21.4021 C   0  0  0  0  0  0  0  0  0  0  0  0
    1.4292    2.5425   14.6714 O   0  0  0  0  0  0  0  0  0  0  0  0
   -0.6720    5.2398   12.4556 C   0  0  0  0  0  0  0  0  0  0  0  0
    0.0445    4.3252   13.1946 C   0  0  0  0  0  0  0  0  0  0  0  0
    1.0575    3.6029   12.6012 C   0  0  0  0  0  0  0  0  0  0  0  0
    1.7904    2.6658   13.3557 C   0  0  0  0  0  0  0  0  0  0  0  0
    2.7969    1.9410   12.7787 C   0  0  0  0  0  0  0  0  0  0  0  0
    3.0881    2.1459   11.4260 C   0  0  0  0  0  0  0  0  0  0  0  0
    2.4022    3.0343   10.6895 N   0  0  0  0  0  0  0  0  0  0  0  0
    1.4016    3.7490   11.2773 C   0  0  0  0  0  0  0  0  0  0  0  0
    0.6757    4.6743   10.5321 C   0  0  0  0  0  0  0  0  0  0  0  0
   -0.3365    5.4010   11.1102 C   0  0  0  0  0  0  0  0  0  0  0  0
   -1.4670    6.7968   14.1499 C   0  0  0  0  0  0  0  0  0  0  0  0
   -1.7108    5.9995   13.0080 O   0  0  0  0  0  0  0  0  0  0  0  0
   -1.0497    6.3177   10.3558 O   0  0  0  0  0  0  0  0  0  0  0  0
   -1.4059    6.1578    9.0145 C   0  0  0  0  0  0  0  0  0  0  0  0
   -2.6713    5.3071    8.9853 C   0  0  0  0  0  0  0  0  0  0  0  0
   -3.6378    5.7342   10.0455 C   0  0  0  0  0  0  0  0  0  0  0  0
   -3.9647    4.6938   10.9875 N   0  0  0  0  0  0  0  0  0  0  0  0
   -5.0714    5.1646   11.8115 C   0  0  0  0  0  0  0  0  0  0  0  0
   -6.3155    4.5877   11.2149 C   0  0  0  0  0  0  0  0  0  0  0  0
   -5.8995    3.6002   10.1761 C   0  0  0  0  0  0  0  0  0  0  0  0
   -4.4052    3.4746   10.3913 C   0  0  0  0  0  0  0  0  0  0  0  0
 37 38  1  0  0  0
 38 27  1  0  0  0
 27 28  2  0  0  0
 28 29  1  0  0  0
 29 30  2  0  0  0
 30 26  1  0  0  0
 26  1  1  0  0  0
  1  2  2  0  0  0
  2  3  1  0  0  0
  3  4  2  0  0  0
  4  8  1  0  0  0
  8  9  1  0  0  0
  9 10  2  0  0  0
  9 12  1  0  0  0
 12 13  1  0  0  0
 13 14  1  0  0  0
 12 15  1  0  0  0
 15 16  2  0  0  0
 15 17  1  0  0  0
 17 19  1  0  0  0
 19 20  2  0  0  0
 20 21  1  0  0  0
 21 22  2  0  0  0
 22 23  1  0  0  0
 22 24  1  0  0  0
 24 25  2  0  0  0
  4  5  1  0  0  0
  5  6  2  0  0  0
  6  7  1  0  0  0
 30 31  1  0  0  0
 31 32  2  0  0  0
 32 33  1  0  0  0
 33 34  2  0  0  0
 34 35  1  0  0  0
 35 36  2  0  0  0
 36 39  1  0  0  0
 39 40  1  0  0  0
 40 41  1  0  0  0
 41 42  1  0  0  0
 42 43  1  0  0  0
 43 44  1  0  0  0
 44 45  1  0  0  0
 45 46  1  0  0  0
 46 47  1  0  0  0
 36 27  1  0  0  0
 47 43  1  0  0  0
 34 29  1  0  0  0
  6  1  1  0  0  0
 14 12  1  0  0  0
 25 19  1  0  0  0
  8 11  1  0  0  0
 17 18  1  0  0  0
M  END
> <minimizedAffinity>
-8.50485

> <CNNscore>
0.1028880179

> <CNNaffinity>
6.4403786659

> <CNN_VS>
0.6626377702

> <CNNaffinity_variance>
0.3921126425

$$$$
[H]c1nc2c(C([H])([H])[H])c([H])c(-c3c(C([H])(C([H])([H])[H])C([H])([H])[H])c4c([H])c(C5([H])C([H])([H])C([H])([H])N(C6([H])C([H])([H])OC6([H])[H])C([H])([H])C5([H])[H])c([H])c([H])c4n3[H])c([H])n2n1


 33 38  0  0  0  0  0  0  0  0999 V2000
    2.8048    4.1895   13.7739 C   0  0  0  0  0  0  0  0  0  0  0  0
    3.0484    2.8409   14.0667 C   0  0  0  0  0  0  0  0  0  0  0  0
    3.2712    2.1976   12.9168 N   0  0  0  0  0  0  0  0  0  0  0  0
    3.1860    3.0609   11.8706 C   0  0  0  0  0  0  0  0  0  0  0  0
    3.4243    2.8582   10.5422 C   0  0  0  0  0  0  0  0  0  0  0  0
    3.3850    3.9596    9.7294 C   0  0  0  0  0  0  0  0  0  0  0  0
    3.1190    5.2287   10.2215 C   0  0  0  0  0  0  0  0  0  0  0  0
    2.8713    5.3917   11.5647 C   0  0  0  0  0  0  0  0  0  0  0  0
    2.8981    4.2992   12.4190 C   0  0  0  0  0  0  0  0  0  0  0  0
    3.4678    1.1656   12.8259 H   0  0  0  0  0  0  0  0  0  0  0  0
    3.1613    2.3560   15.4332 C   0  0  0  0  0  0  0  0  0  0  0  0
    4.0260    2.9576   16.3156 C   0  0  0  0  0  0  0  0  0  0  0  0
    4.1757    2.4535   17.5696 C   0  0  0  0  0  0  0  0  0  0  0  0
    5.0557    3.1024   18.5814 C   0  0  0  0  0  0  0  0  0  0  0  0
    3.4512    1.3274   17.9471 C   0  0  0  0  0  0  0  0  0  0  0  0
    3.4138    0.6118   19.0909 N   0  0  0  0  0  0  0  0  0  0  0  0
    2.5637   -0.4067   18.9316 C   0  0  0  0  0  0  0  0  0  0  0  0
    2.0497   -0.3274   17.6622 N   0  0  0  0  0  0  0  0  0  0  0  0
    2.6172    0.7387   17.0993 N   0  0  0  0  0  0  0  0  0  0  0  0
    2.4675    1.2342   15.8684 C   0  0  0  0  0  0  0  0  0  0  0  0
    3.2850    6.3622    9.2663 C   0  0  0  0  0  0  0  0  0  0  0  0
    2.2447    7.4150    9.3687 C   0  0  0  0  0  0  0  0  0  0  0  0
    2.6639    8.6371    8.5452 C   0  0  0  0  0  0  0  0  0  0  0  0
    3.8433    8.2792    7.7826 N   0  0  0  0  0  0  0  0  0  0  0  0
    4.9593    8.0660    8.7326 C   0  0  0  0  0  0  0  0  0  0  0  0
    4.5971    7.0908    9.7594 C   0  0  0  0  0  0  0  0  0  0  0  0
    4.2883    9.2709    6.8529 C   0  0  0  0  0  0  0  0  0  0  0  0
    5.4666   10.1033    7.1702 C   0  0  0  0  0  0  0  0  0  0  0  0
    5.6640   10.2253    5.7698 O   0  0  0  0  0  0  0  0  0  0  0  0
    5.0819    8.9368    5.6622 C   0  0  0  0  0  0  0  0  0  0  0  0
    1.3259    5.9623   14.6507 C   0  0  0  0  0  0  0  0  0  0  0  0
    2.6426    5.2247   14.8242 C   0  0  0  0  0  0  0  0  0  0  0  0
    3.7632    6.2795   14.6203 C   0  0  0  0  0  0  0  0  0  0  0  0
 31 32  1  0  0  0
 32 33  1  0  0  0
 32  1  1  0  0  0
  1  2  2  0  0  0
  2  3  1  0  0  0
  3  4  1  0  0  0
  4  5  2  0  0  0
  5  6  1  0  0  0
  6  7  2  0  0  0
  7  8  1  0  0  0
  8  9  2  0  0  0
  7 21  1  0  0  0
 21 22  1  0  0  0
 22 23  1  0  0  0
 23 24  1  0  0  0
 24 25  1  0  0  0
 25 26  1  0  0  0
 24 27  1  0  0  0
 27 28  1  0  0  0
 28 29  1  0  0  0
 29 30  1  0  0  0
  2 11  1  0  0  0
 11 12  1  0  0  0
 12 13  2  0  0  0
 13 14  1  0  0  0
 13 15  1  0  0  0
 15 16  2  0  0  0
 16 17  1  0  0  0
 17 18  2  0  0  0
 18 19  1  0  0  0
 19 20  1  0  0  0
  9  1  1  0  0  0
 26 21  1  0  0  0
 30 27  1  0  0  0
 20 11  2  0  0  0
  9  4  1  0  0  0
 19 15  1  0  0  0
  3 10  1  0  0  0
M  END
> <minimizedAffinity>
-7.46701

> <CNNscore>
0.7757875919

> <CNNaffinity>
6.6150045395

> <CNN_VS>
5.1318383217

> <CNNaffinity_variance>
0.3132828772

$$$$
[H]c1nc2c(C([H])([H])[H])c([H])c(-c3c(C([H])(C([H])([H])[H])C([H])([H])[H])c4c([H])c(C5([H])C([H])([H])C([H])([H])N(C6([H])C([H])([H])OC6([H])[H])C([H])([H])C5([H])[H])c([H])c([H])c4n3[H])c([H])n2n1


 33 38  0  0  0  0  0  0  0  0999 V2000
    2.6225    4.5499   13.7068 C   0  0  0  0  0  0  0  0  0  0  0  0
    2.2144    4.6302   15.0450 C   0  0  0  0  0  0  0  0  0  0  0  0
    1.3244    5.6213   15.1514 N   0  0  0  0  0  0  0  0  0  0  0  0
    1.1226    6.2044   13.9405 C   0  0  0  0  0  0  0  0  0  0  0  0
    0.2465    7.1836   13.5715 C   0  0  0  0  0  0  0  0  0  0  0  0
    0.1753    7.4823   12.2371 C   0  0  0  0  0  0  0  0  0  0  0  0
    0.9507    6.8253   11.2932 C   0  0  0  0  0  0  0  0  0  0  0  0
    1.8318    5.8524   11.7047 C   0  0  0  0  0  0  0  0  0  0  0  0
    1.9351    5.5251   13.0487 C   0  0  0  0  0  0  0  0  0  0  0  0
    0.8557    5.9239   16.0463 H   0  0  0  0  0  0  0  0  0  0  0  0
    2.6383    3.6586   16.0408 C   0  0  0  0  0  0  0  0  0  0  0  0
    3.6435    3.9638   16.9267 C   0  0  0  0  0  0  0  0  0  0  0  0
    4.0802    3.0245   17.8076 C   0  0  0  0  0  0  0  0  0  0  0  0
    5.1257    3.3229   18.8259 C   0  0  0  0  0  0  0  0  0  0  0  0
    3.5046    1.7579   17.8011 C   0  0  0  0  0  0  0  0  0  0  0  0
    3.7447    0.6465   18.5283 N   0  0  0  0  0  0  0  0  0  0  0  0
    2.9271   -0.3242   18.1103 C   0  0  0  0  0  0  0  0  0  0  0  0
    2.1509    0.1886   17.1021 N   0  0  0  0  0  0  0  0  0  0  0  0
    2.5363    1.4545   16.9460 N   0  0  0  0  0  0  0  0  0  0  0  0
    2.1049    2.3768   16.0820 C   0  0  0  0  0  0  0  0  0  0  0  0
    0.6469    7.1161    9.8621 C   0  0  0  0  0  0  0  0  0  0  0  0
    1.5716    6.4800    8.8918 C   0  0  0  0  0  0  0  0  0  0  0  0
    1.0094    6.6214    7.4736 C   0  0  0  0  0  0  0  0  0  0  0  0
   -0.1401    7.5021    7.5341 N   0  0  0  0  0  0  0  0  0  0  0  0
   -1.2085    6.8139    8.2945 C   0  0  0  0  0  0  0  0  0  0  0  0
   -0.7251    6.3771    9.6031 C   0  0  0  0  0  0  0  0  0  0  0  0
   -0.7057    7.8489    6.2669 C   0  0  0  0  0  0  0  0  0  0  0  0
    0.1693    8.3132    5.1711 C   0  0  0  0  0  0  0  0  0  0  0  0
   -0.8080    7.8048    4.2759 O   0  0  0  0  0  0  0  0  0  0  0  0
   -1.0948    6.8386    5.2734 C   0  0  0  0  0  0  0  0  0  0  0  0
    4.5007    4.0339   12.1888 C   0  0  0  0  0  0  0  0  0  0  0  0
    3.5131    3.4771   13.1998 C   0  0  0  0  0  0  0  0  0  0  0  0
    2.6296    2.4584   12.4306 C   0  0  0  0  0  0  0  0  0  0  0  0
 31 32  1  0  0  0
 32 33  1  0  0  0
 32  1  1  0  0  0
  1  2  2  0  0  0
  2  3  1  0  0  0
  3  4  1  0  0  0
  4  5  2  0  0  0
  5  6  1  0  0  0
  6  7  2  0  0  0
  7  8  1  0  0  0
  8  9  2  0  0  0
  7 21  1  0  0  0
 21 22  1  0  0  0
 22 23  1  0  0  0
 23 24  1  0  0  0
 24 25  1  0  0  0
 25 26  1  0  0  0
 24 27  1  0  0  0
 27 28  1  0  0  0
 28 29  1  0  0  0
 29 30  1  0  0  0
  2 11  1  0  0  0
 11 12  1  0  0  0
 12 13  2  0  0  0
 13 14  1  0  0  0
 13 15  1  0  0  0
 15 16  2  0  0  0
 16 17  1  0  0  0
 17 18  2  0  0  0
 18 19  1  0  0  0
 19 20  1  0  0  0
  9  1  1  0  0  0
 26 21  1  0  0  0
 30 27  1  0  0  0
 20 11  2  0  0  0
  9  4  1  0  0  0
 19 15  1  0  0  0
  3 10  1  0  0  0
M  END
> <minimizedAffinity>
-6.79212

> <CNNscore>
0.5723308325

> <CNNaffinity>
6.4448213577

> <CNN_VS>
3.6885700226

> <CNNaffinity_variance>
0.4027115405

$$$$
[H]c1nc2c(C([H])([H])[H])c([H])c(-c3c(C([H])(C([H])([H])[H])C([H])([H])[H])c4c([H])c(C5([H])C([H])([H])C([H])([H])N(C6([H])C([H])([H])OC6([H])[H])C([H])([H])C5([H])[H])c([H])c([H])c4n3[H])c([H])n2n1


 33 38  0  0  0  0  0  0  0  0999 V2000
    4.0949    4.1524   17.0695 C   0  0  0  0  0  0  0  0  0  0  0  0
    3.8534    3.0742   17.9314 C   0  0  0  0  0  0  0  0  0  0  0  0
    3.3609    2.0639   17.2085 N   0  0  0  0  0  0  0  0  0  0  0  0
    3.2641    2.4239   15.9016 C   0  0  0  0  0  0  0  0  0  0  0  0
    2.9002    1.6876   14.8117 C   0  0  0  0  0  0  0  0  0  0  0  0
    3.0237    2.2882   13.5873 C   0  0  0  0  0  0  0  0  0  0  0  0
    3.4980    3.5841   13.4474 C   0  0  0  0  0  0  0  0  0  0  0  0
    3.8430    4.2996   14.5704 C   0  0  0  0  0  0  0  0  0  0  0  0
    3.7277    3.7264   15.8283 C   0  0  0  0  0  0  0  0  0  0  0  0
    3.0706    1.1260   17.5933 H   0  0  0  0  0  0  0  0  0  0  0  0
    4.2439    3.1033   19.3320 C   0  0  0  0  0  0  0  0  0  0  0  0
    3.9011    4.1699   20.1277 C   0  0  0  0  0  0  0  0  0  0  0  0
    4.3305    4.2206   21.4169 C   0  0  0  0  0  0  0  0  0  0  0  0
    3.9385    5.3250   22.3366 C   0  0  0  0  0  0  0  0  0  0  0  0
    5.1183    3.1894   21.9185 C   0  0  0  0  0  0  0  0  0  0  0  0
    5.6922    2.9873   23.1233 N   0  0  0  0  0  0  0  0  0  0  0  0
    6.3773    1.8408   23.0848 C   0  0  0  0  0  0  0  0  0  0  0  0
    6.2267    1.3059   21.8306 N   0  0  0  0  0  0  0  0  0  0  0  0
    5.4567    2.1581   21.1551 N   0  0  0  0  0  0  0  0  0  0  0  0
    5.0337    2.1060   19.8896 C   0  0  0  0  0  0  0  0  0  0  0  0
    3.7550    4.0530   12.0550 C   0  0  0  0  0  0  0  0  0  0  0  0
    2.5488    4.1264   11.1944 C   0  0  0  0  0  0  0  0  0  0  0  0
    2.8849    4.8675    9.8962 C   0  0  0  0  0  0  0  0  0  0  0  0
    4.3188    5.0753    9.8585 N   0  0  0  0  0  0  0  0  0  0  0  0
    4.6753    6.0261   10.9365 C   0  0  0  0  0  0  0  0  0  0  0  0
    4.1755    5.5655   12.2307 C   0  0  0  0  0  0  0  0  0  0  0  0
    4.8180    5.6384    8.6421 C   0  0  0  0  0  0  0  0  0  0  0  0
    4.3761    6.9817    8.2154 C   0  0  0  0  0  0  0  0  0  0  0  0
    5.6157    7.0907    7.5326 O   0  0  0  0  0  0  0  0  0  0  0  0
    6.1491    6.2534    8.5451 C   0  0  0  0  0  0  0  0  0  0  0  0
    4.4082    6.5537   16.5858 C   0  0  0  0  0  0  0  0  0  0  0  0
    4.7623    5.4018   17.5106 C   0  0  0  0  0  0  0  0  0  0  0  0
    6.2940    5.1886   17.3745 C   0  0  0  0  0  0  0  0  0  0  0  0
 31 32  1  0  0  0
 32 33  1  0  0  0
 32  1  1  0  0  0
  1  2  2  0  0  0
  2  3  1  0  0  0
  3  4  1  0  0  0
  4  5  2  0  0  0
  5  6  1  0  0  0
  6  7  2  0  0  0
  7  8  1  0  0  0
  8  9  2  0  0  0
  7 21  1  0  0  0
 21 22  1  0  0  0
 22 23  1  0  0  0
 23 24  1  0  0  0
 24 25  1  0  0  0
 25 26  1  0  0  0
 24 27  1  0  0  0
 27 28  1  0  0  0
 28 29  1  0  0  0
 29 30  1  0  0  0
  2 11  1  0  0  0
 11 12  1  0  0  0
 12 13  2  0  0  0
 13 14  1  0  0  0
 13 15  1  0  0  0
 15 16  2  0  0  0
 16 17  1  0  0  0
 17 18  2  0  0  0
 18 19  1  0  0  0
 19 20  1  0  0  0
  9  1  1  0  0  0
 26 21  1  0  0  0
 30 27  1  0  0  0
 20 11  2  0  0  0
  9  4  1  0  0  0
 19 15  1  0  0  0
  3 10  1  0  0  0
M  END
> <minimizedAffinity>
-8.00075

> <CNNscore>
0.3873387575

> <CNNaffinity>
6.5761084557

> <CNN_VS>
2.5471816063

> <CNNaffinity_variance>
0.5280569792

$$$$
[H]c1nc2c(C([H])([H])[H])c([H])c(-c3c(C([H])(C([H])([H])[H])C([H])([H])[H])c4c([H])c(C5([H])C([H])([H])C([H])([H])N(C6([H])C([H])([H])OC6([H])[H])C([H])([H])C5([H])[H])c([H])c([H])c4n3[H])c([H])n2n1


 33 38  0  0  0  0  0  0  0  0999 V2000
    4.2701    3.7971   17.5015 C   0  0  0  0  0  0  0  0  0  0  0  0
    4.0951    2.5866   18.1854 C   0  0  0  0  0  0  0  0  0  0  0  0
    3.5845    1.6945   17.3314 N   0  0  0  0  0  0  0  0  0  0  0  0
    3.4120    2.2599   16.1077 C   0  0  0  0  0  0  0  0  0  0  0  0
    3.0052    1.7015   14.9308 C   0  0  0  0  0  0  0  0  0  0  0  0
    3.0523    2.4969   13.8172 C   0  0  0  0  0  0  0  0  0  0  0  0
    3.4938    3.8107   13.8690 C   0  0  0  0  0  0  0  0  0  0  0  0
    3.8840    4.3428   15.0759 C   0  0  0  0  0  0  0  0  0  0  0  0
    3.8462    3.5692   16.2267 C   0  0  0  0  0  0  0  0  0  0  0  0
    3.3328    0.6988   17.5708 H   0  0  0  0  0  0  0  0  0  0  0  0
    4.5584    2.3977   19.5510 C   0  0  0  0  0  0  0  0  0  0  0  0
    5.5453    1.4831   19.8305 C   0  0  0  0  0  0  0  0  0  0  0  0
    5.9224    1.2638   21.1184 C   0  0  0  0  0  0  0  0  0  0  0  0
    7.0260    0.3266   21.4691 C   0  0  0  0  0  0  0  0  0  0  0  0
    5.3008    1.9682   22.1445 C   0  0  0  0  0  0  0  0  0  0  0  0
    5.4507    1.9424   23.4857 N   0  0  0  0  0  0  0  0  0  0  0  0
    4.5851    2.8023   24.0303 C   0  0  0  0  0  0  0  0  0  0  0  0
    3.8789    3.3871   23.0099 N   0  0  0  0  0  0  0  0  0  0  0  0
    4.3444    2.8501   21.8828 N   0  0  0  0  0  0  0  0  0  0  0  0
    3.9748    3.0681   20.6183 C   0  0  0  0  0  0  0  0  0  0  0  0
    3.6680    4.5072   12.5615 C   0  0  0  0  0  0  0  0  0  0  0  0
    2.4822    4.4574   11.6713 C   0  0  0  0  0  0  0  0  0  0  0  0
    2.6779    5.4208   10.4961 C   0  0  0  0  0  0  0  0  0  0  0  0
    4.0409    5.9116   10.5425 N   0  0  0  0  0  0  0  0  0  0  0  0
    4.1854    6.7575   11.7495 C   0  0  0  0  0  0  0  0  0  0  0  0
    3.7730    6.0345   12.9511 C   0  0  0  0  0  0  0  0  0  0  0  0
    4.4312    6.7233    9.4313 C   0  0  0  0  0  0  0  0  0  0  0  0
    3.5824    7.8574    9.0125 C   0  0  0  0  0  0  0  0  0  0  0  0
    4.7649    8.4587    8.5074 O   0  0  0  0  0  0  0  0  0  0  0  0
    5.4520    7.7744    9.5420 C   0  0  0  0  0  0  0  0  0  0  0  0
    4.1650    6.2467   17.7961 C   0  0  0  0  0  0  0  0  0  0  0  0
    4.9360    4.9757   18.1086 C   0  0  0  0  0  0  0  0  0  0  0  0
    6.3244    5.1305   17.4316 C   0  0  0  0  0  0  0  0  0  0  0  0
 31 32  1  0  0  0
 32 33  1  0  0  0
 32  1  1  0  0  0
  1  2  2  0  0  0
  2  3  1  0  0  0
  3  4  1  0  0  0
  4  5  2  0  0  0
  5  6  1  0  0  0
  6  7  2  0  0  0
  7  8  1  0  0  0
  8  9  2  0  0  0
  7 21  1  0  0  0
 21 22  1  0  0  0
 22 23  1  0  0  0
 23 24  1  0  0  0
 24 25  1  0  0  0
 25 26  1  0  0  0
 24 27  1  0  0  0
 27 28  1  0  0  0
 28 29  1  0  0  0
 29 30  1  0  0  0
  2 11  1  0  0  0
 11 12  1  0  0  0
 12 13  2  0  0  0
 13 14  1  0  0  0
 13 15  1  0  0  0
 15 16  2  0  0  0
 16 17  1  0  0  0
 17 18  2  0  0  0
 18 19  1  0  0  0
 19 20  1  0  0  0
  9  1  1  0  0  0
 26 21  1  0  0  0
 30 27  1  0  0  0
 20 11  2  0  0  0
  9  4  1  0  0  0
 19 15  1  0  0  0
  3 10  1  0  0  0
M  END
> <minimizedAffinity>
-8.89047

> <CNNscore>
0.3811821640

> <CNNaffinity>
6.5619707108

> <CNN_VS>
2.5013062954

> <CNNaffinity_variance>
0.4147439003

$$$$
[H]c1nc2c(C([H])([H])[H])c([H])c(-c3c(C([H])(C([H])([H])[H])C([H])([H])[H])c4c([H])c(C5([H])C([H])([H])C([H])([H])N(C6([H])C([H])([H])OC6([H])[H])C([H])([H])C5([H])[H])c([H])c([H])c4n3[H])c([H])n2n1


 33 38  0  0  0  0  0  0  0  0999 V2000
    3.8990    3.8043   17.8968 C   0  0  0  0  0  0  0  0  0  0  0  0
    3.9245    2.6796   18.7324 C   0  0  0  0  0  0  0  0  0  0  0  0
    3.5581    1.6156   18.0116 N   0  0  0  0  0  0  0  0  0  0  0  0
    3.2896    1.9843   16.7314 C   0  0  0  0  0  0  0  0  0  0  0  0
    2.9702    1.2218   15.6456 C   0  0  0  0  0  0  0  0  0  0  0  0
    2.8824    1.8645   14.4397 C   0  0  0  0  0  0  0  0  0  0  0  0
    3.1079    3.2273   14.3136 C   0  0  0  0  0  0  0  0  0  0  0  0
    3.4153    3.9652   15.4330 C   0  0  0  0  0  0  0  0  0  0  0  0
    3.5091    3.3501   16.6727 C   0  0  0  0  0  0  0  0  0  0  0  0
    3.4707    0.6318   18.3812 H   0  0  0  0  0  0  0  0  0  0  0  0
    4.4206    2.7437   20.0980 C   0  0  0  0  0  0  0  0  0  0  0  0
    5.4814    3.5576   20.4152 C   0  0  0  0  0  0  0  0  0  0  0  0
    5.9823    3.5580   21.6793 C   0  0  0  0  0  0  0  0  0  0  0  0
    7.0924    4.4633   22.0883 C   0  0  0  0  0  0  0  0  0  0  0  0
    5.4155    2.7288   22.6420 C   0  0  0  0  0  0  0  0  0  0  0  0
    5.7109    2.5089   23.9405 N   0  0  0  0  0  0  0  0  0  0  0  0
    4.8730    1.5854   24.4203 C   0  0  0  0  0  0  0  0  0  0  0  0
    4.0273    1.2200   23.4038 N   0  0  0  0  0  0  0  0  0  0  0  0
    4.3935    1.9372   22.3422 N   0  0  0  0  0  0  0  0  0  0  0  0
    3.8990    1.9377   21.1018 C   0  0  0  0  0  0  0  0  0  0  0  0
    3.1602    3.7683   12.9246 C   0  0  0  0  0  0  0  0  0  0  0  0
    4.5028    4.2246   12.4886 C   0  0  0  0  0  0  0  0  0  0  0  0
    4.4908    4.4990   10.9813 C   0  0  0  0  0  0  0  0  0  0  0  0
    3.1190    4.4100   10.5216 N   0  0  0  0  0  0  0  0  0  0  0  0
    2.6802    3.0014   10.6502 C   0  0  0  0  0  0  0  0  0  0  0  0
    2.8839    2.5092   12.0115 C   0  0  0  0  0  0  0  0  0  0  0  0
    2.9132    4.7738    9.1537 C   0  0  0  0  0  0  0  0  0  0  0  0
    4.0295    4.6835    8.1906 C   0  0  0  0  0  0  0  0  0  0  0  0
    3.0469    4.4946    7.1838 O   0  0  0  0  0  0  0  0  0  0  0  0
    2.2588    3.8791    8.1891 C   0  0  0  0  0  0  0  0  0  0  0  0
    3.3037    6.1936   18.0847 C   0  0  0  0  0  0  0  0  0  0  0  0
    4.3712    5.1416   18.3325 C   0  0  0  0  0  0  0  0  0  0  0  0
    5.5793    5.5271   17.4371 C   0  0  0  0  0  0  0  0  0  0  0  0
 31 32  1  0  0  0
 32 33  1  0  0  0
 32  1  1  0  0  0
  1  2  2  0  0  0
  2  3  1  0  0  0
  3  4  1  0  0  0
  4  5  2  0  0  0
  5  6  1  0  0  0
  6  7  2  0  0  0
  7  8  1  0  0  0
  8  9  2  0  0  0
  7 21  1  0  0  0
 21 22  1  0  0  0
 22 23  1  0  0  0
 23 24  1  0  0  0
 24 25  1  0  0  0
 25 26  1  0  0  0
 24 27  1  0  0  0
 27 28  1  0  0  0
 28 29  1  0  0  0
 29 30  1  0  0  0
  2 11  1  0  0  0
 11 12  1  0  0  0
 12 13  2  0  0  0
 13 14  1  0  0  0
 13 15  1  0  0  0
 15 16  2  0  0  0
 16 17  1  0  0  0
 17 18  2  0  0  0
 18 19  1  0  0  0
 19 20  1  0  0  0
  9  1  1  0  0  0
 26 21  1  0  0  0
 30 27  1  0  0  0
 20 11  2  0  0  0
  9  4  1  0  0  0
 19 15  1  0  0  0
  3 10  1  0  0  0
M  END
> <minimizedAffinity>
-8.17640

> <CNNscore>
0.3531531096

> <CNNaffinity>
6.6351585388

> <CNN_VS>
2.3432269096

> <CNNaffinity_variance>
0.3960668743

$$$$
[H]c1nc2c(C([H])([H])[H])c([H])c(-c3c(C([H])(C([H])([H])[H])C([H])([H])[H])c4c([H])c(C5([H])C([H])([H])C([H])([H])N(C6([H])C([H])([H])OC6([H])[H])C([H])([H])C5([H])[H])c([H])c([H])c4n3[H])c([H])n2n1


 33 38  0  0  0  0  0  0  0  0999 V2000
    2.2591    4.4110   13.5181 C   0  0  0  0  0  0  0  0  0  0  0  0
    2.8528    3.1585   13.7246 C   0  0  0  0  0  0  0  0  0  0  0  0
    3.0848    2.6046   12.5308 N   0  0  0  0  0  0  0  0  0  0  0  0
    2.6706    3.4352   11.5381 C   0  0  0  0  0  0  0  0  0  0  0  0
    2.7903    3.3148   10.1840 C   0  0  0  0  0  0  0  0  0  0  0  0
    2.3909    4.3843    9.4279 C   0  0  0  0  0  0  0  0  0  0  0  0
    1.8885    5.5437    9.9999 C   0  0  0  0  0  0  0  0  0  0  0  0
    1.7709    5.6232   11.3681 C   0  0  0  0  0  0  0  0  0  0  0  0
    2.1611    4.5585   12.1671 C   0  0  0  0  0  0  0  0  0  0  0  0
    3.5112    1.6527   12.3749 H   0  0  0  0  0  0  0  0  0  0  0  0
    3.2410    2.6971   15.0481 C   0  0  0  0  0  0  0  0  0  0  0  0
    2.7877    1.4907   15.5248 C   0  0  0  0  0  0  0  0  0  0  0  0
    3.0991    1.1004   16.7896 C   0  0  0  0  0  0  0  0  0  0  0  0
    2.6814   -0.2223   17.3329 C   0  0  0  0  0  0  0  0  0  0  0  0
    3.8741    1.9312   17.5925 C   0  0  0  0  0  0  0  0  0  0  0  0
    4.3110    1.8168   18.8644 N   0  0  0  0  0  0  0  0  0  0  0  0
    5.0062    2.9136   19.1791 C   0  0  0  0  0  0  0  0  0  0  0  0
    5.0127    3.7340   18.0797 N   0  0  0  0  0  0  0  0  0  0  0  0
    4.3122    3.0994   17.1405 N   0  0  0  0  0  0  0  0  0  0  0  0
    4.0091    3.4827   15.8978 C   0  0  0  0  0  0  0  0  0  0  0  0
    1.6622    6.6964    9.0807 C   0  0  0  0  0  0  0  0  0  0  0  0
    2.4142    7.9257    9.4333 C   0  0  0  0  0  0  0  0  0  0  0  0
    2.3187    8.9366    8.2860 C   0  0  0  0  0  0  0  0  0  0  0  0
    1.3612    8.4304    7.3227 N   0  0  0  0  0  0  0  0  0  0  0  0
    1.9310    7.2119    6.7030 C   0  0  0  0  0  0  0  0  0  0  0  0
    2.3219    6.2379    7.7205 C   0  0  0  0  0  0  0  0  0  0  0  0
    1.0521    9.3229    6.2486 C   0  0  0  0  0  0  0  0  0  0  0  0
   -0.3426    9.4602    5.7820 C   0  0  0  0  0  0  0  0  0  0  0  0
    0.0047   10.7720    5.3655 O   0  0  0  0  0  0  0  0  0  0  0  0
    0.9311   10.7749    6.4391 C   0  0  0  0  0  0  0  0  0  0  0  0
    0.6463    6.0566   14.4065 C   0  0  0  0  0  0  0  0  0  0  0  0
    1.9795    5.3612   14.6227 C   0  0  0  0  0  0  0  0  0  0  0  0
    3.0634    6.4713   14.5723 C   0  0  0  0  0  0  0  0  0  0  0  0
 31 32  1  0  0  0
 32 33  1  0  0  0
 32  1  1  0  0  0
  1  2  2  0  0  0
  2  3  1  0  0  0
  3  4  1  0  0  0
  4  5  2  0  0  0
  5  6  1  0  0  0
  6  7  2  0  0  0
  7  8  1  0  0  0
  8  9  2  0  0  0
  7 21  1  0  0  0
 21 22  1  0  0  0
 22 23  1  0  0  0
 23 24  1  0  0  0
 24 25  1  0  0  0
 25 26  1  0  0  0
 24 27  1  0  0  0
 27 28  1  0  0  0
 28 29  1  0  0  0
 29 30  1  0  0  0
  2 11  1  0  0  0
 11 12  1  0  0  0
 12 13  2  0  0  0
 13 14  1  0  0  0
 13 15  1  0  0  0
 15 16  2  0  0  0
 16 17  1  0  0  0
 17 18  2  0  0  0
 18 19  1  0  0  0
 19 20  1  0  0  0
  9  1  1  0  0  0
 26 21  1  0  0  0
 30 27  1  0  0  0
 20 11  2  0  0  0
  9  4  1  0  0  0
 19 15  1  0  0  0
  3 10  1  0  0  0
M  END
> <minimizedAffinity>
-7.58877

> <CNNscore>
0.2571680546

> <CNNaffinity>
5.9114379883

> <CNN_VS>
1.5202330351

> <CNNaffinity_variance>
0.1240818873

$$$$
[H]c1nc2c(C([H])([H])[H])c([H])c(-c3c(C([H])(C([H])([H])[H])C([H])([H])[H])c4c([H])c(C5([H])C([H])([H])C([H])([H])N(C6([H])C([H])([H])OC6([H])[H])C([H])([H])C5([H])[H])c([H])c([H])c4n3[H])c([H])n2n1


 33 38  0  0  0  0  0  0  0  0999 V2000
    1.8757    4.3253   13.7468 C   0  0  0  0  0  0  0  0  0  0  0  0
    2.0853    4.9878   14.9637 C   0  0  0  0  0  0  0  0  0  0  0  0
    1.2648    6.0415   15.0122 N   0  0  0  0  0  0  0  0  0  0  0  0
    0.5178    6.1087   13.8789 C   0  0  0  0  0  0  0  0  0  0  0  0
   -0.4958    6.9587   13.5434 C   0  0  0  0  0  0  0  0  0  0  0  0
   -1.1599    6.7018   12.3737 C   0  0  0  0  0  0  0  0  0  0  0  0
   -0.8291    5.6286   11.5596 C   0  0  0  0  0  0  0  0  0  0  0  0
    0.2071    4.8009   11.9247 C   0  0  0  0  0  0  0  0  0  0  0  0
    0.9062    5.0316   13.1004 C   0  0  0  0  0  0  0  0  0  0  0  0
    1.2122    6.7350   15.8050 H   0  0  0  0  0  0  0  0  0  0  0  0
    2.9646    4.4538   15.9918 C   0  0  0  0  0  0  0  0  0  0  0  0
    4.1620    5.0678   16.2706 C   0  0  0  0  0  0  0  0  0  0  0  0
    5.0084    4.5215   17.1839 C   0  0  0  0  0  0  0  0  0  0  0  0
    6.2905    5.1781   17.5637 C   0  0  0  0  0  0  0  0  0  0  0  0
    4.6535    3.3401   17.8272 C   0  0  0  0  0  0  0  0  0  0  0  0
    5.2886    2.5764   18.7412 N   0  0  0  0  0  0  0  0  0  0  0  0
    4.5234    1.5174   19.0209 C   0  0  0  0  0  0  0  0  0  0  0  0
    3.3788    1.6192   18.2717 N   0  0  0  0  0  0  0  0  0  0  0  0
    3.5008    2.7393   17.5604 N   0  0  0  0  0  0  0  0  0  0  0  0
    2.6676    3.2761   16.6655 C   0  0  0  0  0  0  0  0  0  0  0  0
   -1.7435    5.3550   10.4134 C   0  0  0  0  0  0  0  0  0  0  0  0
   -1.7437    3.9474    9.9447 C   0  0  0  0  0  0  0  0  0  0  0  0
   -2.9005    3.7298    8.9639 C   0  0  0  0  0  0  0  0  0  0  0  0
   -3.4874    5.0223    8.6710 N   0  0  0  0  0  0  0  0  0  0  0  0
   -4.1318    5.5263    9.9056 C   0  0  0  0  0  0  0  0  0  0  0  0
   -3.1891    5.5411   11.0227 C   0  0  0  0  0  0  0  0  0  0  0  0
   -4.5006    5.0134    7.6614 C   0  0  0  0  0  0  0  0  0  0  0  0
   -4.2745    5.7190    6.3836 C   0  0  0  0  0  0  0  0  0  0  0  0
   -5.1737    4.7899    5.7977 O   0  0  0  0  0  0  0  0  0  0  0  0
   -4.7168    3.8650    6.7706 C   0  0  0  0  0  0  0  0  0  0  0  0
    3.0994    3.0774   12.0022 C   0  0  0  0  0  0  0  0  0  0  0  0
    2.5281    3.0363   13.4092 C   0  0  0  0  0  0  0  0  0  0  0  0
    1.4276    1.9415   13.4011 C   0  0  0  0  0  0  0  0  0  0  0  0
 31 32  1  0  0  0
 32 33  1  0  0  0
 32  1  1  0  0  0
  1  2  2  0  0  0
  2  3  1  0  0  0
  3  4  1  0  0  0
  4  5  2  0  0  0
  5  6  1  0  0  0
  6  7  2  0  0  0
  7  8  1  0  0  0
  8  9  2  0  0  0
  7 21  1  0  0  0
 21 22  1  0  0  0
 22 23  1  0  0  0
 23 24  1  0  0  0
 24 25  1  0  0  0
 25 26  1  0  0  0
 24 27  1  0  0  0
 27 28  1  0  0  0
 28 29  1  0  0  0
 29 30  1  0  0  0
  2 11  1  0  0  0
 11 12  1  0  0  0
 12 13  2  0  0  0
 13 14  1  0  0  0
 13 15  1  0  0  0
 15 16  2  0  0  0
 16 17  1  0  0  0
 17 18  2  0  0  0
 18 19  1  0  0  0
 19 20  1  0  0  0
  9  1  1  0  0  0
 26 21  1  0  0  0
 30 27  1  0  0  0
 20 11  2  0  0  0
  9  4  1  0  0  0
 19 15  1  0  0  0
  3 10  1  0  0  0
M  END
> <minimizedAffinity>
-7.10208

> <CNNscore>
0.2463063449

> <CNNaffinity>
6.1298189163

> <CNN_VS>
1.5098133087

> <CNNaffinity_variance>
0.0996709019

$$$$
[H]c1nc2c(C([H])([H])[H])c([H])c(-c3c(C([H])(C([H])([H])[H])C([H])([H])[H])c4c([H])c(C5([H])C([H])([H])C([H])([H])N(C6([H])C([H])([H])OC6([H])[H])C([H])([H])C5([H])[H])c([H])c([H])c4n3[H])c([H])n2n1


 33 38  0  0  0  0  0  0  0  0999 V2000
    2.6515    4.4818   13.9062 C   0  0  0  0  0  0  0  0  0  0  0  0
    2.3805    4.6116   15.2749 C   0  0  0  0  0  0  0  0  0  0  0  0
    1.4395    5.5481   15.4273 N   0  0  0  0  0  0  0  0  0  0  0  0
    1.0724    6.0475   14.2179 C   0  0  0  0  0  0  0  0  0  0  0  0
    0.0966    6.9461   13.8974 C   0  0  0  0  0  0  0  0  0  0  0  0
   -0.1339    7.1635   12.5652 C   0  0  0  0  0  0  0  0  0  0  0  0
    0.5828    6.5050   11.5770 C   0  0  0  0  0  0  0  0  0  0  0  0
    1.5675    5.6155   11.9389 C   0  0  0  0  0  0  0  0  0  0  0  0
    1.8330    5.3722   13.2785 C   0  0  0  0  0  0  0  0  0  0  0  0
    1.0467    5.8704   16.3514 H   0  0  0  0  0  0  0  0  0  0  0  0
    2.9725    3.7271   16.2661 C   0  0  0  0  0  0  0  0  0  0  0  0
    2.7080    2.3788   16.2417 C   0  0  0  0  0  0  0  0  0  0  0  0
    3.2097    1.5710   17.2136 C   0  0  0  0  0  0  0  0  0  0  0  0
    3.0005    0.0961   17.2001 C   0  0  0  0  0  0  0  0  0  0  0  0
    3.9864    2.1203   18.2288 C   0  0  0  0  0  0  0  0  0  0  0  0
    4.5843    1.5782   19.3106 N   0  0  0  0  0  0  0  0  0  0  0  0
    5.1951    2.5498   19.9947 C   0  0  0  0  0  0  0  0  0  0  0  0
    4.9828    3.7287   19.3261 N   0  0  0  0  0  0  0  0  0  0  0  0
    4.2429    3.4219   18.2613 N   0  0  0  0  0  0  0  0  0  0  0  0
    3.7528    4.2159   17.3061 C   0  0  0  0  0  0  0  0  0  0  0  0
    0.1119    6.6941   10.1743 C   0  0  0  0  0  0  0  0  0  0  0  0
    0.9492    6.0292    9.1458 C   0  0  0  0  0  0  0  0  0  0  0  0
    0.2292    6.0615    7.7938 C   0  0  0  0  0  0  0  0  0  0  0  0
   -0.9413    6.9053    7.9307 N   0  0  0  0  0  0  0  0  0  0  0  0
   -1.8909    6.2312    8.8457 C   0  0  0  0  0  0  0  0  0  0  0  0
   -1.2493    5.8947   10.1152 C   0  0  0  0  0  0  0  0  0  0  0  0
   -1.6563    7.1518    6.7167 C   0  0  0  0  0  0  0  0  0  0  0  0
   -3.0337    7.6830    6.7669 C   0  0  0  0  0  0  0  0  0  0  0  0
   -2.7824    8.2482    5.4893 O   0  0  0  0  0  0  0  0  0  0  0  0
   -1.4275    8.3486    5.8953 C   0  0  0  0  0  0  0  0  0  0  0  0
    4.4571    4.0251   12.2846 C   0  0  0  0  0  0  0  0  0  0  0  0
    3.5569    3.4412   13.3599 C   0  0  0  0  0  0  0  0  0  0  0  0
    2.6752    2.3737   12.6579 C   0  0  0  0  0  0  0  0  0  0  0  0
 31 32  1  0  0  0
 32 33  1  0  0  0
 32  1  1  0  0  0
  1  2  2  0  0  0
  2  3  1  0  0  0
  3  4  1  0  0  0
  4  5  2  0  0  0
  5  6  1  0  0  0
  6  7  2  0  0  0
  7  8  1  0  0  0
  8  9  2  0  0  0
  7 21  1  0  0  0
 21 22  1  0  0  0
 22 23  1  0  0  0
 23 24  1  0  0  0
 24 25  1  0  0  0
 25 26  1  0  0  0
 24 27  1  0  0  0
 27 28  1  0  0  0
 28 29  1  0  0  0
 29 30  1  0  0  0
  2 11  1  0  0  0
 11 12  1  0  0  0
 12 13  2  0  0  0
 13 14  1  0  0  0
 13 15  1  0  0  0
 15 16  2  0  0  0
 16 17  1  0  0  0
 17 18  2  0  0  0
 18 19  1  0  0  0
 19 20  1  0  0  0
  9  1  1  0  0  0
 26 21  1  0  0  0
 30 27  1  0  0  0
 20 11  2  0  0  0
  9  4  1  0  0  0
 19 15  1  0  0  0
  3 10  1  0  0  0
M  END
> <minimizedAffinity>
-7.73455

> <CNNscore>
0.2278401256

> <CNNaffinity>
5.9443759918

> <CNN_VS>
1.3543673754

> <CNNaffinity_variance>
0.0924655348

$$$$
[H]c1nc2c(C([H])([H])[H])c([H])c(-c3c(C([H])(C([H])([H])[H])C([H])([H])[H])c4c([H])c(C5([H])C([H])([H])C([H])([H])N(C6([H])C([H])([H])OC6([H])[H])C([H])([H])C5([H])[H])c([H])c([H])c4n3[H])c([H])n2n1


 33 38  0  0  0  0  0  0  0  0999 V2000
    3.8042    3.3384   15.9531 C   0  0  0  0  0  0  0  0  0  0  0  0
    4.3461    4.6073   16.1982 C   0  0  0  0  0  0  0  0  0  0  0  0
    4.3797    5.2773   15.0425 N   0  0  0  0  0  0  0  0  0  0  0  0
    3.8831    4.5082   14.0381 C   0  0  0  0  0  0  0  0  0  0  0  0
    3.6509    4.8148   12.7287 C   0  0  0  0  0  0  0  0  0  0  0  0
    3.0139    3.8673   11.9728 C   0  0  0  0  0  0  0  0  0  0  0  0
    2.6153    2.6489   12.5022 C   0  0  0  0  0  0  0  0  0  0  0  0
    2.8780    2.3706   13.8234 C   0  0  0  0  0  0  0  0  0  0  0  0
    3.5252    3.3038   14.6199 C   0  0  0  0  0  0  0  0  0  0  0  0
    4.7529    6.2557   14.9177 H   0  0  0  0  0  0  0  0  0  0  0  0
    4.6522    5.0692   17.5429 C   0  0  0  0  0  0  0  0  0  0  0  0
    5.8567    5.6725   17.8138 C   0  0  0  0  0  0  0  0  0  0  0  0
    6.1617    6.0376   19.0877 C   0  0  0  0  0  0  0  0  0  0  0  0
    7.4281    6.7463   19.4241 C   0  0  0  0  0  0  0  0  0  0  0  0
    5.2486    5.7929   20.1085 C   0  0  0  0  0  0  0  0  0  0  0  0
    5.2886    6.0215   21.4381 N   0  0  0  0  0  0  0  0  0  0  0  0
    4.1554    5.5716   21.9847 C   0  0  0  0  0  0  0  0  0  0  0  0
    3.3821    5.0539   20.9768 N   0  0  0  0  0  0  0  0  0  0  0  0
    4.0851    5.2072   19.8553 N   0  0  0  0  0  0  0  0  0  0  0  0
    3.7835    4.8504   18.6043 C   0  0  0  0  0  0  0  0  0  0  0  0
    1.7735    1.7846   11.6251 C   0  0  0  0  0  0  0  0  0  0  0  0
    0.7365    2.5114   10.8521 C   0  0  0  0  0  0  0  0  0  0  0  0
    0.1273    1.5783    9.8007 C   0  0  0  0  0  0  0  0  0  0  0  0
    0.6297    0.2409   10.0450 N   0  0  0  0  0  0  0  0  0  0  0  0
    2.0823    0.2343    9.7563 C   0  0  0  0  0  0  0  0  0  0  0  0
    2.7738    1.2763   10.5131 C   0  0  0  0  0  0  0  0  0  0  0  0
    0.0513   -0.7824    9.2300 C   0  0  0  0  0  0  0  0  0  0  0  0
   -1.2825   -0.5800    8.6283 C   0  0  0  0  0  0  0  0  0  0  0  0
   -0.8723   -1.4712    7.6024 O   0  0  0  0  0  0  0  0  0  0  0  0
    0.4423   -0.9905    7.8289 C   0  0  0  0  0  0  0  0  0  0  0  0
    4.6946    1.4668   17.2957 C   0  0  0  0  0  0  0  0  0  0  0  0
    3.5011    2.3698   17.0353 C   0  0  0  0  0  0  0  0  0  0  0  0
    2.3581    1.4474   16.5327 C   0  0  0  0  0  0  0  0  0  0  0  0
 31 32  1  0  0  0
 32 33  1  0  0  0
 32  1  1  0  0  0
  1  2  2  0  0  0
  2  3  1  0  0  0
  3  4  1  0  0  0
  4  5  2  0  0  0
  5  6  1  0  0  0
  6  7  2  0  0  0
  7  8  1  0  0  0
  8  9  2  0  0  0
  7 21  1  0  0  0
 21 22  1  0  0  0
 22 23  1  0  0  0
 23 24  1  0  0  0
 24 25  1  0  0  0
 25 26  1  0  0  0
 24 27  1  0  0  0
 27 28  1  0  0  0
 28 29  1  0  0  0
 29 30  1  0  0  0
  2 11  1  0  0  0
 11 12  1  0  0  0
 12 13  2  0  0  0
 13 14  1  0  0  0
 13 15  1  0  0  0
 15 16  2  0  0  0
 16 17  1  0  0  0
 17 18  2  0  0  0
 18 19  1  0  0  0
 19 20  1  0  0  0
  9  1  1  0  0  0
 26 21  1  0  0  0
 30 27  1  0  0  0
 20 11  2  0  0  0
  9  4  1  0  0  0
 19 15  1  0  0  0
  3 10  1  0  0  0
M  END
> <minimizedAffinity>
-7.88328

> <CNNscore>
0.1669662744

> <CNNaffinity>
6.0235986710

> <CNN_VS>
1.0057377815

> <CNNaffinity_variance>
0.1474162340

$$$$
[H]c1nc(N([H])c2c([H])c([H])c([H])c([H])c2[H])nc(Oc2c([H])c([H])c(N([H])C(=O)N([H])c3c([H])c(C(C([H])([H])[H])(C([H])([H])[H])C([H])([H])[H])nn3-c3c([H])c([H])c(OC([H])([H])[H])c([H])c3[H])c3c([H])c([H])c([H])c([H])c23)c1[H]


 48 53  0  0  0  0  0  0  0  0999 V2000
    4.4142    4.2627   17.2445 C   0  0  0  0  0  0  0  0  0  0  0  0
    4.3951    4.9213   16.0489 C   0  0  0  0  0  0  0  0  0  0  0  0
    3.9902    4.3116   14.8754 C   0  0  0  0  0  0  0  0  0  0  0  0
    3.5785    2.9741   14.8679 C   0  0  0  0  0  0  0  0  0  0  0  0
    3.5889    2.3184   16.0511 C   0  0  0  0  0  0  0  0  0  0  0  0
    3.1359    1.0010   16.1394 C   0  0  0  0  0  0  0  0  0  0  0  0
    3.0709    0.2769   17.2968 C   0  0  0  0  0  0  0  0  0  0  0  0
    3.4783    0.8913   18.4526 C   0  0  0  0  0  0  0  0  0  0  0  0
    3.9349    2.2015   18.4179 C   0  0  0  0  0  0  0  0  0  0  0  0
    3.9956    2.9195   17.2480 C   0  0  0  0  0  0  0  0  0  0  0  0
    4.7908    6.0845   20.5741 N   0  0  0  0  0  0  0  0  0  0  0  0
    4.2568    5.5591   19.3997 C   0  0  0  0  0  0  0  0  0  0  0  0
    2.9973    5.8570   19.2214 O   0  0  0  0  0  0  0  0  0  0  0  0
    4.9387    4.7957   18.4654 N   0  0  0  0  0  0  0  0  0  0  0  0
    4.0596    6.6692   21.1463 H   0  0  0  0  0  0  0  0  0  0  0  0
    5.9727    4.6425   18.6524 H   0  0  0  0  0  0  0  0  0  0  0  0
    6.4868    4.7676   21.7643 N   0  0  0  0  0  0  0  0  0  0  0  0
    7.7193    4.9753   22.1920 N   0  0  0  0  0  0  0  0  0  0  0  0
    8.1507    6.1969   21.9562 C   0  0  0  0  0  0  0  0  0  0  0  0
    7.0745    6.8238   21.3112 C   0  0  0  0  0  0  0  0  0  0  0  0
    6.0306    5.9420   21.1864 C   0  0  0  0  0  0  0  0  0  0  0  0
    4.1442    1.3430   22.2692 C   0  0  0  0  0  0  0  0  0  0  0  0
    3.7446    2.5402   22.7565 C   0  0  0  0  0  0  0  0  0  0  0  0
    4.5487    3.6411   22.5762 C   0  0  0  0  0  0  0  0  0  0  0  0
    5.7704    3.5371   21.8979 C   0  0  0  0  0  0  0  0  0  0  0  0
    6.1556    2.3313   21.4160 C   0  0  0  0  0  0  0  0  0  0  0  0
    5.3491    1.2075   21.5930 C   0  0  0  0  0  0  0  0  0  0  0  0
    3.2557   -0.7667   21.4005 C   0  0  0  0  0  0  0  0  0  0  0  0
    3.3513    0.1992   22.4314 O   0  0  0  0  0  0  0  0  0  0  0  0
    9.4583    6.8214   22.2797 C   0  0  0  0  0  0  0  0  0  0  0  0
   10.5820    6.0205   21.6838 C   0  0  0  0  0  0  0  0  0  0  0  0
    9.6056    6.8686   23.7852 C   0  0  0  0  0  0  0  0  0  0  0  0
    9.4987    8.2267   21.7684 C   0  0  0  0  0  0  0  0  0  0  0  0
    3.1894    2.4024   13.6702 O   0  0  0  0  0  0  0  0  0  0  0  0
    2.1036    2.9124   12.9441 C   0  0  0  0  0  0  0  0  0  0  0  0
    1.3064    3.9478   13.3677 C   0  0  0  0  0  0  0  0  0  0  0  0
    0.2384    4.4158   12.6147 C   0  0  0  0  0  0  0  0  0  0  0  0
    0.0014    3.8132   11.4354 N   0  0  0  0  0  0  0  0  0  0  0  0
    0.7541    2.8028   10.9902 C   0  0  0  0  0  0  0  0  0  0  0  0
    1.7803    2.3782   11.7484 N   0  0  0  0  0  0  0  0  0  0  0  0
    0.4548    2.1966    9.7520 N   0  0  0  0  0  0  0  0  0  0  0  0
    0.4457    2.8432    8.8948 H   0  0  0  0  0  0  0  0  0  0  0  0
    0.1645    0.8594    9.4847 C   0  0  0  0  0  0  0  0  0  0  0  0
    1.1254   -0.1138    9.4941 C   0  0  0  0  0  0  0  0  0  0  0  0
    0.8255   -1.4496    9.1833 C   0  0  0  0  0  0  0  0  0  0  0  0
   -0.4840   -1.7556    8.8654 C   0  0  0  0  0  0  0  0  0  0  0  0
   -1.4608   -0.7960    8.8511 C   0  0  0  0  0  0  0  0  0  0  0  0
   -1.1554    0.5015    9.1557 C   0  0  0  0  0  0  0  0  0  0  0  0
 28 29  1  0  0  0
 29 22  1  0  0  0
 22 23  2  0  0  0
 23 24  1  0  0  0
 24 25  2  0  0  0
 25 26  1  0  0  0
 26 27  2  0  0  0
 25 17  1  0  0  0
 17 18  1  0  0  0
 18 19  2  0  0  0
 19 20  1  0  0  0
 20 21  2  0  0  0
 21 11  1  0  0  0
 11 12  1  0  0  0
 12 13  2  0  0  0
 12 14  1  0  0  0
 14  1  1  0  0  0
  1  2  2  0  0  0
  2  3  1  0  0  0
  3  4  2  0  0  0
  4 34  1  0  0  0
 34 35  1  0  0  0
 35 36  2  0  0  0
 36 37  1  0  0  0
 37 38  2  0  0  0
 38 39  1  0  0  0
 39 41  1  0  0  0
 41 43  1  0  0  0
 43 44  2  0  0  0
 44 45  1  0  0  0
 45 46  2  0  0  0
 46 47  1  0  0  0
 47 48  2  0  0  0
 39 40  2  0  0  0
  4  5  1  0  0  0
  5  6  2  0  0  0
  6  7  1  0  0  0
  7  8  2  0  0  0
  8  9  1  0  0  0
  9 10  2  0  0  0
 19 30  1  0  0  0
 30 31  1  0  0  0
 30 32  1  0  0  0
 30 33  1  0  0  0
 27 22  1  0  0  0
 21 17  1  0  0  0
 10  1  1  0  0  0
 40 35  1  0  0  0
 10  5  1  0  0  0
 48 43  1  0  0  0
 11 15  1  0  0  0
 14 16  1  0  0  0
 41 42  1  0  0  0
M  END
> <minimizedAffinity>
-9.77403

> <CNNscore>
0.1203599423

> <CNNaffinity>
7.0382461548

> <CNN_VS>
0.8471229076

> <CNNaffinity_variance>
0.4002547860

$$$$
[H]c1nc(N([H])c2c([H])c([H])c([H])c([H])c2[H])nc(Oc2c([H])c([H])c(N([H])C(=O)N([H])c3c([H])c(C(C([H])([H])[H])(C([H])([H])[H])C([H])([H])[H])nn3-c3c([H])c([H])c(OC([H])([H])[H])c([H])c3[H])c3c([H])c([H])c([H])c([H])c23)c1[H]


 48 53  0  0  0  0  0  0  0  0999 V2000
    4.2054    3.9364   17.0599 C   0  0  0  0  0  0  0  0  0  0  0  0
    4.2595    4.4846   15.8109 C   0  0  0  0  0  0  0  0  0  0  0  0
    3.9104    3.7748   14.6763 C   0  0  0  0  0  0  0  0  0  0  0  0
    3.4820    2.4456   14.7662 C   0  0  0  0  0  0  0  0  0  0  0  0
    3.4200    1.8993   16.0022 C   0  0  0  0  0  0  0  0  0  0  0  0
    2.9454    0.5990   16.1833 C   0  0  0  0  0  0  0  0  0  0  0  0
    2.8086   -0.0171   17.3956 C   0  0  0  0  0  0  0  0  0  0  0  0
    3.1613    0.6957   18.5123 C   0  0  0  0  0  0  0  0  0  0  0  0
    3.6363    1.9937   18.3854 C   0  0  0  0  0  0  0  0  0  0  0  0
    3.7695    2.6025   17.1609 C   0  0  0  0  0  0  0  0  0  0  0  0
    4.3983    5.9702   20.2808 N   0  0  0  0  0  0  0  0  0  0  0  0
    3.9225    5.3432   19.1315 C   0  0  0  0  0  0  0  0  0  0  0  0
    2.6501    5.5468   18.9160 O   0  0  0  0  0  0  0  0  0  0  0  0
    4.6704    4.5730   18.2551 N   0  0  0  0  0  0  0  0  0  0  0  0
    3.6198    6.5380   20.8056 H   0  0  0  0  0  0  0  0  0  0  0  0
    5.7083    4.4993   18.4670 H   0  0  0  0  0  0  0  0  0  0  0  0
    6.1666    4.8299   21.5457 N   0  0  0  0  0  0  0  0  0  0  0  0
    7.3701    5.1474   21.9882 N   0  0  0  0  0  0  0  0  0  0  0  0
    7.7100    6.3907   21.7187 C   0  0  0  0  0  0  0  0  0  0  0  0
    6.6019    6.9099   21.0334 C   0  0  0  0  0  0  0  0  0  0  0  0
    5.6325    5.9454   20.9199 C   0  0  0  0  0  0  0  0  0  0  0  0
    4.0926    1.2496   22.1382 C   0  0  0  0  0  0  0  0  0  0  0  0
    3.6155    2.4206   22.6193 C   0  0  0  0  0  0  0  0  0  0  0  0
    4.3327    3.5750   22.4098 C   0  0  0  0  0  0  0  0  0  0  0  0
    5.5454    3.5520   21.7083 C   0  0  0  0  0  0  0  0  0  0  0  0
    6.0091    2.3713   21.2330 C   0  0  0  0  0  0  0  0  0  0  0  0
    5.2910    1.1939   21.4395 C   0  0  0  0  0  0  0  0  0  0  0  0
    3.3736   -0.9455   21.3260 C   0  0  0  0  0  0  0  0  0  0  0  0
    3.3893    0.0530   22.3299 O   0  0  0  0  0  0  0  0  0  0  0  0
    8.9581    7.1260   22.0443 C   0  0  0  0  0  0  0  0  0  0  0  0
    9.7577    6.3709   23.0689 C   0  0  0  0  0  0  0  0  0  0  0  0
    8.5824    8.4869   22.5893 C   0  0  0  0  0  0  0  0  0  0  0  0
    9.7715    7.3339   20.8061 C   0  0  0  0  0  0  0  0  0  0  0  0
    3.1505    1.7715   13.6050 O   0  0  0  0  0  0  0  0  0  0  0  0
    2.1906    2.2833   12.7201 C   0  0  0  0  0  0  0  0  0  0  0  0
    1.7472    1.6302   11.5960 C   0  0  0  0  0  0  0  0  0  0  0  0
    0.7971    2.1802   10.7466 C   0  0  0  0  0  0  0  0  0  0  0  0
    0.3147    3.3958   11.0619 N   0  0  0  0  0  0  0  0  0  0  0  0
    0.7221    4.0622   12.1462 C   0  0  0  0  0  0  0  0  0  0  0  0
    1.6437    3.4958   12.9449 N   0  0  0  0  0  0  0  0  0  0  0  0
    0.1939    5.3405   12.4246 N   0  0  0  0  0  0  0  0  0  0  0  0
   -0.8760    5.4120   12.4803 H   0  0  0  0  0  0  0  0  0  0  0  0
    0.8767    6.5372   12.6383 C   0  0  0  0  0  0  0  0  0  0  0  0
    1.1549    7.4117   11.6244 C   0  0  0  0  0  0  0  0  0  0  0  0
    1.8788    8.5938   11.8477 C   0  0  0  0  0  0  0  0  0  0  0  0
    2.3051    8.8509   13.1367 C   0  0  0  0  0  0  0  0  0  0  0  0
    2.0360    7.9884   14.1658 C   0  0  0  0  0  0  0  0  0  0  0  0
    1.3301    6.8404   13.9348 C   0  0  0  0  0  0  0  0  0  0  0  0
 28 29  1  0  0  0
 29 22  1  0  0  0
 22 23  2  0  0  0
 23 24  1  0  0  0
 24 25  2  0  0  0
 25 26  1  0  0  0
 26 27  2  0  0  0
 25 17  1  0  0  0
 17 18  1  0  0  0
 18 19  2  0  0  0
 19 20  1  0  0  0
 20 21  2  0  0  0
 21 11  1  0  0  0
 11 12  1  0  0  0
 12 13  2  0  0  0
 12 14  1  0  0  0
 14  1  1  0  0  0
  1  2  2  0  0  0
  2  3  1  0  0  0
  3  4  2  0  0  0
  4 34  1  0  0  0
 34 35  1  0  0  0
 35 36  2  0  0  0
 36 37  1  0  0  0
 37 38  2  0  0  0
 38 39  1  0  0  0
 39 41  1  0  0  0
 41 43  1  0  0  0
 43 44  2  0  0  0
 44 45  1  0  0  0
 45 46  2  0  0  0
 46 47  1  0  0  0
 47 48  2  0  0  0
 39 40  2  0  0  0
  4  5  1  0  0  0
  5  6  2  0  0  0
  6  7  1  0  0  0
  7  8  2  0  0  0
  8  9  1  0  0  0
  9 10  2  0  0  0
 19 30  1  0  0  0
 30 31  1  0  0  0
 30 32  1  0  0  0
 30 33  1  0  0  0
 27 22  1  0  0  0
 21 17  1  0  0  0
 10  1  1  0  0  0
 40 35  1  0  0  0
 10  5  1  0  0  0
 48 43  1  0  0  0
 11 15  1  0  0  0
 14 16  1  0  0  0
 41 42  1  0  0  0
M  END
> <minimizedAffinity>
-9.75685

> <CNNscore>
0.0973461121

> <CNNaffinity>
7.2744736671

> <CNN_VS>
0.7081417441

> <CNNaffinity_variance>
0.3207523823

$$$$
[H]c1nc(N([H])c2c([H])c([H])c([H])c([H])c2[H])nc(Oc2c([H])c([H])c(N([H])C(=O)N([H])c3c([H])c(C(C([H])([H])[H])(C([H])([H])[H])C([H])([H])[H])nn3-c3c([H])c([H])c(OC([H])([H])[H])c([H])c3[H])c3c([H])c([H])c([H])c([H])c23)c1[H]


 48 53  0  0  0  0  0  0  0  0999 V2000
    4.8880    4.9312   19.7547 C   0  0  0  0  0  0  0  0  0  0  0  0
    4.1657    5.5230   18.7591 C   0  0  0  0  0  0  0  0  0  0  0  0
    3.4697    4.7902   17.8148 C   0  0  0  0  0  0  0  0  0  0  0  0
    3.4800    3.3911   17.8435 C   0  0  0  0  0  0  0  0  0  0  0  0
    4.1887    2.7992   18.8323 C   0  0  0  0  0  0  0  0  0  0  0  0
    4.2002    1.4098   18.9668 C   0  0  0  0  0  0  0  0  0  0  0  0
    4.8517    0.7298   19.9574 C   0  0  0  0  0  0  0  0  0  0  0  0
    5.5407    1.4673   20.8851 C   0  0  0  0  0  0  0  0  0  0  0  0
    5.5577    2.8523   20.7964 C   0  0  0  0  0  0  0  0  0  0  0  0
    4.8987    3.5249   19.7958 C   0  0  0  0  0  0  0  0  0  0  0  0
    6.2477    6.6534   22.8744 N   0  0  0  0  0  0  0  0  0  0  0  0
    5.4226    5.9592   21.9926 C   0  0  0  0  0  0  0  0  0  0  0  0
    4.2694    5.6283   22.5095 O   0  0  0  0  0  0  0  0  0  0  0  0
    5.7281    5.6268   20.6823 N   0  0  0  0  0  0  0  0  0  0  0  0
    5.7806    6.8117   23.8545 H   0  0  0  0  0  0  0  0  0  0  0  0
    6.6610    5.9782   20.3166 H   0  0  0  0  0  0  0  0  0  0  0  0
    7.9585    8.1806   21.9979 N   0  0  0  0  0  0  0  0  0  0  0  0
    9.2530    8.3625   22.1881 N   0  0  0  0  0  0  0  0  0  0  0  0
    9.7792    7.4996   23.0322 C   0  0  0  0  0  0  0  0  0  0  0  0
    8.7000    6.6889   23.4134 C   0  0  0  0  0  0  0  0  0  0  0  0
    7.5589    7.1040   22.7742 C   0  0  0  0  0  0  0  0  0  0  0  0
    5.6822   10.3055   19.2096 C   0  0  0  0  0  0  0  0  0  0  0  0
    6.6330    9.4288   18.8120 C   0  0  0  0  0  0  0  0  0  0  0  0
    7.3657    8.7560   19.7614 C   0  0  0  0  0  0  0  0  0  0  0  0
    7.1403    8.9675   21.1281 C   0  0  0  0  0  0  0  0  0  0  0  0
    6.1845    9.8483   21.5095 C   0  0  0  0  0  0  0  0  0  0  0  0
    5.4353   10.5370   20.5561 C   0  0  0  0  0  0  0  0  0  0  0  0
    3.9132   11.9173   18.6925 C   0  0  0  0  0  0  0  0  0  0  0  0
    4.9141   11.0082   18.2719 O   0  0  0  0  0  0  0  0  0  0  0  0
   11.1809    7.3654   23.5029 C   0  0  0  0  0  0  0  0  0  0  0  0
   12.0837    8.2814   22.7250 C   0  0  0  0  0  0  0  0  0  0  0  0
   11.6156    5.9293   23.3055 C   0  0  0  0  0  0  0  0  0  0  0  0
   11.2657    7.6760   24.9638 C   0  0  0  0  0  0  0  0  0  0  0  0
    2.7765    2.6986   16.8749 O   0  0  0  0  0  0  0  0  0  0  0  0
    2.8460    3.0714   15.5249 C   0  0  0  0  0  0  0  0  0  0  0  0
    3.9542    3.6237   14.9300 C   0  0  0  0  0  0  0  0  0  0  0  0
    3.9739    3.9811   13.5889 C   0  0  0  0  0  0  0  0  0  0  0  0
    2.8537    3.7677   12.8751 N   0  0  0  0  0  0  0  0  0  0  0  0
    1.7560    3.2335   13.4186 C   0  0  0  0  0  0  0  0  0  0  0  0
    1.7764    2.8999   14.7211 N   0  0  0  0  0  0  0  0  0  0  0  0
    0.6027    3.0427   12.6288 N   0  0  0  0  0  0  0  0  0  0  0  0
    0.2747    2.0282   12.5020 H   0  0  0  0  0  0  0  0  0  0  0  0
   -0.1778    3.9999   11.9819 C   0  0  0  0  0  0  0  0  0  0  0  0
   -0.7182    5.0698   12.6404 C   0  0  0  0  0  0  0  0  0  0  0  0
   -1.5357    6.0037   11.9842 C   0  0  0  0  0  0  0  0  0  0  0  0
   -1.7796    5.8085   10.6382 C   0  0  0  0  0  0  0  0  0  0  0  0
   -1.2472    4.7442    9.9606 C   0  0  0  0  0  0  0  0  0  0  0  0
   -0.4527    3.8417   10.6116 C   0  0  0  0  0  0  0  0  0  0  0  0
 28 29  1  0  0  0
 29 22  1  0  0  0
 22 23  2  0  0  0
 23 24  1  0  0  0
 24 25  2  0  0  0
 25 26  1  0  0  0
 26 27  2  0  0  0
 25 17  1  0  0  0
 17 18  1  0  0  0
 18 19  2  0  0  0
 19 20  1  0  0  0
 20 21  2  0  0  0
 21 11  1  0  0  0
 11 12  1  0  0  0
 12 13  2  0  0  0
 12 14  1  0  0  0
 14  1  1  0  0  0
  1  2  2  0  0  0
  2  3  1  0  0  0
  3  4  2  0  0  0
  4 34  1  0  0  0
 34 35  1  0  0  0
 35 36  2  0  0  0
 36 37  1  0  0  0
 37 38  2  0  0  0
 38 39  1  0  0  0
 39 41  1  0  0  0
 41 43  1  0  0  0
 43 44  2  0  0  0
 44 45  1  0  0  0
 45 46  2  0  0  0
 46 47  1  0  0  0
 47 48  2  0  0  0
 39 40  2  0  0  0
  4  5  1  0  0  0
  5  6  2  0  0  0
  6  7  1  0  0  0
  7  8  2  0  0  0
  8  9  1  0  0  0
  9 10  2  0  0  0
 19 30  1  0  0  0
 30 31  1  0  0  0
 30 32  1  0  0  0
 30 33  1  0  0  0
 27 22  1  0  0  0
 21 17  1  0  0  0
 10  1  1  0  0  0
 40 35  1  0  0  0
 10  5  1  0  0  0
 48 43  1  0  0  0
 11 15  1  0  0  0
 14 16  1  0  0  0
 41 42  1  0  0  0
M  END
> <minimizedAffinity>
-9.35303

> <CNNscore>
0.0758981556

> <CNNaffinity>
6.7172803879

> <CNN_VS>
0.5098291636

> <CNNaffinity_variance>
0.1776975095

$$$$
[H]c1nc(N([H])c2c([H])c([H])c([H])c([H])c2[H])nc(Oc2c([H])c([H])c(N([H])C(=O)N([H])c3c([H])c(C(C([H])([H])[H])(C([H])([H])[H])C([H])([H])[H])nn3-c3c([H])c([H])c(OC([H])([H])[H])c([H])c3[H])c3c([H])c([H])c([H])c([H])c23)c1[H]


 48 53  0  0  0  0  0  0  0  0999 V2000
    4.2584    4.6722   17.1629 C   0  0  0  0  0  0  0  0  0  0  0  0
    4.1769    5.5004   16.0809 C   0  0  0  0  0  0  0  0  0  0  0  0
    3.8212    5.0432   14.8250 C   0  0  0  0  0  0  0  0  0  0  0  0
    3.5273    3.6918   14.6112 C   0  0  0  0  0  0  0  0  0  0  0  0
    3.5998    2.8675   15.6815 C   0  0  0  0  0  0  0  0  0  0  0  0
    3.2633    1.5177   15.5650 C   0  0  0  0  0  0  0  0  0  0  0  0
    3.2665    0.6235   16.5986 C   0  0  0  0  0  0  0  0  0  0  0  0
    3.6242    1.0883   17.8378 C   0  0  0  0  0  0  0  0  0  0  0  0
    3.9650    2.4231   18.0062 C   0  0  0  0  0  0  0  0  0  0  0  0
    3.9580    3.3128   16.9591 C   0  0  0  0  0  0  0  0  0  0  0  0
    4.5117    6.0710   20.7022 N   0  0  0  0  0  0  0  0  0  0  0  0
    4.0192    5.6877   19.4568 C   0  0  0  0  0  0  0  0  0  0  0  0
    2.7596    5.9861   19.2807 O   0  0  0  0  0  0  0  0  0  0  0  0
    4.7401    5.0570   18.4551 N   0  0  0  0  0  0  0  0  0  0  0  0
    3.7547    6.5686   21.3212 H   0  0  0  0  0  0  0  0  0  0  0  0
    5.7713    4.8977   18.6514 H   0  0  0  0  0  0  0  0  0  0  0  0
    6.1906    4.6459   21.7876 N   0  0  0  0  0  0  0  0  0  0  0  0
    7.4099    4.8154   22.2669 N   0  0  0  0  0  0  0  0  0  0  0  0
    7.8348    6.0584   22.1750 C   0  0  0  0  0  0  0  0  0  0  0  0
    6.7688    6.7432   21.5735 C   0  0  0  0  0  0  0  0  0  0  0  0
    5.7372    5.8724   21.3276 C   0  0  0  0  0  0  0  0  0  0  0  0
    4.3899    0.8780   21.6115 C   0  0  0  0  0  0  0  0  0  0  0  0
    5.5930    1.1044   21.0355 C   0  0  0  0  0  0  0  0  0  0  0  0
    6.1472    2.3607   21.1090 C   0  0  0  0  0  0  0  0  0  0  0  0
    5.4834    3.4030   21.7695 C   0  0  0  0  0  0  0  0  0  0  0  0
    4.2798    3.1596   22.3412 C   0  0  0  0  0  0  0  0  0  0  0  0
    3.7073    1.8899   22.2729 C   0  0  0  0  0  0  0  0  0  0  0  0
    2.6115   -0.6020   20.8104 C   0  0  0  0  0  0  0  0  0  0  0  0
    3.7943   -0.3892   21.5593 O   0  0  0  0  0  0  0  0  0  0  0  0
    9.1275    6.6538   22.5976 C   0  0  0  0  0  0  0  0  0  0  0  0
    8.9455    7.4634   23.8508 C   0  0  0  0  0  0  0  0  0  0  0  0
    9.6309    7.5438   21.4818 C   0  0  0  0  0  0  0  0  0  0  0  0
   10.1418    5.5773   22.8216 C   0  0  0  0  0  0  0  0  0  0  0  0
    3.1839    3.2770   13.3373 O   0  0  0  0  0  0  0  0  0  0  0  0
    2.4047    4.0864   12.4983 C   0  0  0  0  0  0  0  0  0  0  0  0
    1.0865    4.3972   12.7280 C   0  0  0  0  0  0  0  0  0  0  0  0
    0.3540    5.2003   11.8648 C   0  0  0  0  0  0  0  0  0  0  0  0
    0.9847    5.6738   10.7748 N   0  0  0  0  0  0  0  0  0  0  0  0
    2.2654    5.3927   10.5172 C   0  0  0  0  0  0  0  0  0  0  0  0
    2.9416    4.6115   11.3777 N   0  0  0  0  0  0  0  0  0  0  0  0
    2.8761    5.9039    9.3527 N   0  0  0  0  0  0  0  0  0  0  0  0
    3.7477    5.3828    9.0039 H   0  0  0  0  0  0  0  0  0  0  0  0
    2.5010    7.0053    8.5845 C   0  0  0  0  0  0  0  0  0  0  0  0
    2.8642    8.2827    8.9111 C   0  0  0  0  0  0  0  0  0  0  0  0
    2.4452    9.3861    8.1507 C   0  0  0  0  0  0  0  0  0  0  0  0
    1.6474    9.1402    7.0496 C   0  0  0  0  0  0  0  0  0  0  0  0
    1.2736    7.8686    6.7053 C   0  0  0  0  0  0  0  0  0  0  0  0
    1.6884    6.8027    7.4545 C   0  0  0  0  0  0  0  0  0  0  0  0
 28 29  1  0  0  0
 29 22  1  0  0  0
 22 23  2  0  0  0
 23 24  1  0  0  0
 24 25  2  0  0  0
 25 26  1  0  0  0
 26 27  2  0  0  0
 25 17  1  0  0  0
 17 18  1  0  0  0
 18 19  2  0  0  0
 19 20  1  0  0  0
 20 21  2  0  0  0
 21 11  1  0  0  0
 11 12  1  0  0  0
 12 13  2  0  0  0
 12 14  1  0  0  0
 14  1  1  0  0  0
  1  2  2  0  0  0
  2  3  1  0  0  0
  3  4  2  0  0  0
  4 34  1  0  0  0
 34 35  1  0  0  0
 35 36  2  0  0  0
 36 37  1  0  0  0
 37 38  2  0  0  0
 38 39  1  0  0  0
 39 41  1  0  0  0
 41 43  1  0  0  0
 43 44  2  0  0  0
 44 45  1  0  0  0
 45 46  2  0  0  0
 46 47  1  0  0  0
 47 48  2  0  0  0
 39 40  2  0  0  0
  4  5  1  0  0  0
  5  6  2  0  0  0
  6  7  1  0  0  0
  7  8  2  0  0  0
  8  9  1  0  0  0
  9 10  2  0  0  0
 19 30  1  0  0  0
 30 31  1  0  0  0
 30 32  1  0  0  0
 30 33  1  0  0  0
 27 22  1  0  0  0
 21 17  1  0  0  0
 10  1  1  0  0  0
 40 35  1  0  0  0
 10  5  1  0  0  0
 48 43  1  0  0  0
 11 15  1  0  0  0
 14 16  1  0  0  0
 41 42  1  0  0  0
M  END
> <minimizedAffinity>
-9.49324

> <CNNscore>
0.0586578436

> <CNNaffinity>
6.8729987144

> <CNN_VS>
0.4031552970

> <CNNaffinity_variance>
0.2122964412

$$$$
[H]c1nc(N([H])c2c([H])c([H])c([H])c([H])c2[H])nc(Oc2c([H])c([H])c(N([H])C(=O)N([H])c3c([H])c(C(C([H])([H])[H])(C([H])([H])[H])C([H])([H])[H])nn3-c3c([H])c([H])c(OC([H])([H])[H])c([H])c3[H])c3c([H])c([H])c([H])c([H])c23)c1[H]


 48 53  0  0  0  0  0  0  0  0999 V2000
    4.2336    4.5434   17.0852 C   0  0  0  0  0  0  0  0  0  0  0  0
    4.1586    5.3220   15.9665 C   0  0  0  0  0  0  0  0  0  0  0  0
    3.8012    4.8105   14.7322 C   0  0  0  0  0  0  0  0  0  0  0  0
    3.4985    3.4527   14.5797 C   0  0  0  0  0  0  0  0  0  0  0  0
    3.5645    2.6775   15.6865 C   0  0  0  0  0  0  0  0  0  0  0  0
    3.2192    1.3261   15.6311 C   0  0  0  0  0  0  0  0  0  0  0  0
    3.2156    0.4798   16.7043 C   0  0  0  0  0  0  0  0  0  0  0  0
    3.5750    0.9981   17.9215 C   0  0  0  0  0  0  0  0  0  0  0  0
    3.9245    2.3370   18.0294 C   0  0  0  0  0  0  0  0  0  0  0  0
    3.9244    3.1782   16.9430 C   0  0  0  0  0  0  0  0  0  0  0  0
    4.4925    6.0995   20.5577 N   0  0  0  0  0  0  0  0  0  0  0  0
    3.9987    5.6632   19.3304 C   0  0  0  0  0  0  0  0  0  0  0  0
    2.7411    5.9611   19.1395 O   0  0  0  0  0  0  0  0  0  0  0  0
    4.7165    4.9834   18.3592 N   0  0  0  0  0  0  0  0  0  0  0  0
    3.7380    6.6294   21.1527 H   0  0  0  0  0  0  0  0  0  0  0  0
    5.7466    4.8268   18.5636 H   0  0  0  0  0  0  0  0  0  0  0  0
    6.1509    4.7208   21.7308 N   0  0  0  0  0  0  0  0  0  0  0  0
    7.3739    4.9011   22.1963 N   0  0  0  0  0  0  0  0  0  0  0  0
    7.8186    6.1284   22.0233 C   0  0  0  0  0  0  0  0  0  0  0  0
    6.7623    6.7900   21.3801 C   0  0  0  0  0  0  0  0  0  0  0  0
    5.7162    5.9220   21.1928 C   0  0  0  0  0  0  0  0  0  0  0  0
    4.2820    0.9824   21.7840 C   0  0  0  0  0  0  0  0  0  0  0  0
    5.4545    1.1676   21.1348 C   0  0  0  0  0  0  0  0  0  0  0  0
    6.0323    2.4154   21.1344 C   0  0  0  0  0  0  0  0  0  0  0  0
    5.4236    3.4910   21.7946 C   0  0  0  0  0  0  0  0  0  0  0  0
    4.2501    3.2887   22.4401 C   0  0  0  0  0  0  0  0  0  0  0  0
    3.6540    2.0280   22.4472 C   0  0  0  0  0  0  0  0  0  0  0  0
    2.6993   -0.6253   20.8328 C   0  0  0  0  0  0  0  0  0  0  0  0
    3.6638   -0.2748   21.8083 O   0  0  0  0  0  0  0  0  0  0  0  0
    9.1219    6.7289   22.4044 C   0  0  0  0  0  0  0  0  0  0  0  0
   10.0771    6.6846   21.2447 C   0  0  0  0  0  0  0  0  0  0  0  0
    9.6894    5.9414   23.5654 C   0  0  0  0  0  0  0  0  0  0  0  0
    8.9257    8.1411   22.8573 C   0  0  0  0  0  0  0  0  0  0  0  0
    3.1537    2.9827   13.3256 O   0  0  0  0  0  0  0  0  0  0  0  0
    2.4132    3.7732   12.4351 C   0  0  0  0  0  0  0  0  0  0  0  0
    2.9668    4.6428   11.5272 C   0  0  0  0  0  0  0  0  0  0  0  0
    2.1911    5.4088   10.6679 C   0  0  0  0  0  0  0  0  0  0  0  0
    0.8553    5.2727   10.7525 N   0  0  0  0  0  0  0  0  0  0  0  0
    0.2802    4.4380   11.6232 C   0  0  0  0  0  0  0  0  0  0  0  0
    1.0656    3.7125   12.4387 N   0  0  0  0  0  0  0  0  0  0  0  0
   -1.1262    4.3425   11.6806 N   0  0  0  0  0  0  0  0  0  0  0  0
   -1.5587    3.4404   11.2907 H   0  0  0  0  0  0  0  0  0  0  0  0
   -2.0422    5.2685   12.1778 C   0  0  0  0  0  0  0  0  0  0  0  0
   -1.7062    6.1912   13.1296 C   0  0  0  0  0  0  0  0  0  0  0  0
   -2.6497    7.0910   13.6504 C   0  0  0  0  0  0  0  0  0  0  0  0
   -3.9419    7.0168   13.1663 C   0  0  0  0  0  0  0  0  0  0  0  0
   -4.2982    6.1008   12.2128 C   0  0  0  0  0  0  0  0  0  0  0  0
   -3.3696    5.2299   11.7141 C   0  0  0  0  0  0  0  0  0  0  0  0
 28 29  1  0  0  0
 29 22  1  0  0  0
 22 23  2  0  0  0
 23 24  1  0  0  0
 24 25  2  0  0  0
 25 26  1  0  0  0
 26 27  2  0  0  0
 25 17  1  0  0  0
 17 18  1  0  0  0
 18 19  2  0  0  0
 19 20  1  0  0  0
 20 21  2  0  0  0
 21 11  1  0  0  0
 11 12  1  0  0  0
 12 13  2  0  0  0
 12 14  1  0  0  0
 14  1  1  0  0  0
  1  2  2  0  0  0
  2  3  1  0  0  0
  3  4  2  0  0  0
  4 34  1  0  0  0
 34 35  1  0  0  0
 35 36  2  0  0  0
 36 37  1  0  0  0
 37 38  2  0  0  0
 38 39  1  0  0  0
 39 41  1  0  0  0
 41 43  1  0  0  0
 43 44  2  0  0  0
 44 45  1  0  0  0
 45 46  2  0  0  0
 46 47  1  0  0  0
 47 48  2  0  0  0
 39 40  2  0  0  0
  4  5  1  0  0  0
  5  6  2  0  0  0
  6  7  1  0  0  0
  7  8  2  0  0  0
  8  9  1  0  0  0
  9 10  2  0  0  0
 19 30  1  0  0  0
 30 31  1  0  0  0
 30 32  1  0  0  0
 30 33  1  0  0  0
 27 22  1  0  0  0
 21 17  1  0  0  0
 10  1  1  0  0  0
 40 35  1  0  0  0
 10  5  1  0  0  0
 48 43  1  0  0  0
 11 15  1  0  0  0
 14 16  1  0  0  0
 41 42  1  0  0  0
M  END
> <minimizedAffinity>
-10.75188

> <CNNscore>
0.0579577051

> <CNNaffinity>
7.0191292763

> <CNN_VS>
0.4068126380

> <CNNaffinity_variance>
0.3158481419

$$$$
[H]c1nc(N([H])c2c([H])c([H])c([H])c([H])c2[H])nc(Oc2c([H])c([H])c(N([H])C(=O)N([H])c3c([H])c(C(C([H])([H])[H])(C([H])([H])[H])C([H])([H])[H])nn3-c3c([H])c([H])c(OC([H])([H])[H])c([H])c3[H])c3c([H])c([H])c([H])c([H])c23)c1[H]


 48 53  0  0  0  0  0  0  0  0999 V2000
    3.9871    5.8769   16.5279 C   0  0  0  0  0  0  0  0  0  0  0  0
    3.9302    6.9480   15.6837 C   0  0  0  0  0  0  0  0  0  0  0  0
    3.7378    6.8062   14.3213 C   0  0  0  0  0  0  0  0  0  0  0  0
    3.5925    5.5387   13.7463 C   0  0  0  0  0  0  0  0  0  0  0  0
    3.6413    4.4738   14.5792 C   0  0  0  0  0  0  0  0  0  0  0  0
    3.4446    3.1800   14.0934 C   0  0  0  0  0  0  0  0  0  0  0  0
    3.4346    2.0525   14.8658 C   0  0  0  0  0  0  0  0  0  0  0  0
    3.6299    2.2059   16.2140 C   0  0  0  0  0  0  0  0  0  0  0  0
    3.8274    3.4723   16.7466 C   0  0  0  0  0  0  0  0  0  0  0  0
    3.8353    4.5987   15.9597 C   0  0  0  0  0  0  0  0  0  0  0  0
    3.7480    5.9946   20.3327 N   0  0  0  0  0  0  0  0  0  0  0  0
    3.4173    5.9053   18.9825 C   0  0  0  0  0  0  0  0  0  0  0  0
    2.1348    5.7789   18.7677 O   0  0  0  0  0  0  0  0  0  0  0  0
    4.3078    5.9479   17.9214 N   0  0  0  0  0  0  0  0  0  0  0  0
    2.8683    5.9521   20.9870 H   0  0  0  0  0  0  0  0  0  0  0  0
    5.3269    6.1080   18.1732 H   0  0  0  0  0  0  0  0  0  0  0  0
    5.6966    4.9292   21.3792 N   0  0  0  0  0  0  0  0  0  0  0  0
    6.8232    5.3463   21.9285 N   0  0  0  0  0  0  0  0  0  0  0  0
    6.9310    6.6584   21.9573 C   0  0  0  0  0  0  0  0  0  0  0  0
    5.7457    7.1145   21.3624 C   0  0  0  0  0  0  0  0  0  0  0  0
    4.9674    6.0447   20.9981 C   0  0  0  0  0  0  0  0  0  0  0  0
    4.4817    0.9323   21.2393 C   0  0  0  0  0  0  0  0  0  0  0  0
    4.4764    1.6233   22.4025 C   0  0  0  0  0  0  0  0  0  0  0  0
    4.8917    2.9342   22.4070 C   0  0  0  0  0  0  0  0  0  0  0  0
    5.3183    3.5584   21.2273 C   0  0  0  0  0  0  0  0  0  0  0  0
    5.3171    2.8527   20.0711 C   0  0  0  0  0  0  0  0  0  0  0  0
    4.8987    1.5225   20.0539 C   0  0  0  0  0  0  0  0  0  0  0  0
    2.7465   -0.7373   20.7959 C   0  0  0  0  0  0  0  0  0  0  0  0
    4.0638   -0.4044   21.1946 O   0  0  0  0  0  0  0  0  0  0  0  0
    8.0254    7.5100   22.4879 C   0  0  0  0  0  0  0  0  0  0  0  0
    9.2957    6.7154   22.6063 C   0  0  0  0  0  0  0  0  0  0  0  0
    7.6134    8.0229   23.8508 C   0  0  0  0  0  0  0  0  0  0  0  0
    8.2374    8.6918   21.5954 C   0  0  0  0  0  0  0  0  0  0  0  0
    3.4100    5.4434   12.3787 O   0  0  0  0  0  0  0  0  0  0  0  0
    4.4758    5.6473   11.4906 C   0  0  0  0  0  0  0  0  0  0  0  0
    5.4909    4.7462   11.2792 C   0  0  0  0  0  0  0  0  0  0  0  0
    6.5286    4.9950   10.3914 C   0  0  0  0  0  0  0  0  0  0  0  0
    6.5114    6.1676    9.7322 N   0  0  0  0  0  0  0  0  0  0  0  0
    5.5417    7.0693    9.9119 C   0  0  0  0  0  0  0  0  0  0  0  0
    4.5532    6.7913   10.7802 N   0  0  0  0  0  0  0  0  0  0  0  0
    5.5777    8.2898    9.2052 N   0  0  0  0  0  0  0  0  0  0  0  0
    6.0402    9.1180    9.7081 H   0  0  0  0  0  0  0  0  0  0  0  0
    5.0891    8.5726    7.9304 C   0  0  0  0  0  0  0  0  0  0  0  0
    4.0058    9.3817    7.7251 C   0  0  0  0  0  0  0  0  0  0  0  0
    3.5002    9.6251    6.4381 C   0  0  0  0  0  0  0  0  0  0  0  0
    4.1374    9.0174    5.3732 C   0  0  0  0  0  0  0  0  0  0  0  0
    5.2240    8.2046    5.5577 C   0  0  0  0  0  0  0  0  0  0  0  0
    5.7064    7.9757    6.8164 C   0  0  0  0  0  0  0  0  0  0  0  0
 28 29  1  0  0  0
 29 22  1  0  0  0
 22 23  2  0  0  0
 23 24  1  0  0  0
 24 25  2  0  0  0
 25 26  1  0  0  0
 26 27  2  0  0  0
 25 17  1  0  0  0
 17 18  1  0  0  0
 18 19  2  0  0  0
 19 20  1  0  0  0
 20 21  2  0  0  0
 21 11  1  0  0  0
 11 12  1  0  0  0
 12 13  2  0  0  0
 12 14  1  0  0  0
 14  1  1  0  0  0
  1  2  2  0  0  0
  2  3  1  0  0  0
  3  4  2  0  0  0
  4 34  1  0  0  0
 34 35  1  0  0  0
 35 36  2  0  0  0
 36 37  1  0  0  0
 37 38  2  0  0  0
 38 39  1  0  0  0
 39 41  1  0  0  0
 41 43  1  0  0  0
 43 44  2  0  0  0
 44 45  1  0  0  0
 45 46  2  0  0  0
 46 47  1  0  0  0
 47 48  2  0  0  0
 39 40  2  0  0  0
  4  5  1  0  0  0
  5  6  2  0  0  0
  6  7  1  0  0  0
  7  8  2  0  0  0
  8  9  1  0  0  0
  9 10  2  0  0  0
 19 30  1  0  0  0
 30 31  1  0  0  0
 30 32  1  0  0  0
 30 33  1  0  0  0
 27 22  1  0  0  0
 21 17  1  0  0  0
 10  1  1  0  0  0
 40 35  1  0  0  0
 10  5  1  0  0  0
 48 43  1  0  0  0
 11 15  1  0  0  0
 14 16  1  0  0  0
 41 42  1  0  0  0
M  END
> <minimizedAffinity>
-9.67220

> <CNNscore>
0.0423145629

> <CNNaffinity>
6.5847730637

> <CNN_VS>
0.2786318064

> <CNNaffinity_variance>
0.2336880863

$$$$
[H]c1nc(N([H])c2c([H])c([H])c([H])c([H])c2[H])nc(Oc2c([H])c([H])c(N([H])C(=O)N([H])c3c([H])c(C(C([H])([H])[H])(C([H])([H])[H])C([H])([H])[H])nn3-c3c([H])c([H])c(OC([H])([H])[H])c([H])c3[H])c3c([H])c([H])c([H])c([H])c23)c1[H]


 48 53  0  0  0  0  0  0  0  0999 V2000
    3.9114    5.2314   15.4992 C   0  0  0  0  0  0  0  0  0  0  0  0
    3.9577    3.9565   15.0136 C   0  0  0  0  0  0  0  0  0  0  0  0
    3.7019    3.6609   13.6869 C   0  0  0  0  0  0  0  0  0  0  0  0
    3.3797    4.6737   12.7764 C   0  0  0  0  0  0  0  0  0  0  0  0
    3.3390    5.9400   13.2507 C   0  0  0  0  0  0  0  0  0  0  0  0
    3.0849    7.0133   12.3950 C   0  0  0  0  0  0  0  0  0  0  0  0
    3.0666    8.3253   12.7774 C   0  0  0  0  0  0  0  0  0  0  0  0
    3.3183    8.6049   14.0957 C   0  0  0  0  0  0  0  0  0  0  0  0
    3.5792    7.5727   14.9861 C   0  0  0  0  0  0  0  0  0  0  0  0
    3.5948    6.2572   14.5897 C   0  0  0  0  0  0  0  0  0  0  0  0
    3.1979    5.8858   19.1884 N   0  0  0  0  0  0  0  0  0  0  0  0
    3.0568    5.5166   17.8527 C   0  0  0  0  0  0  0  0  0  0  0  0
    1.8617    5.0794   17.5567 O   0  0  0  0  0  0  0  0  0  0  0  0
    4.0413    5.5877   16.8798 N   0  0  0  0  0  0  0  0  0  0  0  0
    2.2729    5.7537   19.7634 H   0  0  0  0  0  0  0  0  0  0  0  0
    4.9690    6.0051   17.1838 H   0  0  0  0  0  0  0  0  0  0  0  0
    5.1474    5.4540   20.6168 N   0  0  0  0  0  0  0  0  0  0  0  0
    6.1038    6.1851   21.1607 N   0  0  0  0  0  0  0  0  0  0  0  0
    5.9791    7.4717   20.9093 C   0  0  0  0  0  0  0  0  0  0  0  0
    4.8209    7.5584   20.1232 C   0  0  0  0  0  0  0  0  0  0  0  0
    4.2930    6.3059   19.9345 C   0  0  0  0  0  0  0  0  0  0  0  0
    4.7604    1.3459   21.2835 C   0  0  0  0  0  0  0  0  0  0  0  0
    4.8124    2.2189   22.3158 C   0  0  0  0  0  0  0  0  0  0  0  0
    4.9485    3.5619   22.0537 C   0  0  0  0  0  0  0  0  0  0  0  0
    5.0341    4.0335   20.7370 C   0  0  0  0  0  0  0  0  0  0  0  0
    4.9801    3.1463   19.7148 C   0  0  0  0  0  0  0  0  0  0  0  0
    4.8427    1.7819   19.9679 C   0  0  0  0  0  0  0  0  0  0  0  0
    3.4429   -0.7112   21.1175 C   0  0  0  0  0  0  0  0  0  0  0  0
    4.6201   -0.0296   21.5107 O   0  0  0  0  0  0  0  0  0  0  0  0
    6.8316    8.6098   21.3365 C   0  0  0  0  0  0  0  0  0  0  0  0
    7.2423    9.4310   20.1464 C   0  0  0  0  0  0  0  0  0  0  0  0
    8.0602    8.0546   22.0240 C   0  0  0  0  0  0  0  0  0  0  0  0
    6.0971    9.4619   22.3225 C   0  0  0  0  0  0  0  0  0  0  0  0
    3.1237    4.3317   11.4611 O   0  0  0  0  0  0  0  0  0  0  0  0
    4.1358    3.8198   10.6364 C   0  0  0  0  0  0  0  0  0  0  0  0
    5.4227    4.2988   10.6016 C   0  0  0  0  0  0  0  0  0  0  0  0
    6.3903    3.7613    9.7639 C   0  0  0  0  0  0  0  0  0  0  0  0
    6.0233    2.7384    8.9709 N   0  0  0  0  0  0  0  0  0  0  0  0
    4.7811    2.2459    8.9760 C   0  0  0  0  0  0  0  0  0  0  0  0
    3.8721    2.7932    9.8021 N   0  0  0  0  0  0  0  0  0  0  0  0
    4.4444    1.1804    8.1148 N   0  0  0  0  0  0  0  0  0  0  0  0
    4.6610    1.3234    7.0729 H   0  0  0  0  0  0  0  0  0  0  0  0
    3.8616   -0.0456    8.4329 C   0  0  0  0  0  0  0  0  0  0  0  0
    2.6138   -0.3972    7.9975 C   0  0  0  0  0  0  0  0  0  0  0  0
    2.0233   -1.6185    8.3593 C   0  0  0  0  0  0  0  0  0  0  0  0
    2.7488   -2.4645    9.1762 C   0  0  0  0  0  0  0  0  0  0  0  0
    3.9999   -2.1313    9.6220 C   0  0  0  0  0  0  0  0  0  0  0  0
    4.5636   -0.9386    9.2624 C   0  0  0  0  0  0  0  0  0  0  0  0
 28 29  1  0  0  0
 29 22  1  0  0  0
 22 23  2  0  0  0
 23 24  1  0  0  0
 24 25  2  0  0  0
 25 26  1  0  0  0
 26 27  2  0  0  0
 25 17  1  0  0  0
 17 18  1  0  0  0
 18 19  2  0  0  0
 19 20  1  0  0  0
 20 21  2  0  0  0
 21 11  1  0  0  0
 11 12  1  0  0  0
 12 13  2  0  0  0
 12 14  1  0  0  0
 14  1  1  0  0  0
  1  2  2  0  0  0
  2  3  1  0  0  0
  3  4  2  0  0  0
  4 34  1  0  0  0
 34 35  1  0  0  0
 35 36  2  0  0  0
 36 37  1  0  0  0
 37 38  2  0  0  0
 38 39  1  0  0  0
 39 41  1  0  0  0
 41 43  1  0  0  0
 43 44  2  0  0  0
 44 45  1  0  0  0
 45 46  2  0  0  0
 46 47  1  0  0  0
 47 48  2  0  0  0
 39 40  2  0  0  0
  4  5  1  0  0  0
  5  6  2  0  0  0
  6  7  1  0  0  0
  7  8  2  0  0  0
  8  9  1  0  0  0
  9 10  2  0  0  0
 19 30  1  0  0  0
 30 31  1  0  0  0
 30 32  1  0  0  0
 30 33  1  0  0  0
 27 22  1  0  0  0
 21 17  1  0  0  0
 10  1  1  0  0  0
 40 35  1  0  0  0
 10  5  1  0  0  0
 48 43  1  0  0  0
 11 15  1  0  0  0
 14 16  1  0  0  0
 41 42  1  0  0  0
M  END
> <minimizedAffinity>
-9.10424

> <CNNscore>
0.0402156636

> <CNNaffinity>
6.6544823647

> <CNN_VS>
0.2676144242

> <CNNaffinity_variance>
0.2656589448

$$$$
[H]c1nc(N([H])c2c([H])c([H])c([H])c([H])c2[H])nc(Oc2c([H])c([H])c(N([H])C(=O)N([H])c3c([H])c(C(C([H])([H])[H])(C([H])([H])[H])C([H])([H])[H])nn3-c3c([H])c([H])c(OC([H])([H])[H])c([H])c3[H])c3c([H])c([H])c([H])c([H])c23)c1[H]


 48 53  0  0  0  0  0  0  0  0999 V2000
    4.0388    7.0292   11.8965 C   0  0  0  0  0  0  0  0  0  0  0  0
    4.1079    7.6889   13.0895 C   0  0  0  0  0  0  0  0  0  0  0  0
    3.8514    7.0635   14.2962 C   0  0  0  0  0  0  0  0  0  0  0  0
    3.5048    5.7085   14.3414 C   0  0  0  0  0  0  0  0  0  0  0  0
    3.4416    5.0478   13.1626 C   0  0  0  0  0  0  0  0  0  0  0  0
    3.1621    3.6806   13.1264 C   0  0  0  0  0  0  0  0  0  0  0  0
    3.1199    2.9254   11.9880 C   0  0  0  0  0  0  0  0  0  0  0  0
    3.3725    3.5576   10.7981 C   0  0  0  0  0  0  0  0  0  0  0  0
    3.6581    4.9158   10.7812 C   0  0  0  0  0  0  0  0  0  0  0  0
    3.6976    5.6647   11.9325 C   0  0  0  0  0  0  0  0  0  0  0  0
    5.4432    8.6955    8.7663 N   0  0  0  0  0  0  0  0  0  0  0  0
    5.3401    8.0810   10.0121 C   0  0  0  0  0  0  0  0  0  0  0  0
    6.4879    7.9402   10.6199 O   0  0  0  0  0  0  0  0  0  0  0  0
    4.1685    7.6452   10.6106 N   0  0  0  0  0  0  0  0  0  0  0  0
    6.4759    8.9654    8.5123 H   0  0  0  0  0  0  0  0  0  0  0  0
    3.2707    7.8445   10.0797 H   0  0  0  0  0  0  0  0  0  0  0  0
    4.8093    9.0069    6.4150 N   0  0  0  0  0  0  0  0  0  0  0  0
    3.6822    9.2100    5.7566 N   0  0  0  0  0  0  0  0  0  0  0  0
    2.6309    9.3003    6.5444 C   0  0  0  0  0  0  0  0  0  0  0  0
    3.1530    9.1362    7.8357 C   0  0  0  0  0  0  0  0  0  0  0  0
    4.5112    8.9530    7.7676 C   0  0  0  0  0  0  0  0  0  0  0  0
    8.5885    8.9566    4.6301 C   0  0  0  0  0  0  0  0  0  0  0  0
    7.8727   10.1014    4.7171 C   0  0  0  0  0  0  0  0  0  0  0  0
    6.6297   10.0735    5.3045 C   0  0  0  0  0  0  0  0  0  0  0  0
    6.0990    8.8794    5.8104 C   0  0  0  0  0  0  0  0  0  0  0  0
    6.8286    7.7421    5.7156 C   0  0  0  0  0  0  0  0  0  0  0  0
    8.0902    7.7576    5.1216 C   0  0  0  0  0  0  0  0  0  0  0  0
   11.0043    9.3249    4.7823 C   0  0  0  0  0  0  0  0  0  0  0  0
    9.8594    8.9458    4.0403 O   0  0  0  0  0  0  0  0  0  0  0  0
    1.2042    9.5274    6.2019 C   0  0  0  0  0  0  0  0  0  0  0  0
    0.9972    9.4080    4.7179 C   0  0  0  0  0  0  0  0  0  0  0  0
    0.8176   10.9161    6.6626 C   0  0  0  0  0  0  0  0  0  0  0  0
    0.3381    8.5444    6.9241 C   0  0  0  0  0  0  0  0  0  0  0  0
    3.2491    5.1258   15.5693 O   0  0  0  0  0  0  0  0  0  0  0  0
    4.0003    5.4677   16.7029 C   0  0  0  0  0  0  0  0  0  0  0  0
    5.2006    4.8907   17.0396 C   0  0  0  0  0  0  0  0  0  0  0  0
    5.9065    5.2600   18.1763 C   0  0  0  0  0  0  0  0  0  0  0  0
    5.3698    6.2174   18.9543 N   0  0  0  0  0  0  0  0  0  0  0  0
    4.2044    6.8011   18.6602 C   0  0  0  0  0  0  0  0  0  0  0  0
    3.5506    6.4164   17.5499 N   0  0  0  0  0  0  0  0  0  0  0  0
    3.6787    7.7911   19.5170 N   0  0  0  0  0  0  0  0  0  0  0  0
    2.9940    7.4531   20.2719 H   0  0  0  0  0  0  0  0  0  0  0  0
    3.9271    9.1630   19.5181 C   0  0  0  0  0  0  0  0  0  0  0  0
    3.2036   10.0380   18.7558 C   0  0  0  0  0  0  0  0  0  0  0  0
    3.4915   11.4120   18.7362 C   0  0  0  0  0  0  0  0  0  0  0  0
    4.5382   11.8591   19.5198 C   0  0  0  0  0  0  0  0  0  0  0  0
    5.2741   10.9993   20.2907 C   0  0  0  0  0  0  0  0  0  0  0  0
    4.9834    9.6633   20.3006 C   0  0  0  0  0  0  0  0  0  0  0  0
 28 29  1  0  0  0
 29 22  1  0  0  0
 22 23  2  0  0  0
 23 24  1  0  0  0
 24 25  2  0  0  0
 25 26  1  0  0  0
 26 27  2  0  0  0
 25 17  1  0  0  0
 17 18  1  0  0  0
 18 19  2  0  0  0
 19 20  1  0  0  0
 20 21  2  0  0  0
 21 11  1  0  0  0
 11 12  1  0  0  0
 12 13  2  0  0  0
 12 14  1  0  0  0
 14  1  1  0  0  0
  1  2  2  0  0  0
  2  3  1  0  0  0
  3  4  2  0  0  0
  4 34  1  0  0  0
 34 35  1  0  0  0
 35 36  2  0  0  0
 36 37  1  0  0  0
 37 38  2  0  0  0
 38 39  1  0  0  0
 39 41  1  0  0  0
 41 43  1  0  0  0
 43 44  2  0  0  0
 44 45  1  0  0  0
 45 46  2  0  0  0
 46 47  1  0  0  0
 47 48  2  0  0  0
 39 40  2  0  0  0
  4  5  1  0  0  0
  5  6  2  0  0  0
  6  7  1  0  0  0
  7  8  2  0  0  0
  8  9  1  0  0  0
  9 10  2  0  0  0
 19 30  1  0  0  0
 30 31  1  0  0  0
 30 32  1  0  0  0
 30 33  1  0  0  0
 27 22  1  0  0  0
 21 17  1  0  0  0
 10  1  1  0  0  0
 40 35  1  0  0  0
 10  5  1  0  0  0
 48 43  1  0  0  0
 11 15  1  0  0  0
 14 16  1  0  0  0
 41 42  1  0  0  0
M  END
> <minimizedAffinity>
-9.71044

> <CNNscore>
0.0381015129

> <CNNaffinity>
5.9305024147

> <CNN_VS>
0.2259611189

> <CNNaffinity_variance>
0.1367172301

$$$$
[H]c1nc(N([H])c2c([H])c([H])c([H])c([H])c2[H])nc(Oc2c([H])c([H])c(N([H])C(=O)N([H])c3c([H])c(C(C([H])([H])[H])(C([H])([H])[H])C([H])([H])[H])nn3-c3c([H])c([H])c(OC([H])([H])[H])c([H])c3[H])c3c([H])c([H])c([H])c([H])c23)c1[H]


 48 53  0  0  0  0  0  0  0  0999 V2000
    4.2634    5.5477   16.9277 C   0  0  0  0  0  0  0  0  0  0  0  0
    4.1409    6.5570   16.0169 C   0  0  0  0  0  0  0  0  0  0  0  0
    3.8004    6.3242   14.6967 C   0  0  0  0  0  0  0  0  0  0  0  0
    3.5653    5.0239   14.2360 C   0  0  0  0  0  0  0  0  0  0  0  0
    3.6786    4.0202   15.1360 C   0  0  0  0  0  0  0  0  0  0  0  0
    3.4014    2.7016   14.7711 C   0  0  0  0  0  0  0  0  0  0  0  0
    3.4484    1.6330   15.6219 C   0  0  0  0  0  0  0  0  0  0  0  0
    3.7905    1.8763   16.9269 C   0  0  0  0  0  0  0  0  0  0  0  0
    4.0730    3.1709   17.3401 C   0  0  0  0  0  0  0  0  0  0  0  0
    4.0223    4.2374   16.4753 C   0  0  0  0  0  0  0  0  0  0  0  0
    4.4643    6.2558   20.6701 N   0  0  0  0  0  0  0  0  0  0  0  0
    3.9841    6.0871   19.3734 C   0  0  0  0  0  0  0  0  0  0  0  0
    2.7061    6.3314   19.2554 O   0  0  0  0  0  0  0  0  0  0  0  0
    4.7332    5.7082   18.2707 N   0  0  0  0  0  0  0  0  0  0  0  0
    3.6836    6.5754   21.3717 H   0  0  0  0  0  0  0  0  0  0  0  0
    5.7746    5.5815   18.4346 H   0  0  0  0  0  0  0  0  0  0  0  0
    6.1261    4.7897   21.7267 N   0  0  0  0  0  0  0  0  0  0  0  0
    7.3716    4.9183   22.1474 N   0  0  0  0  0  0  0  0  0  0  0  0
    7.8458    6.1377   21.9979 C   0  0  0  0  0  0  0  0  0  0  0  0
    6.7850    6.8515   21.4215 C   0  0  0  0  0  0  0  0  0  0  0  0
    5.7065    6.0210   21.2480 C   0  0  0  0  0  0  0  0  0  0  0  0
    4.0796    1.1464   21.6305 C   0  0  0  0  0  0  0  0  0  0  0  0
    4.9491    1.4848   20.6507 C   0  0  0  0  0  0  0  0  0  0  0  0
    5.5958    2.6966   20.7156 C   0  0  0  0  0  0  0  0  0  0  0  0
    5.3652    3.5799   21.7786 C   0  0  0  0  0  0  0  0  0  0  0  0
    4.4918    3.2257   22.7516 C   0  0  0  0  0  0  0  0  0  0  0  0
    3.8295    1.9998   22.6967 C   0  0  0  0  0  0  0  0  0  0  0  0
    2.6260   -0.4500   20.4757 C   0  0  0  0  0  0  0  0  0  0  0  0
    3.4032   -0.0804   21.6001 O   0  0  0  0  0  0  0  0  0  0  0  0
    9.1809    6.6867   22.3452 C   0  0  0  0  0  0  0  0  0  0  0  0
    9.2023    7.1427   23.7773 C   0  0  0  0  0  0  0  0  0  0  0  0
    9.4684    7.8578   21.4307 C   0  0  0  0  0  0  0  0  0  0  0  0
   10.2382    5.6533   22.1170 C   0  0  0  0  0  0  0  0  0  0  0  0
    3.2352    4.8366   12.9061 O   0  0  0  0  0  0  0  0  0  0  0  0
    4.0585    5.3236   11.8807 C   0  0  0  0  0  0  0  0  0  0  0  0
    5.2529    4.7550   11.5105 C   0  0  0  0  0  0  0  0  0  0  0  0
    6.0365    5.2767   10.4905 C   0  0  0  0  0  0  0  0  0  0  0  0
    5.5837    6.3775    9.8635 N   0  0  0  0  0  0  0  0  0  0  0  0
    4.4276    6.9593   10.1958 C   0  0  0  0  0  0  0  0  0  0  0  0
    3.6964    6.4238   11.1892 N   0  0  0  0  0  0  0  0  0  0  0  0
    4.0044    8.1204    9.5153 N   0  0  0  0  0  0  0  0  0  0  0  0
    3.3874    8.8005   10.0717 H   0  0  0  0  0  0  0  0  0  0  0  0
    4.2786    8.5105    8.2051 C   0  0  0  0  0  0  0  0  0  0  0  0
    5.1980    9.4781    7.9071 C   0  0  0  0  0  0  0  0  0  0  0  0
    5.4344    9.8892    6.5857 C   0  0  0  0  0  0  0  0  0  0  0  0
    4.7037    9.2793    5.5839 C   0  0  0  0  0  0  0  0  0  0  0  0
    3.7793    8.3079    5.8614 C   0  0  0  0  0  0  0  0  0  0  0  0
    3.5585    7.9168    7.1528 C   0  0  0  0  0  0  0  0  0  0  0  0
 28 29  1  0  0  0
 29 22  1  0  0  0
 22 23  2  0  0  0
 23 24  1  0  0  0
 24 25  2  0  0  0
 25 26  1  0  0  0
 26 27  2  0  0  0
 25 17  1  0  0  0
 17 18  1  0  0  0
 18 19  2  0  0  0
 19 20  1  0  0  0
 20 21  2  0  0  0
 21 11  1  0  0  0
 11 12  1  0  0  0
 12 13  2  0  0  0
 12 14  1  0  0  0
 14  1  1  0  0  0
  1  2  2  0  0  0
  2  3  1  0  0  0
  3  4  2  0  0  0
  4 34  1  0  0  0
 34 35  1  0  0  0
 35 36  2  0  0  0
 36 37  1  0  0  0
 37 38  2  0  0  0
 38 39  1  0  0  0
 39 41  1  0  0  0
 41 43  1  0  0  0
 43 44  2  0  0  0
 44 45  1  0  0  0
 45 46  2  0  0  0
 46 47  1  0  0  0
 47 48  2  0  0  0
 39 40  2  0  0  0
  4  5  1  0  0  0
  5  6  2  0  0  0
  6  7  1  0  0  0
  7  8  2  0  0  0
  8  9  1  0  0  0
  9 10  2  0  0  0
 19 30  1  0  0  0
 30 31  1  0  0  0
 30 32  1  0  0  0
 30 33  1  0  0  0
 27 22  1  0  0  0
 21 17  1  0  0  0
 10  1  1  0  0  0
 40 35  1  0  0  0
 10  5  1  0  0  0
 48 43  1  0  0  0
 11 15  1  0  0  0
 14 16  1  0  0  0
 41 42  1  0  0  0
M  END
> <minimizedAffinity>
-9.85048

> <CNNscore>
0.0362596028

> <CNNaffinity>
6.6663513184

> <CNN_VS>
0.2417192459

> <CNNaffinity_variance>
0.2281650752

$$$$
[H]c1nc(N([H])[H])c2c(-c3sc4c(OC([H])([H])[H])c([H])c(C([H])([H])[H])c([H])c4c3[H])c(C([H])([H])N([H])C(=O)C([H])([H])[H])c([H])n2n1


 30 33  0  0  0  0  0  0  0  0999 V2000
    3.9480    2.9811   18.1065 C   0  0  0  0  0  0  0  0  0  0  0  0
    4.9338    3.5909   18.9202 C   0  0  0  0  0  0  0  0  0  0  0  0
    5.1192    2.7311   19.9627 C   0  0  0  0  0  0  0  0  0  0  0  0
    4.3097    1.6679   19.8024 N   0  0  0  0  0  0  0  0  0  0  0  0
    4.1977    0.6074   20.5695 N   0  0  0  0  0  0  0  0  0  0  0  0
    3.3527   -0.3948   20.2494 C   0  0  0  0  0  0  0  0  0  0  0  0
    2.6080   -0.3169   19.1259 N   0  0  0  0  0  0  0  0  0  0  0  0
    2.7023    0.7661   18.3150 C   0  0  0  0  0  0  0  0  0  0  0  0
    1.9766    0.7911   17.1154 N   0  0  0  0  0  0  0  0  0  0  0  0
    3.5688    1.7745   18.6696 C   0  0  0  0  0  0  0  0  0  0  0  0
    2.4692    0.6104   16.2125 H   0  0  0  0  0  0  0  0  0  0  0  0
    0.9464    0.9836   17.0582 H   0  0  0  0  0  0  0  0  0  0  0  0
    3.4124    4.7812   13.0249 C   0  0  0  0  0  0  0  0  0  0  0  0
    2.4962    5.6625   12.5003 C   0  0  0  0  0  0  0  0  0  0  0  0
    1.5361    6.1662   13.3465 C   0  0  0  0  0  0  0  0  0  0  0  0
    0.5006    7.1395   12.8280 C   0  0  0  0  0  0  0  0  0  0  0  0
    1.5068    5.7946   14.6601 C   0  0  0  0  0  0  0  0  0  0  0  0
    2.4277    4.8924   15.2420 C   0  0  0  0  0  0  0  0  0  0  0  0
    2.5031    4.4454   16.5315 C   0  0  0  0  0  0  0  0  0  0  0  0
    3.4858    3.5698   16.8504 C   0  0  0  0  0  0  0  0  0  0  0  0
    4.2989    3.3779   15.3613 S   0  0  0  0  0  0  0  0  0  0  0  0
    3.3680    4.4095   14.3783 C   0  0  0  0  0  0  0  0  0  0  0  0
    5.0560    4.9270   11.2543 C   0  0  0  0  0  0  0  0  0  0  0  0
    4.4244    4.2047   12.2839 O   0  0  0  0  0  0  0  0  0  0  0  0
    5.5766    4.8827   18.6147 C   0  0  0  0  0  0  0  0  0  0  0  0
    4.7957    5.9838   19.1998 N   0  0  0  0  0  0  0  0  0  0  0  0
    4.4484    7.0865   18.3986 C   0  0  0  0  0  0  0  0  0  0  0  0
    3.6682    8.1998   18.9600 C   0  0  0  0  0  0  0  0  0  0  0  0
    4.8039    7.1185   17.2080 O   0  0  0  0  0  0  0  0  0  0  0  0
    4.4954    5.9678   20.1849 H   0  0  0  0  0  0  0  0  0  0  0  0
 23 24  1  0  0  0
 24 13  1  0  0  0
 13 14  2  0  0  0
 14 15  1  0  0  0
 15 16  1  0  0  0
 15 17  2  0  0  0
 17 18  1  0  0  0
 18 19  1  0  0  0
 19 20  2  0  0  0
 20 21  1  0  0  0
 21 22  1  0  0  0
 20  1  1  0  0  0
  1  2  1  0  0  0
  2 25  1  0  0  0
 25 26  1  0  0  0
 26 27  1  0  0  0
 27 28  1  0  0  0
 27 29  2  0  0  0
  2  3  2  0  0  0
  3  4  1  0  0  0
  4  5  1  0  0  0
  5  6  2  0  0  0
  6  7  1  0  0  0
  7  8  2  0  0  0
  8  9  1  0  0  0
  8 10  1  0  0  0
 22 13  1  0  0  0
 10  1  2  0  0  0
 22 18  2  0  0  0
 10  4  1  0  0  0
 26 30  1  0  0  0
  9 11  1  0  0  0
  9 12  1  0  0  0
M  END
> <minimizedAffinity>
-6.59775

> <CNNscore>
0.6141526103

> <CNNaffinity>
6.4206247330

> <CNN_VS>
3.9432435036

> <CNNaffinity_variance>
0.4803226590

$$$$
[H]c1nc(N([H])[H])c2c(-c3sc4c(OC([H])([H])[H])c([H])c(C([H])([H])[H])c([H])c4c3[H])c(C([H])([H])N([H])C(=O)C([H])([H])[H])c([H])n2n1


 30 33  0  0  0  0  0  0  0  0999 V2000
    3.8371    3.0001   17.3388 C   0  0  0  0  0  0  0  0  0  0  0  0
    4.7060    3.4295   18.3715 C   0  0  0  0  0  0  0  0  0  0  0  0
    4.6368    2.4564   19.3249 C   0  0  0  0  0  0  0  0  0  0  0  0
    3.7900    1.4962   18.9096 N   0  0  0  0  0  0  0  0  0  0  0  0
    3.4628    0.3801   19.5202 N   0  0  0  0  0  0  0  0  0  0  0  0
    2.6142   -0.5004   18.9495 C   0  0  0  0  0  0  0  0  0  0  0  0
    2.0895   -0.2406   17.7330 N   0  0  0  0  0  0  0  0  0  0  0  0
    2.4089    0.9038   17.0790 C   0  0  0  0  0  0  0  0  0  0  0  0
    1.9123    1.1169   15.7851 N   0  0  0  0  0  0  0  0  0  0  0  0
    3.2728    1.7850   17.6879 C   0  0  0  0  0  0  0  0  0  0  0  0
    2.5425    0.9809   14.9635 H   0  0  0  0  0  0  0  0  0  0  0  0
    0.9265    1.4111   15.5774 H   0  0  0  0  0  0  0  0  0  0  0  0
    2.0910    6.2390   13.3625 C   0  0  0  0  0  0  0  0  0  0  0  0
    2.4504    6.2678   12.0353 C   0  0  0  0  0  0  0  0  0  0  0  0
    3.4131    5.3805   11.6140 C   0  0  0  0  0  0  0  0  0  0  0  0
    3.8506    5.3644   10.1659 C   0  0  0  0  0  0  0  0  0  0  0  0
    3.9833    4.5071   12.4951 C   0  0  0  0  0  0  0  0  0  0  0  0
    3.6450    4.4423   13.8670 C   0  0  0  0  0  0  0  0  0  0  0  0
    4.1387    3.6206   14.8415 C   0  0  0  0  0  0  0  0  0  0  0  0
    3.6520    3.7521   16.0985 C   0  0  0  0  0  0  0  0  0  0  0  0
    2.5115    5.0097   15.9171 S   0  0  0  0  0  0  0  0  0  0  0  0
    2.6875    5.3341   14.2555 C   0  0  0  0  0  0  0  0  0  0  0  0
   -0.2287    6.7606   13.8148 C   0  0  0  0  0  0  0  0  0  0  0  0
    1.1397    7.0751   13.9116 O   0  0  0  0  0  0  0  0  0  0  0  0
    5.4894    4.6783   18.3287 C   0  0  0  0  0  0  0  0  0  0  0  0
    5.6286    5.2313   19.6850 N   0  0  0  0  0  0  0  0  0  0  0  0
    4.7579    6.2520   20.1076 C   0  0  0  0  0  0  0  0  0  0  0  0
    4.8766    6.8214   21.4586 C   0  0  0  0  0  0  0  0  0  0  0  0
    3.8827    6.6745   19.3327 O   0  0  0  0  0  0  0  0  0  0  0  0
    6.3497    4.8887   20.3356 H   0  0  0  0  0  0  0  0  0  0  0  0
 23 24  1  0  0  0
 24 13  1  0  0  0
 13 14  2  0  0  0
 14 15  1  0  0  0
 15 16  1  0  0  0
 15 17  2  0  0  0
 17 18  1  0  0  0
 18 19  1  0  0  0
 19 20  2  0  0  0
 20 21  1  0  0  0
 21 22  1  0  0  0
 20  1  1  0  0  0
  1  2  1  0  0  0
  2 25  1  0  0  0
 25 26  1  0  0  0
 26 27  1  0  0  0
 27 28  1  0  0  0
 27 29  2  0  0  0
  2  3  2  0  0  0
  3  4  1  0  0  0
  4  5  1  0  0  0
  5  6  2  0  0  0
  6  7  1  0  0  0
  7  8  2  0  0  0
  8  9  1  0  0  0
  8 10  1  0  0  0
 22 13  1  0  0  0
 10  1  2  0  0  0
 22 18  2  0  0  0
 10  4  1  0  0  0
 26 30  1  0  0  0
  9 11  1  0  0  0
  9 12  1  0  0  0
M  END
> <minimizedAffinity>
-7.61299

> <CNNscore>
0.5999271274

> <CNNaffinity>
6.4818372726

> <CNN_VS>
3.8886299133

> <CNNaffinity_variance>
0.4698504508

$$$$
[H]c1nc(N([H])[H])c2c(-c3sc4c(OC([H])([H])[H])c([H])c(C([H])([H])[H])c([H])c4c3[H])c(C([H])([H])N([H])C(=O)C([H])([H])[H])c([H])n2n1


 30 33  0  0  0  0  0  0  0  0999 V2000
    3.9008    2.2862   19.0112 C   0  0  0  0  0  0  0  0  0  0  0  0
    3.7010    1.5688   17.8066 C   0  0  0  0  0  0  0  0  0  0  0  0
    3.3975    0.2967   18.1940 C   0  0  0  0  0  0  0  0  0  0  0  0
    3.4064    0.2347   19.5384 N   0  0  0  0  0  0  0  0  0  0  0  0
    3.1451   -0.7980   20.3072 N   0  0  0  0  0  0  0  0  0  0  0  0
    3.1677   -0.6858   21.6517 C   0  0  0  0  0  0  0  0  0  0  0  0
    3.4604    0.5008   22.2253 N   0  0  0  0  0  0  0  0  0  0  0  0
    3.7348    1.5842   21.4568 C   0  0  0  0  0  0  0  0  0  0  0  0
    3.9612    2.8234   22.0727 N   0  0  0  0  0  0  0  0  0  0  0  0
    3.7091    1.4384   20.0888 C   0  0  0  0  0  0  0  0  0  0  0  0
    3.2081    3.5468   22.0651 H   0  0  0  0  0  0  0  0  0  0  0  0
    4.8572    3.0832   22.5537 H   0  0  0  0  0  0  0  0  0  0  0  0
    6.0987    7.1782   19.7781 C   0  0  0  0  0  0  0  0  0  0  0  0
    5.5338    8.4240   19.6350 C   0  0  0  0  0  0  0  0  0  0  0  0
    4.2279    8.4889   19.2085 C   0  0  0  0  0  0  0  0  0  0  0  0
    3.5517    9.8306   19.0319 C   0  0  0  0  0  0  0  0  0  0  0  0
    3.5292    7.3469   18.9403 C   0  0  0  0  0  0  0  0  0  0  0  0
    4.0690    6.0463   19.0733 C   0  0  0  0  0  0  0  0  0  0  0  0
    3.4778    4.8364   18.8382 C   0  0  0  0  0  0  0  0  0  0  0  0
    4.2105    3.7150   19.0376 C   0  0  0  0  0  0  0  0  0  0  0  0
    5.7101    4.3475   19.5535 S   0  0  0  0  0  0  0  0  0  0  0  0
    5.3658    6.0135   19.4979 C   0  0  0  0  0  0  0  0  0  0  0  0
    7.9817    7.8292   21.1522 C   0  0  0  0  0  0  0  0  0  0  0  0
    7.3981    6.9755   20.1976 O   0  0  0  0  0  0  0  0  0  0  0  0
    3.8089    2.1632   16.4612 C   0  0  0  0  0  0  0  0  0  0  0  0
    2.6553    1.7629   15.6405 N   0  0  0  0  0  0  0  0  0  0  0  0
    2.4773    2.3405   14.3704 C   0  0  0  0  0  0  0  0  0  0  0  0
    1.3321    1.9570   13.5308 C   0  0  0  0  0  0  0  0  0  0  0  0
    3.2945    3.1804   13.9562 O   0  0  0  0  0  0  0  0  0  0  0  0
    1.9721    1.0677   15.9733 H   0  0  0  0  0  0  0  0  0  0  0  0
 23 24  1  0  0  0
 24 13  1  0  0  0
 13 14  2  0  0  0
 14 15  1  0  0  0
 15 16  1  0  0  0
 15 17  2  0  0  0
 17 18  1  0  0  0
 18 19  1  0  0  0
 19 20  2  0  0  0
 20 21  1  0  0  0
 21 22  1  0  0  0
 20  1  1  0  0  0
  1  2  1  0  0  0
  2 25  1  0  0  0
 25 26  1  0  0  0
 26 27  1  0  0  0
 27 28  1  0  0  0
 27 29  2  0  0  0
  2  3  2  0  0  0
  3  4  1  0  0  0
  4  5  1  0  0  0
  5  6  2  0  0  0
  6  7  1  0  0  0
  7  8  2  0  0  0
  8  9  1  0  0  0
  8 10  1  0  0  0
 22 13  1  0  0  0
 10  1  2  0  0  0
 22 18  2  0  0  0
 10  4  1  0  0  0
 26 30  1  0  0  0
  9 11  1  0  0  0
  9 12  1  0  0  0
M  END
> <minimizedAffinity>
-7.37749

> <CNNscore>
0.4001390636

> <CNNaffinity>
6.4561777115

> <CNN_VS>
2.5833690166

> <CNNaffinity_variance>
0.5415387750

$$$$
[H]c1nc(N([H])[H])c2c(-c3sc4c(OC([H])([H])[H])c([H])c(C([H])([H])[H])c([H])c4c3[H])c(C([H])([H])N([H])C(=O)C([H])([H])[H])c([H])n2n1


 30 33  0  0  0  0  0  0  0  0999 V2000
    4.3118    2.8137   18.6325 C   0  0  0  0  0  0  0  0  0  0  0  0
    3.8456    2.1773   17.4563 C   0  0  0  0  0  0  0  0  0  0  0  0
    3.4003    0.9541   17.8638 C   0  0  0  0  0  0  0  0  0  0  0  0
    3.5760    0.8452   19.1937 N   0  0  0  0  0  0  0  0  0  0  0  0
    3.2596   -0.1611   19.9766 N   0  0  0  0  0  0  0  0  0  0  0  0
    3.4758   -0.1001   21.3072 C   0  0  0  0  0  0  0  0  0  0  0  0
    4.0235    1.0072   21.8520 N   0  0  0  0  0  0  0  0  0  0  0  0
    4.3607    2.0615   21.0683 C   0  0  0  0  0  0  0  0  0  0  0  0
    4.8572    3.2294   21.6647 N   0  0  0  0  0  0  0  0  0  0  0  0
    4.1330    1.9686   19.7144 C   0  0  0  0  0  0  0  0  0  0  0  0
    4.2322    4.0595   21.7688 H   0  0  0  0  0  0  0  0  0  0  0  0
    5.8382    3.3320   22.0237 H   0  0  0  0  0  0  0  0  0  0  0  0
    5.2225    8.1009   19.3848 C   0  0  0  0  0  0  0  0  0  0  0  0
    6.0702    8.9480   18.7101 C   0  0  0  0  0  0  0  0  0  0  0  0
    6.8429    8.4132   17.7059 C   0  0  0  0  0  0  0  0  0  0  0  0
    7.7948    9.2946   16.9278 C   0  0  0  0  0  0  0  0  0  0  0  0
    6.7600    7.0848   17.4009 C   0  0  0  0  0  0  0  0  0  0  0  0
    5.9034    6.1778   18.0674 C   0  0  0  0  0  0  0  0  0  0  0  0
    5.7306    4.8382   17.8574 C   0  0  0  0  0  0  0  0  0  0  0  0
    4.8420    4.1763   18.6362 C   0  0  0  0  0  0  0  0  0  0  0  0
    4.2511    5.4175   19.6490 S   0  0  0  0  0  0  0  0  0  0  0  0
    5.1495    6.7370   19.0584 C   0  0  0  0  0  0  0  0  0  0  0  0
    4.9386    9.0048   21.6120 C   0  0  0  0  0  0  0  0  0  0  0  0
    4.3954    8.5107   20.4113 O   0  0  0  0  0  0  0  0  0  0  0  0
    3.8675    2.7941   16.1168 C   0  0  0  0  0  0  0  0  0  0  0  0
    2.7183    3.6995   15.9612 N   0  0  0  0  0  0  0  0  0  0  0  0
    2.7797    4.7371   15.0135 C   0  0  0  0  0  0  0  0  0  0  0  0
    1.6441    5.6554   14.8389 C   0  0  0  0  0  0  0  0  0  0  0  0
    3.8013    4.8773   14.3196 O   0  0  0  0  0  0  0  0  0  0  0  0
    1.8667    3.5925   16.5304 H   0  0  0  0  0  0  0  0  0  0  0  0
 23 24  1  0  0  0
 24 13  1  0  0  0
 13 14  2  0  0  0
 14 15  1  0  0  0
 15 16  1  0  0  0
 15 17  2  0  0  0
 17 18  1  0  0  0
 18 19  1  0  0  0
 19 20  2  0  0  0
 20 21  1  0  0  0
 21 22  1  0  0  0
 20  1  1  0  0  0
  1  2  1  0  0  0
  2 25  1  0  0  0
 25 26  1  0  0  0
 26 27  1  0  0  0
 27 28  1  0  0  0
 27 29  2  0  0  0
  2  3  2  0  0  0
  3  4  1  0  0  0
  4  5  1  0  0  0
  5  6  2  0  0  0
  6  7  1  0  0  0
  7  8  2  0  0  0
  8  9  1  0  0  0
  8 10  1  0  0  0
 22 13  1  0  0  0
 10  1  2  0  0  0
 22 18  2  0  0  0
 10  4  1  0  0  0
 26 30  1  0  0  0
  9 11  1  0  0  0
  9 12  1  0  0  0
M  END
> <minimizedAffinity>
-7.55611

> <CNNscore>
0.3675322831

> <CNNaffinity>
6.2999916077

> <CNN_VS>
2.3154501915

> <CNNaffinity_variance>
0.6611524820

$$$$
[H]c1nc(N([H])[H])c2c(-c3sc4c(OC([H])([H])[H])c([H])c(C([H])([H])[H])c([H])c4c3[H])c(C([H])([H])N([H])C(=O)C([H])([H])[H])c([H])n2n1


 30 33  0  0  0  0  0  0  0  0999 V2000
    4.9318    3.7884   20.3618 C   0  0  0  0  0  0  0  0  0  0  0  0
    4.5476    2.8511   19.3721 C   0  0  0  0  0  0  0  0  0  0  0  0
    4.1128    1.7586   20.0635 C   0  0  0  0  0  0  0  0  0  0  0  0
    4.2182    2.0051   21.3825 N   0  0  0  0  0  0  0  0  0  0  0  0
    3.8858    1.2243   22.3853 N   0  0  0  0  0  0  0  0  0  0  0  0
    4.0272    1.6365   23.6624 C   0  0  0  0  0  0  0  0  0  0  0  0
    4.5150    2.8678   23.9242 N   0  0  0  0  0  0  0  0  0  0  0  0
    4.8669    3.6956   22.9091 C   0  0  0  0  0  0  0  0  0  0  0  0
    5.2992    4.9968   23.2025 N   0  0  0  0  0  0  0  0  0  0  0  0
    4.7162    3.2461   21.6172 C   0  0  0  0  0  0  0  0  0  0  0  0
    4.6479    5.8002   23.0575 H   0  0  0  0  0  0  0  0  0  0  0  0
    6.2560    5.2277   23.5671 H   0  0  0  0  0  0  0  0  0  0  0  0
    5.8405    9.1170   20.0019 C   0  0  0  0  0  0  0  0  0  0  0  0
    6.5434    9.8233   19.0540 C   0  0  0  0  0  0  0  0  0  0  0  0
    7.1470    9.1118   18.0436 C   0  0  0  0  0  0  0  0  0  0  0  0
    7.9344    9.8325   16.9717 C   0  0  0  0  0  0  0  0  0  0  0  0
    7.0429    7.7511   17.9968 C   0  0  0  0  0  0  0  0  0  0  0  0
    6.3312    6.9845   18.9489 C   0  0  0  0  0  0  0  0  0  0  0  0
    6.1547    5.6305   19.0114 C   0  0  0  0  0  0  0  0  0  0  0  0
    5.4251    5.1254   20.0344 C   0  0  0  0  0  0  0  0  0  0  0  0
    4.9866    6.5319   20.8974 S   0  0  0  0  0  0  0  0  0  0  0  0
    5.7434    7.7176   19.9389 C   0  0  0  0  0  0  0  0  0  0  0  0
    5.8024    9.7752   22.3307 C   0  0  0  0  0  0  0  0  0  0  0  0
    5.1899    9.7100   21.0653 O   0  0  0  0  0  0  0  0  0  0  0  0
    4.6267    3.1001   17.9206 C   0  0  0  0  0  0  0  0  0  0  0  0
    4.0994    1.9419   17.1821 N   0  0  0  0  0  0  0  0  0  0  0  0
    2.9585    2.0986   16.3745 C   0  0  0  0  0  0  0  0  0  0  0  0
    2.4121    0.9562   15.6263 C   0  0  0  0  0  0  0  0  0  0  0  0
    2.4097    3.2109   16.2936 O   0  0  0  0  0  0  0  0  0  0  0  0
    4.5462    1.0158   17.2414 H   0  0  0  0  0  0  0  0  0  0  0  0
 23 24  1  0  0  0
 24 13  1  0  0  0
 13 14  2  0  0  0
 14 15  1  0  0  0
 15 16  1  0  0  0
 15 17  2  0  0  0
 17 18  1  0  0  0
 18 19  1  0  0  0
 19 20  2  0  0  0
 20 21  1  0  0  0
 21 22  1  0  0  0
 20  1  1  0  0  0
  1  2  1  0  0  0
  2 25  1  0  0  0
 25 26  1  0  0  0
 26 27  1  0  0  0
 27 28  1  0  0  0
 27 29  2  0  0  0
  2  3  2  0  0  0
  3  4  1  0  0  0
  4  5  1  0  0  0
  5  6  2  0  0  0
  6  7  1  0  0  0
  7  8  2  0  0  0
  8  9  1  0  0  0
  8 10  1  0  0  0
 22 13  1  0  0  0
 10  1  2  0  0  0
 22 18  2  0  0  0
 10  4  1  0  0  0
 26 30  1  0  0  0
  9 11  1  0  0  0
  9 12  1  0  0  0
M  END
> <minimizedAffinity>
-7.74798

> <CNNscore>
0.2375122607

> <CNNaffinity>
6.1347036362

> <CNN_VS>
1.4570673704

> <CNNaffinity_variance>
0.4356006980

$$$$
[H]c1nc(N([H])[H])c2c(-c3sc4c(OC([H])([H])[H])c([H])c(C([H])([H])[H])c([H])c4c3[H])c(C([H])([H])N([H])C(=O)C([H])([H])[H])c([H])n2n1


 30 33  0  0  0  0  0  0  0  0999 V2000
    4.5666    3.3900   19.7493 C   0  0  0  0  0  0  0  0  0  0  0  0
    4.6221    2.8823   18.4284 C   0  0  0  0  0  0  0  0  0  0  0  0
    4.2309    1.5795   18.5291 C   0  0  0  0  0  0  0  0  0  0  0  0
    3.9517    1.3046   19.8167 N   0  0  0  0  0  0  0  0  0  0  0  0
    3.5224    0.1756   20.3332 N   0  0  0  0  0  0  0  0  0  0  0  0
    3.2581    0.0719   21.6524 C   0  0  0  0  0  0  0  0  0  0  0  0
    3.4327    1.1384   22.4616 N   0  0  0  0  0  0  0  0  0  0  0  0
    3.8751    2.3168   21.9565 C   0  0  0  0  0  0  0  0  0  0  0  0
    3.9763    3.4313   22.8013 N   0  0  0  0  0  0  0  0  0  0  0  0
    4.1410    2.3912   20.6084 C   0  0  0  0  0  0  0  0  0  0  0  0
    3.2490    4.1794   22.7553 H   0  0  0  0  0  0  0  0  0  0  0  0
    4.7512    3.5717   23.4953 H   0  0  0  0  0  0  0  0  0  0  0  0
    4.7430    8.7923   20.1147 C   0  0  0  0  0  0  0  0  0  0  0  0
    5.7270    9.6033   20.6299 C   0  0  0  0  0  0  0  0  0  0  0  0
    6.8376    8.9975   21.1696 C   0  0  0  0  0  0  0  0  0  0  0  0
    7.9536    9.8364   21.7520 C   0  0  0  0  0  0  0  0  0  0  0  0
    6.9450    7.6365   21.1860 C   0  0  0  0  0  0  0  0  0  0  0  0
    5.9590    6.7644   20.6681 C   0  0  0  0  0  0  0  0  0  0  0  0
    5.9493    5.3982   20.6256 C   0  0  0  0  0  0  0  0  0  0  0  0
    4.8768    4.7814   20.0745 C   0  0  0  0  0  0  0  0  0  0  0  0
    3.8944    6.1005   19.6164 S   0  0  0  0  0  0  0  0  0  0  0  0
    4.8694    7.3940   20.1396 C   0  0  0  0  0  0  0  0  0  0  0  0
    3.5972    9.8374   18.2566 C   0  0  0  0  0  0  0  0  0  0  0  0
    3.5808    9.2733   19.5459 O   0  0  0  0  0  0  0  0  0  0  0  0
    5.0207    3.6772   17.2518 C   0  0  0  0  0  0  0  0  0  0  0  0
    4.2766    3.2270   16.0651 N   0  0  0  0  0  0  0  0  0  0  0  0
    3.0598    3.8507   15.7349 C   0  0  0  0  0  0  0  0  0  0  0  0
    2.2971    3.4189   14.5537 C   0  0  0  0  0  0  0  0  0  0  0  0
    2.6277    4.7730   16.4473 O   0  0  0  0  0  0  0  0  0  0  0  0
    4.6252    2.4641   15.4675 H   0  0  0  0  0  0  0  0  0  0  0  0
 23 24  1  0  0  0
 24 13  1  0  0  0
 13 14  2  0  0  0
 14 15  1  0  0  0
 15 16  1  0  0  0
 15 17  2  0  0  0
 17 18  1  0  0  0
 18 19  1  0  0  0
 19 20  2  0  0  0
 20 21  1  0  0  0
 21 22  1  0  0  0
 20  1  1  0  0  0
  1  2  1  0  0  0
  2 25  1  0  0  0
 25 26  1  0  0  0
 26 27  1  0  0  0
 27 28  1  0  0  0
 27 29  2  0  0  0
  2  3  2  0  0  0
  3  4  1  0  0  0
  4  5  1  0  0  0
  5  6  2  0  0  0
  6  7  1  0  0  0
  7  8  2  0  0  0
  8  9  1  0  0  0
  8 10  1  0  0  0
 22 13  1  0  0  0
 10  1  2  0  0  0
 22 18  2  0  0  0
 10  4  1  0  0  0
 26 30  1  0  0  0
  9 11  1  0  0  0
  9 12  1  0  0  0
M  END
> <minimizedAffinity>
-8.25850

> <CNNscore>
0.2304982245

> <CNNaffinity>
6.1141405106

> <CNN_VS>
1.4092985392

> <CNNaffinity_variance>
0.7266131639

$$$$
[H]c1nc(N([H])[H])c2c(-c3sc4c(OC([H])([H])[H])c([H])c(C([H])([H])[H])c([H])c4c3[H])c(C([H])([H])N([H])C(=O)C([H])([H])[H])c([H])n2n1


 30 33  0  0  0  0  0  0  0  0999 V2000
    4.5292    3.8467   18.8343 C   0  0  0  0  0  0  0  0  0  0  0  0
    5.2348    4.7875   19.6234 C   0  0  0  0  0  0  0  0  0  0  0  0
    5.5128    4.1385   20.7905 C   0  0  0  0  0  0  0  0  0  0  0  0
    5.0178    2.8887   20.7249 N   0  0  0  0  0  0  0  0  0  0  0  0
    5.0904    1.9363   21.6268 N   0  0  0  0  0  0  0  0  0  0  0  0
    4.5637    0.7163   21.3921 C   0  0  0  0  0  0  0  0  0  0  0  0
    3.9522    0.4600   20.2160 N   0  0  0  0  0  0  0  0  0  0  0  0
    3.8618    1.4240   19.2662 C   0  0  0  0  0  0  0  0  0  0  0  0
    3.2904    1.1129   18.0241 N   0  0  0  0  0  0  0  0  0  0  0  0
    4.4039    2.6598   19.5358 C   0  0  0  0  0  0  0  0  0  0  0  0
    3.9093    0.9606   17.1969 H   0  0  0  0  0  0  0  0  0  0  0  0
    2.2576    1.0195   17.8616 H   0  0  0  0  0  0  0  0  0  0  0  0
    1.7452    5.2637   14.4081 C   0  0  0  0  0  0  0  0  0  0  0  0
    2.0070    4.9934   13.0852 C   0  0  0  0  0  0  0  0  0  0  0  0
    3.1490    4.2857   12.7909 C   0  0  0  0  0  0  0  0  0  0  0  0
    3.4911    3.9578   11.3543 C   0  0  0  0  0  0  0  0  0  0  0  0
    3.9842    3.8724   13.7889 C   0  0  0  0  0  0  0  0  0  0  0  0
    3.7550    4.1274   15.1612 C   0  0  0  0  0  0  0  0  0  0  0  0
    4.5081    3.7705   16.2446 C   0  0  0  0  0  0  0  0  0  0  0  0
    4.0764    4.1376   17.4747 C   0  0  0  0  0  0  0  0  0  0  0  0
    2.6287    4.9698   17.1186 S   0  0  0  0  0  0  0  0  0  0  0  0
    2.6149    4.8312   15.4222 C   0  0  0  0  0  0  0  0  0  0  0  0
   -0.0784    6.7860   13.9446 C   0  0  0  0  0  0  0  0  0  0  0  0
    0.6353    5.9639   14.8364 O   0  0  0  0  0  0  0  0  0  0  0  0
    5.5638    6.1562   19.1837 C   0  0  0  0  0  0  0  0  0  0  0  0
    5.6838    7.0442   20.3506 N   0  0  0  0  0  0  0  0  0  0  0  0
    4.8942    8.2063   20.4187 C   0  0  0  0  0  0  0  0  0  0  0  0
    4.9957    9.1100   21.5747 C   0  0  0  0  0  0  0  0  0  0  0  0
    4.1057    8.4696   19.4947 O   0  0  0  0  0  0  0  0  0  0  0  0
    6.3335    6.8358   21.1221 H   0  0  0  0  0  0  0  0  0  0  0  0
 23 24  1  0  0  0
 24 13  1  0  0  0
 13 14  2  0  0  0
 14 15  1  0  0  0
 15 16  1  0  0  0
 15 17  2  0  0  0
 17 18  1  0  0  0
 18 19  1  0  0  0
 19 20  2  0  0  0
 20 21  1  0  0  0
 21 22  1  0  0  0
 20  1  1  0  0  0
  1  2  1  0  0  0
  2 25  1  0  0  0
 25 26  1  0  0  0
 26 27  1  0  0  0
 27 28  1  0  0  0
 27 29  2  0  0  0
  2  3  2  0  0  0
  3  4  1  0  0  0
  4  5  1  0  0  0
  5  6  2  0  0  0
  6  7  1  0  0  0
  7  8  2  0  0  0
  8  9  1  0  0  0
  8 10  1  0  0  0
 22 13  1  0  0  0
 10  1  2  0  0  0
 22 18  2  0  0  0
 10  4  1  0  0  0
 26 30  1  0  0  0
  9 11  1  0  0  0
  9 12  1  0  0  0
M  END
> <minimizedAffinity>
-7.97835

> <CNNscore>
0.2282865345

> <CNNaffinity>
6.1541166306

> <CNN_VS>
1.4049019814

> <CNNaffinity_variance>
0.9253450632

$$$$
[H]c1nc(N([H])[H])c2c(-c3sc4c(OC([H])([H])[H])c([H])c(C([H])([H])[H])c([H])c4c3[H])c(C([H])([H])N([H])C(=O)C([H])([H])[H])c([H])n2n1


 30 33  0  0  0  0  0  0  0  0999 V2000
    3.5789    4.9279   17.2576 C   0  0  0  0  0  0  0  0  0  0  0  0
    3.7628    5.7785   18.3749 C   0  0  0  0  0  0  0  0  0  0  0  0
    4.0514    4.9450   19.4154 C   0  0  0  0  0  0  0  0  0  0  0  0
    4.0488    3.6743   18.9719 N   0  0  0  0  0  0  0  0  0  0  0  0
    4.3004    2.5761   19.6475 N   0  0  0  0  0  0  0  0  0  0  0  0
    4.2865    1.3702   19.0423 C   0  0  0  0  0  0  0  0  0  0  0  0
    4.0126    1.2800   17.7233 N   0  0  0  0  0  0  0  0  0  0  0  0
    3.7485    2.3968   17.0004 C   0  0  0  0  0  0  0  0  0  0  0  0
    3.5419    2.2869   15.6178 N   0  0  0  0  0  0  0  0  0  0  0  0
    3.7651    3.6120   17.6457 C   0  0  0  0  0  0  0  0  0  0  0  0
    4.3046    2.5635   14.9602 H   0  0  0  0  0  0  0  0  0  0  0  0
    2.6520    1.9373   15.1847 H   0  0  0  0  0  0  0  0  0  0  0  0
    1.3584    6.2037   12.4835 C   0  0  0  0  0  0  0  0  0  0  0  0
    1.9553    6.6793   11.3395 C   0  0  0  0  0  0  0  0  0  0  0  0
    3.3112    6.9077   11.3730 C   0  0  0  0  0  0  0  0  0  0  0  0
    4.0246    7.4310   10.1459 C   0  0  0  0  0  0  0  0  0  0  0  0
    4.0264    6.6657   12.5106 C   0  0  0  0  0  0  0  0  0  0  0  0
    3.4550    6.1771   13.7087 C   0  0  0  0  0  0  0  0  0  0  0  0
    4.0581    5.8968   14.9030 C   0  0  0  0  0  0  0  0  0  0  0  0
    3.2885    5.4357   15.9175 C   0  0  0  0  0  0  0  0  0  0  0  0
    1.7373    5.3903   15.2055 S   0  0  0  0  0  0  0  0  0  0  0  0
    2.1089    5.9601   13.6452 C   0  0  0  0  0  0  0  0  0  0  0  0
   -0.5008    4.6833   12.1843 C   0  0  0  0  0  0  0  0  0  0  0  0
    0.0082    5.9338   12.5816 O   0  0  0  0  0  0  0  0  0  0  0  0
    3.6556    7.2485   18.3230 C   0  0  0  0  0  0  0  0  0  0  0  0
    3.7206    7.8058   19.6831 N   0  0  0  0  0  0  0  0  0  0  0  0
    4.8591    8.5308   20.0791 C   0  0  0  0  0  0  0  0  0  0  0  0
    4.9481    9.0979   21.4332 C   0  0  0  0  0  0  0  0  0  0  0  0
    5.7953    8.6923   19.2777 O   0  0  0  0  0  0  0  0  0  0  0  0
    2.9507    7.6785   20.3553 H   0  0  0  0  0  0  0  0  0  0  0  0
 23 24  1  0  0  0
 24 13  1  0  0  0
 13 14  2  0  0  0
 14 15  1  0  0  0
 15 16  1  0  0  0
 15 17  2  0  0  0
 17 18  1  0  0  0
 18 19  1  0  0  0
 19 20  2  0  0  0
 20 21  1  0  0  0
 21 22  1  0  0  0
 20  1  1  0  0  0
  1  2  1  0  0  0
  2 25  1  0  0  0
 25 26  1  0  0  0
 26 27  1  0  0  0
 27 28  1  0  0  0
 27 29  2  0  0  0
  2  3  2  0  0  0
  3  4  1  0  0  0
  4  5  1  0  0  0
  5  6  2  0  0  0
  6  7  1  0  0  0
  7  8  2  0  0  0
  8  9  1  0  0  0
  8 10  1  0  0  0
 22 13  1  0  0  0
 10  1  2  0  0  0
 22 18  2  0  0  0
 10  4  1  0  0  0
 26 30  1  0  0  0
  9 11  1  0  0  0
  9 12  1  0  0  0
M  END
> <minimizedAffinity>
-6.96056

> <CNNscore>
0.2159283459

> <CNNaffinity>
5.8291754723

> <CNN_VS>
1.2586841583

> <CNNaffinity_variance>
0.7512608767

$$$$
[H]c1nc(N([H])[H])c2c(-c3sc4c(OC([H])([H])[H])c([H])c(C([H])([H])[H])c([H])c4c3[H])c(C([H])([H])N([H])C(=O)C([H])([H])[H])c([H])n2n1


 30 33  0  0  0  0  0  0  0  0999 V2000
    4.7082    3.2293   19.1698 C   0  0  0  0  0  0  0  0  0  0  0  0
    5.0694    2.3889   20.2511 C   0  0  0  0  0  0  0  0  0  0  0  0
    4.4786    1.1888   19.9843 C   0  0  0  0  0  0  0  0  0  0  0  0
    3.8051    1.2811   18.8227 N   0  0  0  0  0  0  0  0  0  0  0  0
    3.1213    0.3469   18.2020 N   0  0  0  0  0  0  0  0  0  0  0  0
    2.5239    0.5948   17.0177 C   0  0  0  0  0  0  0  0  0  0  0  0
    2.6255    1.8170   16.4533 N   0  0  0  0  0  0  0  0  0  0  0  0
    3.3246    2.8013   17.0713 C   0  0  0  0  0  0  0  0  0  0  0  0
    3.4805    4.0389   16.4308 N   0  0  0  0  0  0  0  0  0  0  0  0
    3.9188    2.5205   18.2802 C   0  0  0  0  0  0  0  0  0  0  0  0
    4.3908    4.2710   15.9747 H   0  0  0  0  0  0  0  0  0  0  0  0
    2.7279    4.7685   16.3755 H   0  0  0  0  0  0  0  0  0  0  0  0
    5.3949    8.5944   19.4757 C   0  0  0  0  0  0  0  0  0  0  0  0
    6.1882    9.4204   18.7142 C   0  0  0  0  0  0  0  0  0  0  0  0
    6.9620    8.8404   17.7362 C   0  0  0  0  0  0  0  0  0  0  0  0
    7.8556    9.6967   16.8663 C   0  0  0  0  0  0  0  0  0  0  0  0
    6.9326    7.4895   17.5401 C   0  0  0  0  0  0  0  0  0  0  0  0
    6.1329    6.6028   18.2984 C   0  0  0  0  0  0  0  0  0  0  0  0
    6.0163    5.2444   18.2000 C   0  0  0  0  0  0  0  0  0  0  0  0
    5.1761    4.6095   19.0516 C   0  0  0  0  0  0  0  0  0  0  0  0
    4.5521    5.9014   19.9773 S   0  0  0  0  0  0  0  0  0  0  0  0
    5.3766    7.2068   19.2607 C   0  0  0  0  0  0  0  0  0  0  0  0
    5.0567    9.1616   21.8042 C   0  0  0  0  0  0  0  0  0  0  0  0
    4.5731    9.0494   20.4872 O   0  0  0  0  0  0  0  0  0  0  0  0
    5.9214    2.8105   21.3787 C   0  0  0  0  0  0  0  0  0  0  0  0
    5.7735    1.8694   22.5000 N   0  0  0  0  0  0  0  0  0  0  0  0
    5.0240    2.2505   23.6276 C   0  0  0  0  0  0  0  0  0  0  0  0
    4.8614    1.3278   24.7614 C   0  0  0  0  0  0  0  0  0  0  0  0
    4.4960    3.3752   23.6643 O   0  0  0  0  0  0  0  0  0  0  0  0
    6.2062    0.9350   22.4802 H   0  0  0  0  0  0  0  0  0  0  0  0
 23 24  1  0  0  0
 24 13  1  0  0  0
 13 14  2  0  0  0
 14 15  1  0  0  0
 15 16  1  0  0  0
 15 17  2  0  0  0
 17 18  1  0  0  0
 18 19  1  0  0  0
 19 20  2  0  0  0
 20 21  1  0  0  0
 21 22  1  0  0  0
 20  1  1  0  0  0
  1  2  1  0  0  0
  2 25  1  0  0  0
 25 26  1  0  0  0
 26 27  1  0  0  0
 27 28  1  0  0  0
 27 29  2  0  0  0
  2  3  2  0  0  0
  3  4  1  0  0  0
  4  5  1  0  0  0
  5  6  2  0  0  0
  6  7  1  0  0  0
  7  8  2  0  0  0
  8  9  1  0  0  0
  8 10  1  0  0  0
 22 13  1  0  0  0
 10  1  2  0  0  0
 22 18  2  0  0  0
 10  4  1  0  0  0
 26 30  1  0  0  0
  9 11  1  0  0  0
  9 12  1  0  0  0
M  END
> <minimizedAffinity>
-7.37025

> <CNNscore>
0.2034031302

> <CNNaffinity>
6.1436777115

> <CNN_VS>
1.2496433258

> <CNNaffinity_variance>
0.3658552766

$$$$
[H]O[C@@]1([H])C([H])([H])C([H])([H])[C@]2([H])[C@]1(C([H])([H])[H])C([H])([H])C([H])([H])[C@]1([H])[C@]3(C([H])([H])[H])C(=C([H])C(=O)C([H])([H])C3([H])[H])C([H])([H])C([H])([H])[C@@]21[H]


 22 25  0  0  0  0  0  0  0  0999 V2000
    6.7038    5.7115   22.1691 C   0  0  0  0  0  0  0  0  0  0  0  0
    5.3872    6.0176   21.5067 C   0  0  0  0  0  0  0  0  0  0  0  0
    4.2365    5.3425   22.1707 C   0  0  0  0  0  0  0  0  0  0  0  0
    4.4082    3.8520   22.0147 C   0  0  0  0  0  0  0  0  0  0  0  0
    4.3671    3.4894   20.5452 C   0  0  0  0  0  0  0  0  0  0  0  0
    5.4682    4.2009   19.7617 C   0  0  0  0  0  0  0  0  0  0  0  0
    5.1481    4.0328   18.2827 C   0  0  0  0  0  0  0  0  0  0  0  0
    4.9781    2.6127   17.8769 C   0  0  0  0  0  0  0  0  0  0  0  0
    4.2584    1.7790   18.8514 C   0  0  0  0  0  0  0  0  0  0  0  0
    3.4623    0.8311   18.3854 C   0  0  0  0  0  0  0  0  0  0  0  0
    2.7063   -0.0472   19.2545 C   0  0  0  0  0  0  0  0  0  0  0  0
    1.7203   -0.7070   18.8660 O   0  0  0  0  0  0  0  0  0  0  0  0
    3.1805   -0.1258   20.6824 C   0  0  0  0  0  0  0  0  0  0  0  0
    3.3970    1.3071   21.1251 C   0  0  0  0  0  0  0  0  0  0  0  0
    4.4389    2.0167   20.3160 C   0  0  0  0  0  0  0  0  0  0  0  0
    5.7937    1.4583   20.7018 C   0  0  0  0  0  0  0  0  0  0  0  0
    5.3747    5.6441   20.0410 C   0  0  0  0  0  0  0  0  0  0  0  0
    6.4644    6.4986   19.5086 C   0  0  0  0  0  0  0  0  0  0  0  0
    6.2370    7.8128   20.2598 C   0  0  0  0  0  0  0  0  0  0  0  0
    5.1914    7.5069   21.3145 C   0  0  0  0  0  0  0  0  0  0  0  0
    5.3069    8.2443   22.4433 O   0  0  0  0  0  0  0  0  0  0  0  0
    5.9852    7.9751   23.0845 H   0  0  0  0  0  0  0  0  0  0  0  0
  2  1  1  0  0  0
  2  3  1  0  0  0
  3  4  1  0  0  0
  4  5  1  0  0  0
  5  6  1  0  0  0
  6  7  1  0  0  0
  7  8  1  0  0  0
  8  9  1  0  0  0
  9 10  2  0  0  0
 10 11  1  0  0  0
 11 12  2  0  0  0
 11 13  1  0  0  0
 13 14  1  0  0  0
 14 15  1  0  0  0
 15 16  1  0  0  0
  6 17  1  0  0  0
 17 18  1  0  0  0
 18 19  1  0  0  0
 19 20  1  0  0  0
 20 21  1  0  0  0
 17  2  1  0  0  0
 20  2  1  0  0  0
 15  5  1  0  0  0
 15  9  1  0  0  0
 21 22  1  0  0  0
M  END
> <minimizedAffinity>
-9.59182

> <CNNscore>
0.6392951012

> <CNNaffinity>
6.0681018829

> <CNN_VS>
3.8793077469

> <CNNaffinity_variance>
0.2036200017

$$$$
[H]O[C@@]1([H])C([H])([H])C([H])([H])[C@]2([H])[C@]1(C([H])([H])[H])C([H])([H])C([H])([H])[C@]1([H])[C@]3(C([H])([H])[H])C(=C([H])C(=O)C([H])([H])C3([H])[H])C([H])([H])C([H])([H])[C@@]21[H]


 22 25  0  0  0  0  0  0  0  0999 V2000
    6.6733    4.8646    6.8430 C   0  0  0  0  0  0  0  0  0  0  0  0
    7.0679    4.4113    8.2231 C   0  0  0  0  0  0  0  0  0  0  0  0
    7.8292    3.1301    8.2140 C   0  0  0  0  0  0  0  0  0  0  0  0
    6.9198    2.0431    7.6975 C   0  0  0  0  0  0  0  0  0  0  0  0
    5.7477    1.8737    8.6410 C   0  0  0  0  0  0  0  0  0  0  0  0
    4.9475    3.1672    8.7781 C   0  0  0  0  0  0  0  0  0  0  0  0
    4.0117    2.9932    9.9664 C   0  0  0  0  0  0  0  0  0  0  0  0
    3.1463    1.7890    9.8603 C   0  0  0  0  0  0  0  0  0  0  0  0
    3.8157    0.5998    9.3122 C   0  0  0  0  0  0  0  0  0  0  0  0
    3.4703   -0.5819    9.7957 C   0  0  0  0  0  0  0  0  0  0  0  0
    4.0647   -1.8176    9.3291 C   0  0  0  0  0  0  0  0  0  0  0  0
    4.0125   -2.8852    9.9742 O   0  0  0  0  0  0  0  0  0  0  0  0
    4.7647   -1.7479    7.9968 C   0  0  0  0  0  0  0  0  0  0  0  0
    5.6368   -0.5100    8.0528 C   0  0  0  0  0  0  0  0  0  0  0  0
    4.8497    0.7501    8.2435 C   0  0  0  0  0  0  0  0  0  0  0  0
    4.1223    1.0499    6.9485 C   0  0  0  0  0  0  0  0  0  0  0  0
    5.8780    4.2493    9.1427 C   0  0  0  0  0  0  0  0  0  0  0  0
    5.3264    5.6264    9.1583 C   0  0  0  0  0  0  0  0  0  0  0  0
    6.5959    6.4792    9.2233 C   0  0  0  0  0  0  0  0  0  0  0  0
    7.7476    5.5181    9.0017 C   0  0  0  0  0  0  0  0  0  0  0  0
    8.8207    6.0674    8.3869 O   0  0  0  0  0  0  0  0  0  0  0  0
    8.7730    6.1810    7.4233 H   0  0  0  0  0  0  0  0  0  0  0  0
  2  1  1  0  0  0
  2  3  1  0  0  0
  3  4  1  0  0  0
  4  5  1  0  0  0
  5  6  1  0  0  0
  6  7  1  0  0  0
  7  8  1  0  0  0
  8  9  1  0  0  0
  9 10  2  0  0  0
 10 11  1  0  0  0
 11 12  2  0  0  0
 11 13  1  0  0  0
 13 14  1  0  0  0
 14 15  1  0  0  0
 15 16  1  0  0  0
  6 17  1  0  0  0
 17 18  1  0  0  0
 18 19  1  0  0  0
 19 20  1  0  0  0
 20 21  1  0  0  0
 17  2  1  0  0  0
 20  2  1  0  0  0
 15  5  1  0  0  0
 15  9  1  0  0  0
 21 22  1  0  0  0
M  END
> <minimizedAffinity>
-4.61537

> <CNNscore>
0.5833788514

> <CNNaffinity>
4.5234260559

> <CNN_VS>
2.6388711929

> <CNNaffinity_variance>
0.0858013108

$$$$
[H]O[C@@]1([H])C([H])([H])C([H])([H])[C@]2([H])[C@]1(C([H])([H])[H])C([H])([H])C([H])([H])[C@]1([H])[C@]3(C([H])([H])[H])C(=C([H])C(=O)C([H])([H])C3([H])[H])C([H])([H])C([H])([H])[C@@]21[H]


 22 25  0  0  0  0  0  0  0  0999 V2000
    0.6515    7.2617   11.3612 C   0  0  0  0  0  0  0  0  0  0  0  0
    1.5163    6.1726   10.7853 C   0  0  0  0  0  0  0  0  0  0  0  0
    2.9723    6.4608   10.9186 C   0  0  0  0  0  0  0  0  0  0  0  0
    3.2906    7.6821   10.0923 C   0  0  0  0  0  0  0  0  0  0  0  0
    3.0122    7.3914    8.6326 C   0  0  0  0  0  0  0  0  0  0  0  0
    1.5518    7.0058    8.4069 C   0  0  0  0  0  0  0  0  0  0  0  0
    1.4510    6.4300    7.0010 C   0  0  0  0  0  0  0  0  0  0  0  0
    1.9734    7.3459    5.9530 C   0  0  0  0  0  0  0  0  0  0  0  0
    3.1946    8.0738    6.3289 C   0  0  0  0  0  0  0  0  0  0  0  0
    4.0914    8.3059    5.3847 C   0  0  0  0  0  0  0  0  0  0  0  0
    5.3287    9.0131    5.6434 C   0  0  0  0  0  0  0  0  0  0  0  0
    6.3173    8.9574    4.8832 O   0  0  0  0  0  0  0  0  0  0  0  0
    5.3630    9.8374    6.9041 C   0  0  0  0  0  0  0  0  0  0  0  0
    4.8058    8.9461    7.9955 C   0  0  0  0  0  0  0  0  0  0  0  0
    3.3910    8.5257    7.7400 C   0  0  0  0  0  0  0  0  0  0  0  0
    2.4968    9.7292    7.9588 C   0  0  0  0  0  0  0  0  0  0  0  0
    1.2175    5.9050    9.3268 C   0  0  0  0  0  0  0  0  0  0  0  0
   -0.2071    5.4952    9.3870 C   0  0  0  0  0  0  0  0  0  0  0  0
   -0.2360    4.6207   10.6429 C   0  0  0  0  0  0  0  0  0  0  0  0
    1.1155    4.8076   11.3043 C   0  0  0  0  0  0  0  0  0  0  0  0
    1.0954    4.6974   12.6529 O   0  0  0  0  0  0  0  0  0  0  0  0
    0.7785    5.4640   13.1585 H   0  0  0  0  0  0  0  0  0  0  0  0
  2  1  1  0  0  0
  2  3  1  0  0  0
  3  4  1  0  0  0
  4  5  1  0  0  0
  5  6  1  0  0  0
  6  7  1  0  0  0
  7  8  1  0  0  0
  8  9  1  0  0  0
  9 10  2  0  0  0
 10 11  1  0  0  0
 11 12  2  0  0  0
 11 13  1  0  0  0
 13 14  1  0  0  0
 14 15  1  0  0  0
 15 16  1  0  0  0
  6 17  1  0  0  0
 17 18  1  0  0  0
 18 19  1  0  0  0
 19 20  1  0  0  0
 20 21  1  0  0  0
 17  2  1  0  0  0
 20  2  1  0  0  0
 15  5  1  0  0  0
 15  9  1  0  0  0
 21 22  1  0  0  0
M  END
> <minimizedAffinity>
-4.60740

> <CNNscore>
0.5340552330

> <CNNaffinity>
4.4235482216

> <CNN_VS>
2.3624191284

> <CNNaffinity_variance>
0.0873675197

$$$$
[H]O[C@@]1([H])C([H])([H])C([H])([H])[C@]2([H])[C@]1(C([H])([H])[H])C([H])([H])C([H])([H])[C@]1([H])[C@]3(C([H])([H])[H])C(=C([H])C(=O)C([H])([H])C3([H])[H])C([H])([H])C([H])([H])[C@@]21[H]


 22 25  0  0  0  0  0  0  0  0999 V2000
    6.0717    1.3425   21.8666 C   0  0  0  0  0  0  0  0  0  0  0  0
    4.8417    2.2099   21.8418 C   0  0  0  0  0  0  0  0  0  0  0  0
    3.6214    1.4686   21.4150 C   0  0  0  0  0  0  0  0  0  0  0  0
    3.8110    1.0290   19.9844 C   0  0  0  0  0  0  0  0  0  0  0  0
    3.9427    2.2470   19.0945 C   0  0  0  0  0  0  0  0  0  0  0  0
    5.1277    3.1172   19.5079 C   0  0  0  0  0  0  0  0  0  0  0  0
    4.9833    4.4477   18.7819 C   0  0  0  0  0  0  0  0  0  0  0  0
    4.8628    4.3014   17.3073 C   0  0  0  0  0  0  0  0  0  0  0  0
    4.0342    3.1680   16.8698 C   0  0  0  0  0  0  0  0  0  0  0  0
    3.2987    3.3237   15.7815 C   0  0  0  0  0  0  0  0  0  0  0  0
    2.4465    2.2742   15.2614 C   0  0  0  0  0  0  0  0  0  0  0  0
    1.5132    2.4883   14.4605 O   0  0  0  0  0  0  0  0  0  0  0  0
    2.7500    0.8805   15.7468 C   0  0  0  0  0  0  0  0  0  0  0  0
    2.9124    0.9927   17.2492 C   0  0  0  0  0  0  0  0  0  0  0  0
    4.0416    1.8922   17.6485 C   0  0  0  0  0  0  0  0  0  0  0  0
    5.3421    1.1794   17.3376 C   0  0  0  0  0  0  0  0  0  0  0  0
    5.0013    3.4171   20.9445 C   0  0  0  0  0  0  0  0  0  0  0  0
    6.1455    4.1119   21.5840 C   0  0  0  0  0  0  0  0  0  0  0  0
    5.8309    3.9436   23.0726 C   0  0  0  0  0  0  0  0  0  0  0  0
    4.6690    2.9717   23.1391 C   0  0  0  0  0  0  0  0  0  0  0  0
    4.6510    2.2008   24.2512 O   0  0  0  0  0  0  0  0  0  0  0  0
    5.2496    1.4360   24.2736 H   0  0  0  0  0  0  0  0  0  0  0  0
  2  1  1  0  0  0
  2  3  1  0  0  0
  3  4  1  0  0  0
  4  5  1  0  0  0
  5  6  1  0  0  0
  6  7  1  0  0  0
  7  8  1  0  0  0
  8  9  1  0  0  0
  9 10  2  0  0  0
 10 11  1  0  0  0
 11 12  2  0  0  0
 11 13  1  0  0  0
 13 14  1  0  0  0
 14 15  1  0  0  0
 15 16  1  0  0  0
  6 17  1  0  0  0
 17 18  1  0  0  0
 18 19  1  0  0  0
 19 20  1  0  0  0
 20 21  1  0  0  0
 17  2  1  0  0  0
 20  2  1  0  0  0
 15  5  1  0  0  0
 15  9  1  0  0  0
 21 22  1  0  0  0
M  END
> <minimizedAffinity>
-7.81361

> <CNNscore>
0.5249115825

> <CNNaffinity>
6.2014222145

> <CNN_VS>
3.2551982403

> <CNNaffinity_variance>
0.1348388642

$$$$
[H]O[C@@]1([H])C([H])([H])C([H])([H])[C@]2([H])[C@]1(C([H])([H])[H])C([H])([H])C([H])([H])[C@]1([H])[C@]3(C([H])([H])[H])C(=C([H])C(=O)C([H])([H])C3([H])[H])C([H])([H])C([H])([H])[C@@]21[H]


 22 25  0  0  0  0  0  0  0  0999 V2000
    4.4229    6.0067   16.9163 C   0  0  0  0  0  0  0  0  0  0  0  0
    3.2757    5.0939   17.2578 C   0  0  0  0  0  0  0  0  0  0  0  0
    2.5589    5.5070   18.4974 C   0  0  0  0  0  0  0  0  0  0  0  0
    3.5117    5.3788   19.6599 C   0  0  0  0  0  0  0  0  0  0  0  0
    3.9156    3.9289   19.8250 C   0  0  0  0  0  0  0  0  0  0  0  0
    4.5920    3.3891   18.5666 C   0  0  0  0  0  0  0  0  0  0  0  0
    4.6627    1.8749   18.7086 C   0  0  0  0  0  0  0  0  0  0  0  0
    5.3355    1.4335   19.9587 C   0  0  0  0  0  0  0  0  0  0  0  0
    5.0092    2.2367   21.1465 C   0  0  0  0  0  0  0  0  0  0  0  0
    4.9220    1.6130   22.3096 C   0  0  0  0  0  0  0  0  0  0  0  0
    4.6066    2.3053   23.5423 C   0  0  0  0  0  0  0  0  0  0  0  0
    4.1965    1.7210   24.5664 O   0  0  0  0  0  0  0  0  0  0  0  0
    4.8027    3.7991   23.5254 C   0  0  0  0  0  0  0  0  0  0  0  0
    4.1557    4.2861   22.2447 C   0  0  0  0  0  0  0  0  0  0  0  0
    4.7881    3.7091   21.0155 C   0  0  0  0  0  0  0  0  0  0  0  0
    6.1462    4.3570   20.8379 C   0  0  0  0  0  0  0  0  0  0  0  0
    3.7085    3.6534   17.4180 C   0  0  0  0  0  0  0  0  0  0  0  0
    4.2579    3.3581   16.0720 C   0  0  0  0  0  0  0  0  0  0  0  0
    3.2511    4.0567   15.1547 C   0  0  0  0  0  0  0  0  0  0  0  0
    2.3622    4.8762   16.0699 C   0  0  0  0  0  0  0  0  0  0  0  0
    1.8808    6.0099   15.5094 O   0  0  0  0  0  0  0  0  0  0  0  0
    2.4798    6.7732   15.4619 H   0  0  0  0  0  0  0  0  0  0  0  0
  2  1  1  0  0  0
  2  3  1  0  0  0
  3  4  1  0  0  0
  4  5  1  0  0  0
  5  6  1  0  0  0
  6  7  1  0  0  0
  7  8  1  0  0  0
  8  9  1  0  0  0
  9 10  2  0  0  0
 10 11  1  0  0  0
 11 12  2  0  0  0
 11 13  1  0  0  0
 13 14  1  0  0  0
 14 15  1  0  0  0
 15 16  1  0  0  0
  6 17  1  0  0  0
 17 18  1  0  0  0
 18 19  1  0  0  0
 19 20  1  0  0  0
 20 21  1  0  0  0
 17  2  1  0  0  0
 20  2  1  0  0  0
 15  5  1  0  0  0
 15  9  1  0  0  0
 21 22  1  0  0  0
M  END
> <minimizedAffinity>
-7.96618

> <CNNscore>
0.5216025710

> <CNNaffinity>
5.8886222839

> <CNN_VS>
3.0715205669

> <CNNaffinity_variance>
0.1149544939

$$$$
[H]O[C@@]1([H])C([H])([H])C([H])([H])[C@]2([H])[C@]1(C([H])([H])[H])C([H])([H])C([H])([H])[C@]1([H])[C@]3(C([H])([H])[H])C(=C([H])C(=O)C([H])([H])C3([H])[H])C([H])([H])C([H])([H])[C@@]21[H]


 22 25  0  0  0  0  0  0  0  0999 V2000
    4.8327    2.8845   16.2669 C   0  0  0  0  0  0  0  0  0  0  0  0
    3.5492    3.1451   17.0088 C   0  0  0  0  0  0  0  0  0  0  0  0
    3.7012    4.1655   18.0842 C   0  0  0  0  0  0  0  0  0  0  0  0
    4.6436    3.6173   19.1268 C   0  0  0  0  0  0  0  0  0  0  0  0
    4.0397    2.3778   19.7525 C   0  0  0  0  0  0  0  0  0  0  0  0
    3.7717    1.2967   18.7076 C   0  0  0  0  0  0  0  0  0  0  0  0
    2.8866    0.2463   19.3644 C   0  0  0  0  0  0  0  0  0  0  0  0
    3.4586   -0.2989   20.6237 C   0  0  0  0  0  0  0  0  0  0  0  0
    4.1190    0.6987   21.4788 C   0  0  0  0  0  0  0  0  0  0  0  0
    4.0163    0.5543   22.7896 C   0  0  0  0  0  0  0  0  0  0  0  0
    4.6266    1.4772   23.7244 C   0  0  0  0  0  0  0  0  0  0  0  0
    4.2812    1.5633   24.9210 O   0  0  0  0  0  0  0  0  0  0  0  0
    5.7233    2.3473   23.1674 C   0  0  0  0  0  0  0  0  0  0  0  0
    5.1892    2.8993   21.8612 C   0  0  0  0  0  0  0  0  0  0  0  0
    4.8755    1.8298   20.8605 C   0  0  0  0  0  0  0  0  0  0  0  0
    6.1860    1.2701   20.3452 C   0  0  0  0  0  0  0  0  0  0  0  0
    2.9699    1.8905   17.6240 C   0  0  0  0  0  0  0  0  0  0  0  0
    2.7441    1.0491   16.4232 C   0  0  0  0  0  0  0  0  0  0  0  0
    2.2088    2.0681   15.4141 C   0  0  0  0  0  0  0  0  0  0  0  0
    2.4027    3.4261   16.0602 C   0  0  0  0  0  0  0  0  0  0  0  0
    2.6256    4.4329   15.1839 O   0  0  0  0  0  0  0  0  0  0  0  0
    3.5217    4.5154   14.8179 H   0  0  0  0  0  0  0  0  0  0  0  0
  2  1  1  0  0  0
  2  3  1  0  0  0
  3  4  1  0  0  0
  4  5  1  0  0  0
  5  6  1  0  0  0
  6  7  1  0  0  0
  7  8  1  0  0  0
  8  9  1  0  0  0
  9 10  2  0  0  0
 10 11  1  0  0  0
 11 12  2  0  0  0
 11 13  1  0  0  0
 13 14  1  0  0  0
 14 15  1  0  0  0
 15 16  1  0  0  0
  6 17  1  0  0  0
 17 18  1  0  0  0
 18 19  1  0  0  0
 19 20  1  0  0  0
 20 21  1  0  0  0
 17  2  1  0  0  0
 20  2  1  0  0  0
 15  5  1  0  0  0
 15  9  1  0  0  0
 21 22  1  0  0  0
M  END
> <minimizedAffinity>
-7.11919

> <CNNscore>
0.4788553119

> <CNNaffinity>
6.0797376633

> <CNN_VS>
2.9113147259

> <CNNaffinity_variance>
0.1285261661

$$$$
[H]O[C@@]1([H])C([H])([H])C([H])([H])[C@]2([H])[C@]1(C([H])([H])[H])C([H])([H])C([H])([H])[C@]1([H])[C@]3(C([H])([H])[H])C(=C([H])C(=O)C([H])([H])C3([H])[H])C([H])([H])C([H])([H])[C@@]21[H]


 22 25  0  0  0  0  0  0  0  0999 V2000
    6.1171    2.9106   21.7071 C   0  0  0  0  0  0  0  0  0  0  0  0
    4.6174    2.7970   21.6443 C   0  0  0  0  0  0  0  0  0  0  0  0
    4.1588    1.7081   20.7361 C   0  0  0  0  0  0  0  0  0  0  0  0
    4.5773    2.0574   19.3295 C   0  0  0  0  0  0  0  0  0  0  0  0
    3.8874    3.3347   18.8993 C   0  0  0  0  0  0  0  0  0  0  0  0
    4.2358    4.4986   19.8247 C   0  0  0  0  0  0  0  0  0  0  0  0
    3.2634    5.6278   19.5127 C   0  0  0  0  0  0  0  0  0  0  0  0
    3.2554    6.0155   18.0774 C   0  0  0  0  0  0  0  0  0  0  0  0
    3.3490    4.8882   17.1378 C   0  0  0  0  0  0  0  0  0  0  0  0
    2.6788    4.9740   16.0006 C   0  0  0  0  0  0  0  0  0  0  0  0
    2.6997    3.9232   15.0038 C   0  0  0  0  0  0  0  0  0  0  0  0
    1.8425    3.8224   14.1018 O   0  0  0  0  0  0  0  0  0  0  0  0
    3.8329    2.9364   15.1131 C   0  0  0  0  0  0  0  0  0  0  0  0
    3.8950    2.5390   16.5740 C   0  0  0  0  0  0  0  0  0  0  0  0
    4.1818    3.6956   17.4816 C   0  0  0  0  0  0  0  0  0  0  0  0
    5.6336    4.0886   17.2969 C   0  0  0  0  0  0  0  0  0  0  0  0
    3.9557    4.0862   21.2107 C   0  0  0  0  0  0  0  0  0  0  0  0
    4.3874    5.0157   22.2834 C   0  0  0  0  0  0  0  0  0  0  0  0
    4.2654    4.1408   23.5336 C   0  0  0  0  0  0  0  0  0  0  0  0
    4.0034    2.7358   23.0272 C   0  0  0  0  0  0  0  0  0  0  0  0
    4.4937    1.7569   23.8225 O   0  0  0  0  0  0  0  0  0  0  0  0
    5.4443    1.5666   23.7612 H   0  0  0  0  0  0  0  0  0  0  0  0
  2  1  1  0  0  0
  2  3  1  0  0  0
  3  4  1  0  0  0
  4  5  1  0  0  0
  5  6  1  0  0  0
  6  7  1  0  0  0
  7  8  1  0  0  0
  8  9  1  0  0  0
  9 10  2  0  0  0
 10 11  1  0  0  0
 11 12  2  0  0  0
 11 13  1  0  0  0
 13 14  1  0  0  0
 14 15  1  0  0  0
 15 16  1  0  0  0
  6 17  1  0  0  0
 17 18  1  0  0  0
 18 19  1  0  0  0
 19 20  1  0  0  0
 20 21  1  0  0  0
 17  2  1  0  0  0
 20  2  1  0  0  0
 15  5  1  0  0  0
 15  9  1  0  0  0
 21 22  1  0  0  0
M  END
> <minimizedAffinity>
-8.88039

> <CNNscore>
0.4758333862

> <CNNaffinity>
5.7771711349

> <CNN_VS>
2.7489709854

> <CNNaffinity_variance>
0.0695696175

$$$$
[H]O[C@@]1([H])C([H])([H])C([H])([H])[C@]2([H])[C@]1(C([H])([H])[H])C([H])([H])C([H])([H])[C@]1([H])[C@]3(C([H])([H])[H])C(=C([H])C(=O)C([H])([H])C3([H])[H])C([H])([H])C([H])([H])[C@@]21[H]


 22 25  0  0  0  0  0  0  0  0999 V2000
    6.0741    2.0147    7.1750 C   0  0  0  0  0  0  0  0  0  0  0  0
    5.9830    1.6555    8.6340 C   0  0  0  0  0  0  0  0  0  0  0  0
    6.5166    0.2954    8.9278 C   0  0  0  0  0  0  0  0  0  0  0  0
    5.6443   -0.7166    8.2274 C   0  0  0  0  0  0  0  0  0  0  0  0
    4.2386   -0.6448    8.7855 C   0  0  0  0  0  0  0  0  0  0  0  0
    3.6331    0.7451    8.6011 C   0  0  0  0  0  0  0  0  0  0  0  0
    2.3797    0.8074    9.4633 C   0  0  0  0  0  0  0  0  0  0  0  0
    1.4135   -0.2848    9.1738 C   0  0  0  0  0  0  0  0  0  0  0  0
    2.0291   -1.5963    8.9214 C   0  0  0  0  0  0  0  0  0  0  0  0
    1.3884   -2.6722    9.3477 C   0  0  0  0  0  0  0  0  0  0  0  0
    1.9027   -4.0123    9.1532 C   0  0  0  0  0  0  0  0  0  0  0  0
    1.5098   -4.9956    9.8143 O   0  0  0  0  0  0  0  0  0  0  0  0
    2.9590   -4.1626    8.0894 C   0  0  0  0  0  0  0  0  0  0  0  0
    3.9509   -3.0429    8.3313 C   0  0  0  0  0  0  0  0  0  0  0  0
    3.3374   -1.6823    8.2040 C   0  0  0  0  0  0  0  0  0  0  0  0
    3.0665   -1.4251    6.7355 C   0  0  0  0  0  0  0  0  0  0  0  0
    4.5683    1.7344    9.1635 C   0  0  0  0  0  0  0  0  0  0  0  0
    4.2454    3.1639    8.9329 C   0  0  0  0  0  0  0  0  0  0  0  0
    5.5539    3.8551    9.3246 C   0  0  0  0  0  0  0  0  0  0  0  0
    6.5653    2.7415    9.5142 C   0  0  0  0  0  0  0  0  0  0  0  0
    7.8389    3.0897    9.2174 O   0  0  0  0  0  0  0  0  0  0  0  0
    8.0881    3.1120    8.2788 H   0  0  0  0  0  0  0  0  0  0  0  0
  2  1  1  0  0  0
  2  3  1  0  0  0
  3  4  1  0  0  0
  4  5  1  0  0  0
  5  6  1  0  0  0
  6  7  1  0  0  0
  7  8  1  0  0  0
  8  9  1  0  0  0
  9 10  2  0  0  0
 10 11  1  0  0  0
 11 12  2  0  0  0
 11 13  1  0  0  0
 13 14  1  0  0  0
 14 15  1  0  0  0
 15 16  1  0  0  0
  6 17  1  0  0  0
 17 18  1  0  0  0
 18 19  1  0  0  0
 19 20  1  0  0  0
 20 21  1  0  0  0
 17  2  1  0  0  0
 20  2  1  0  0  0
 15  5  1  0  0  0
 15  9  1  0  0  0
 21 22  1  0  0  0
M  END
> <minimizedAffinity>
-4.72482

> <CNNscore>
0.4419951737

> <CNNaffinity>
4.3463339806

> <CNN_VS>
1.9210586548

> <CNNaffinity_variance>
0.0611218326

$$$$
[H]O[C@@]1([H])C([H])([H])C([H])([H])[C@]2([H])[C@]1(C([H])([H])[H])C([H])([H])C([H])([H])[C@]1([H])[C@]3(C([H])([H])[H])C(=C([H])C(=O)C([H])([H])C3([H])[H])C([H])([H])C([H])([H])[C@@]21[H]


 22 25  0  0  0  0  0  0  0  0999 V2000
    3.7370    0.8037    7.6228 C   0  0  0  0  0  0  0  0  0  0  0  0
    4.4953    0.7585    8.9224 C   0  0  0  0  0  0  0  0  0  0  0  0
    3.6531    0.3086   10.0666 C   0  0  0  0  0  0  0  0  0  0  0  0
    2.5698    1.3346   10.2888 C   0  0  0  0  0  0  0  0  0  0  0  0
    3.1977    2.6576   10.6736 C   0  0  0  0  0  0  0  0  0  0  0  0
    4.1463    3.1638    9.5891 C   0  0  0  0  0  0  0  0  0  0  0  0
    4.9554    4.3024   10.1951 C   0  0  0  0  0  0  0  0  0  0  0  0
    4.1100    5.3815   10.7705 C   0  0  0  0  0  0  0  0  0  0  0  0
    2.9160    4.9082   11.4868 C   0  0  0  0  0  0  0  0  0  0  0  0
    2.5292    5.5828   12.5568 C   0  0  0  0  0  0  0  0  0  0  0  0
    1.3685    5.2056   13.3369 C   0  0  0  0  0  0  0  0  0  0  0  0
    1.1749    5.6006   14.5052 O   0  0  0  0  0  0  0  0  0  0  0  0
    0.3852    4.2922   12.6522 C   0  0  0  0  0  0  0  0  0  0  0  0
    1.2139    3.1907   12.0229 C   0  0  0  0  0  0  0  0  0  0  0  0
    2.1819    3.7008   10.9998 C   0  0  0  0  0  0  0  0  0  0  0  0
    1.3941    4.1139    9.7731 C   0  0  0  0  0  0  0  0  0  0  0  0
    5.1100    2.0930    9.2819 C   0  0  0  0  0  0  0  0  0  0  0  0
    6.0162    2.3214    8.1297 C   0  0  0  0  0  0  0  0  0  0  0  0
    6.5984    0.9247    7.8984 C   0  0  0  0  0  0  0  0  0  0  0  0
    5.7947   -0.0068    8.7847 C   0  0  0  0  0  0  0  0  0  0  0  0
    5.6642   -1.2629    8.2985 O   0  0  0  0  0  0  0  0  0  0  0  0
    5.0011   -1.4054    7.6031 H   0  0  0  0  0  0  0  0  0  0  0  0
  2  1  1  0  0  0
  2  3  1  0  0  0
  3  4  1  0  0  0
  4  5  1  0  0  0
  5  6  1  0  0  0
  6  7  1  0  0  0
  7  8  1  0  0  0
  8  9  1  0  0  0
  9 10  2  0  0  0
 10 11  1  0  0  0
 11 12  2  0  0  0
 11 13  1  0  0  0
 13 14  1  0  0  0
 14 15  1  0  0  0
 15 16  1  0  0  0
  6 17  1  0  0  0
 17 18  1  0  0  0
 18 19  1  0  0  0
 19 20  1  0  0  0
 20 21  1  0  0  0
 17  2  1  0  0  0
 20  2  1  0  0  0
 15  5  1  0  0  0
 15  9  1  0  0  0
 21 22  1  0  0  0
M  END
> <minimizedAffinity>
-4.74165

> <CNNscore>
0.4376724064

> <CNNaffinity>
4.6758294106

> <CNN_VS>
2.0464816093

> <CNNaffinity_variance>
0.0892271623

$$$$
[H]OC([H])([H])C([H])([H])N([H])C(=O)c1c([H])c(OC([H])([H])[H])c([H])c(N([H])c2nc([H])c([H])c(Oc3c([H])c([H])c(N([H])C(=O)N([H])c4c([H])c(C(C([H])([H])[H])(C([H])([H])[H])C([H])([H])[H])nn4-c4c([H])c([H])c(C([H])([H])[H])c([H])c4[H])c4c([H])c([H])c([H])c([H])c34)n2)c1[H]


 57 62  0  0  0  0  0  0  0  0999 V2000
    4.0221    1.9988   17.9959 C   0  0  0  0  0  0  0  0  0  0  0  0
    3.7277    0.7539   17.3720 C   0  0  0  0  0  0  0  0  0  0  0  0
    2.9513    0.6955   16.2568 C   0  0  0  0  0  0  0  0  0  0  0  0
    2.3889    1.7810   15.6355 C   0  0  0  0  0  0  0  0  0  0  0  0
    2.6818    3.0113   16.2602 C   0  0  0  0  0  0  0  0  0  0  0  0
    2.1089    4.1383   15.7152 C   0  0  0  0  0  0  0  0  0  0  0  0
    2.3405    5.3837   16.3443 C   0  0  0  0  0  0  0  0  0  0  0  0
    3.1097    5.4924   17.4639 C   0  0  0  0  0  0  0  0  0  0  0  0
    3.6639    4.3216   17.9680 C   0  0  0  0  0  0  0  0  0  0  0  0
    3.4682    3.0914   17.3919 C   0  0  0  0  0  0  0  0  0  0  0  0
    1.5799    1.6846   14.5128 N   0  0  0  0  0  0  0  0  0  0  0  0
    1.8287    2.1857   13.2164 C   0  0  0  0  0  0  0  0  0  0  0  0
    2.8380    2.8102   12.9255 O   0  0  0  0  0  0  0  0  0  0  0  0
    0.8762    1.9651   12.1598 N   0  0  0  0  0  0  0  0  0  0  0  0
    0.6373    1.1715   14.5870 H   0  0  0  0  0  0  0  0  0  0  0  0
   -0.0058    1.4183   12.4156 H   0  0  0  0  0  0  0  0  0  0  0  0
    1.0588    2.4514   10.8472 C   0  0  0  0  0  0  0  0  0  0  0  0
    1.7300    1.8730    9.8024 C   0  0  0  0  0  0  0  0  0  0  0  0
    1.5620    2.7294    8.7035 C   0  0  0  0  0  0  0  0  0  0  0  0
    0.8238    3.7369    9.1472 N   0  0  0  0  0  0  0  0  0  0  0  0
    0.4915    3.6297   10.4174 N   0  0  0  0  0  0  0  0  0  0  0  0
   -0.3064    4.5071   11.2053 C   0  0  0  0  0  0  0  0  0  0  0  0
    0.2505    5.3440   12.1614 C   0  0  0  0  0  0  0  0  0  0  0  0
   -0.5066    6.1954   12.9453 C   0  0  0  0  0  0  0  0  0  0  0  0
   -1.8810    6.2426   12.8015 C   0  0  0  0  0  0  0  0  0  0  0  0
   -2.6649    7.1725   13.6765 C   0  0  0  0  0  0  0  0  0  0  0  0
   -2.4423    5.4203   11.8598 C   0  0  0  0  0  0  0  0  0  0  0  0
   -1.6701    4.5666   11.0746 C   0  0  0  0  0  0  0  0  0  0  0  0
    2.1307    2.4771    7.3265 C   0  0  0  0  0  0  0  0  0  0  0  0
    0.9261    2.0323    6.5007 C   0  0  0  0  0  0  0  0  0  0  0  0
    2.6436    3.7451    6.7464 C   0  0  0  0  0  0  0  0  0  0  0  0
    3.1421    1.3700    7.4028 C   0  0  0  0  0  0  0  0  0  0  0  0
    4.8031    1.9500   19.1093 O   0  0  0  0  0  0  0  0  0  0  0  0
    4.8611    3.5212   22.4127 C   0  0  0  0  0  0  0  0  0  0  0  0
    4.4613    2.4919   23.2041 N   0  0  0  0  0  0  0  0  0  0  0  0
    4.1970    1.3210   22.6037 C   0  0  0  0  0  0  0  0  0  0  0  0
    4.3182    1.1528   21.2684 C   0  0  0  0  0  0  0  0  0  0  0  0
    4.7348    2.2183   20.4103 C   0  0  0  0  0  0  0  0  0  0  0  0
    4.9805    3.3545   21.0970 N   0  0  0  0  0  0  0  0  0  0  0  0
    5.0746    4.7788   23.0392 N   0  0  0  0  0  0  0  0  0  0  0  0
    4.8317    4.8784   24.0567 H   0  0  0  0  0  0  0  0  0  0  0  0
    7.6667    7.0060   21.6745 C   0  0  0  0  0  0  0  0  0  0  0  0
    7.0098    5.9807   22.2853 C   0  0  0  0  0  0  0  0  0  0  0  0
    5.5985    5.8979   22.3405 C   0  0  0  0  0  0  0  0  0  0  0  0
    4.9016    6.9016   21.7465 C   0  0  0  0  0  0  0  0  0  0  0  0
    5.5593    7.9623   21.1125 C   0  0  0  0  0  0  0  0  0  0  0  0
    6.9564    7.9974   21.0883 C   0  0  0  0  0  0  0  0  0  0  0  0
    4.8661    9.0356   20.4514 C   0  0  0  0  0  0  0  0  0  0  0  0
    5.3028   10.2139   20.6463 O   0  0  0  0  0  0  0  0  0  0  0  0
    3.7523    8.7954   19.6182 N   0  0  0  0  0  0  0  0  0  0  0  0
    3.4362    7.7918   19.5020 H   0  0  0  0  0  0  0  0  0  0  0  0
    3.0694    9.8819   18.9556 C   0  0  0  0  0  0  0  0  0  0  0  0
    3.6652   10.2116   17.6243 C   0  0  0  0  0  0  0  0  0  0  0  0
    2.6922   10.1634   16.6374 O   0  0  0  0  0  0  0  0  0  0  0  0
    2.0057    9.5006   16.8630 H   0  0  0  0  0  0  0  0  0  0  0  0
    9.7692    6.3185   22.6773 C   0  0  0  0  0  0  0  0  0  0  0  0
    9.0472    7.0245   21.6630 O   0  0  0  0  0  0  0  0  0  0  0  0
 56 57  1  0  0  0
 57 42  1  0  0  0
 42 43  2  0  0  0
 43 44  1  0  0  0
 44 40  1  0  0  0
 40 34  1  0  0  0
 34 35  2  0  0  0
 35 36  1  0  0  0
 36 37  2  0  0  0
 37 38  1  0  0  0
 38 33  1  0  0  0
 33  1  1  0  0  0
  1  2  2  0  0  0
  2  3  1  0  0  0
  3  4  2  0  0  0
  4 11  1  0  0  0
 11 12  1  0  0  0
 12 13  2  0  0  0
 12 14  1  0  0  0
 14 17  1  0  0  0
 17 18  2  0  0  0
 18 19  1  0  0  0
 19 20  2  0  0  0
 20 21  1  0  0  0
 21 22  1  0  0  0
 22 23  2  0  0  0
 23 24  1  0  0  0
 24 25  2  0  0  0
 25 26  1  0  0  0
 25 27  1  0  0  0
 27 28  2  0  0  0
 19 29  1  0  0  0
 29 30  1  0  0  0
 29 31  1  0  0  0
 29 32  1  0  0  0
  4  5  1  0  0  0
  5  6  2  0  0  0
  6  7  1  0  0  0
  7  8  2  0  0  0
  8  9  1  0  0  0
  9 10  2  0  0  0
 38 39  2  0  0  0
 44 45  2  0  0  0
 45 46  1  0  0  0
 46 47  2  0  0  0
 46 48  1  0  0  0
 48 49  2  0  0  0
 48 50  1  0  0  0
 50 52  1  0  0  0
 52 53  1  0  0  0
 53 54  1  0  0  0
 47 42  1  0  0  0
 39 34  1  0  0  0
 10  1  1  0  0  0
 21 17  1  0  0  0
 28 22  1  0  0  0
 10  5  1  0  0  0
 40 41  1  0  0  0
 11 15  1  0  0  0
 14 16  1  0  0  0
 50 51  1  0  0  0
 54 55  1  0  0  0
M  END
> <minimizedAffinity>
-10.40903

> <CNNscore>
0.2940911055

> <CNNaffinity>
7.6613678932

> <CNN_VS>
2.2531402111

> <CNNaffinity_variance>
0.1977775842

$$$$
[H]OC([H])([H])C([H])([H])N([H])C(=O)c1c([H])c(OC([H])([H])[H])c([H])c(N([H])c2nc([H])c([H])c(Oc3c([H])c([H])c(N([H])C(=O)N([H])c4c([H])c(C(C([H])([H])[H])(C([H])([H])[H])C([H])([H])[H])nn4-c4c([H])c([H])c(C([H])([H])[H])c([H])c4[H])c4c([H])c([H])c([H])c([H])c34)n2)c1[H]


 57 62  0  0  0  0  0  0  0  0999 V2000
    3.7584    1.8307   17.7056 C   0  0  0  0  0  0  0  0  0  0  0  0
    3.4593    0.6502   16.9691 C   0  0  0  0  0  0  0  0  0  0  0  0
    2.7710    0.7110   15.7975 C   0  0  0  0  0  0  0  0  0  0  0  0
    2.3075    1.8651   15.2198 C   0  0  0  0  0  0  0  0  0  0  0  0
    2.6044    3.0311   15.9560 C   0  0  0  0  0  0  0  0  0  0  0  0
    2.1261    4.2215   15.4564 C   0  0  0  0  0  0  0  0  0  0  0  0
    2.3623    5.4053   16.1936 C   0  0  0  0  0  0  0  0  0  0  0  0
    3.0454    5.3946   17.3727 C   0  0  0  0  0  0  0  0  0  0  0  0
    3.5062    4.1644   17.8269 C   0  0  0  0  0  0  0  0  0  0  0  0
    3.3023    2.9902   17.1463 C   0  0  0  0  0  0  0  0  0  0  0  0
    1.5856    1.8902   14.0355 N   0  0  0  0  0  0  0  0  0  0  0  0
    1.9511    2.4826   12.8070 C   0  0  0  0  0  0  0  0  0  0  0  0
    3.0002    3.0880   12.6449 O   0  0  0  0  0  0  0  0  0  0  0  0
    1.0769    2.3844   11.6674 N   0  0  0  0  0  0  0  0  0  0  0  0
    0.6235    1.4105   13.9964 H   0  0  0  0  0  0  0  0  0  0  0  0
    0.1600    1.8543   11.8106 H   0  0  0  0  0  0  0  0  0  0  0  0
    1.3773    2.9660   10.4167 C   0  0  0  0  0  0  0  0  0  0  0  0
    1.2326    4.2686   10.0181 C   0  0  0  0  0  0  0  0  0  0  0  0
    1.7322    4.3380    8.7087 C   0  0  0  0  0  0  0  0  0  0  0  0
    2.1315    3.1088    8.4146 N   0  0  0  0  0  0  0  0  0  0  0  0
    1.9466    2.2448    9.3917 N   0  0  0  0  0  0  0  0  0  0  0  0
    2.2781    0.8607    9.4299 C   0  0  0  0  0  0  0  0  0  0  0  0
    3.5534    0.4213    9.7544 C   0  0  0  0  0  0  0  0  0  0  0  0
    3.9000   -0.9172    9.7864 C   0  0  0  0  0  0  0  0  0  0  0  0
    2.9642   -1.8899    9.4865 C   0  0  0  0  0  0  0  0  0  0  0  0
    3.3830   -3.3279    9.5243 C   0  0  0  0  0  0  0  0  0  0  0  0
    1.7007   -1.4676    9.1647 C   0  0  0  0  0  0  0  0  0  0  0  0
    1.3618   -0.1163    9.1361 C   0  0  0  0  0  0  0  0  0  0  0  0
    1.7791    5.5978    7.8757 C   0  0  0  0  0  0  0  0  0  0  0  0
    0.9581    6.6056    8.6764 C   0  0  0  0  0  0  0  0  0  0  0  0
    3.1739    6.1027    7.7926 C   0  0  0  0  0  0  0  0  0  0  0  0
    1.1275    5.3391    6.5480 C   0  0  0  0  0  0  0  0  0  0  0  0
    4.4468    1.6629   18.8676 O   0  0  0  0  0  0  0  0  0  0  0  0
    4.5287    3.0956   22.2329 C   0  0  0  0  0  0  0  0  0  0  0  0
    3.8495    2.1548   22.9394 N   0  0  0  0  0  0  0  0  0  0  0  0
    3.4011    1.0842   22.2655 C   0  0  0  0  0  0  0  0  0  0  0  0
    3.6071    0.9301   20.9389 C   0  0  0  0  0  0  0  0  0  0  0  0
    4.3165    1.9045   20.1691 C   0  0  0  0  0  0  0  0  0  0  0  0
    4.7315    2.9428   20.9258 N   0  0  0  0  0  0  0  0  0  0  0  0
    4.9436    4.2610   22.9325 N   0  0  0  0  0  0  0  0  0  0  0  0
    4.8201    4.2887   23.9757 H   0  0  0  0  0  0  0  0  0  0  0  0
    7.6237    6.4288   21.6444 C   0  0  0  0  0  0  0  0  0  0  0  0
    6.9259    5.4097   22.2191 C   0  0  0  0  0  0  0  0  0  0  0  0
    5.5124    5.3822   22.2734 C   0  0  0  0  0  0  0  0  0  0  0  0
    4.8567    6.4339   21.7165 C   0  0  0  0  0  0  0  0  0  0  0  0
    5.5568    7.4890   21.1198 C   0  0  0  0  0  0  0  0  0  0  0  0
    6.9542    7.4683   21.0949 C   0  0  0  0  0  0  0  0  0  0  0  0
    4.9077    8.6123   20.4983 C   0  0  0  0  0  0  0  0  0  0  0  0
    5.3829    9.7656   20.7460 O   0  0  0  0  0  0  0  0  0  0  0  0
    3.7944    8.4461   19.6465 N   0  0  0  0  0  0  0  0  0  0  0  0
    3.4450    7.4598   19.4858 H   0  0  0  0  0  0  0  0  0  0  0  0
    3.1561    9.5823   19.0242 C   0  0  0  0  0  0  0  0  0  0  0  0
    3.6900    9.8668   17.6567 C   0  0  0  0  0  0  0  0  0  0  0  0
    2.6994   10.4210   16.8601 O   0  0  0  0  0  0  0  0  0  0  0  0
    1.8170   10.0846   17.1242 H   0  0  0  0  0  0  0  0  0  0  0  0
    9.7122    6.9316   20.5111 C   0  0  0  0  0  0  0  0  0  0  0  0
    9.0039    6.3918   21.6316 O   0  0  0  0  0  0  0  0  0  0  0  0
 56 57  1  0  0  0
 57 42  1  0  0  0
 42 43  2  0  0  0
 43 44  1  0  0  0
 44 40  1  0  0  0
 40 34  1  0  0  0
 34 35  2  0  0  0
 35 36  1  0  0  0
 36 37  2  0  0  0
 37 38  1  0  0  0
 38 33  1  0  0  0
 33  1  1  0  0  0
  1  2  2  0  0  0
  2  3  1  0  0  0
  3  4  2  0  0  0
  4 11  1  0  0  0
 11 12  1  0  0  0
 12 13  2  0  0  0
 12 14  1  0  0  0
 14 17  1  0  0  0
 17 18  2  0  0  0
 18 19  1  0  0  0
 19 20  2  0  0  0
 20 21  1  0  0  0
 21 22  1  0  0  0
 22 23  2  0  0  0
 23 24  1  0  0  0
 24 25  2  0  0  0
 25 26  1  0  0  0
 25 27  1  0  0  0
 27 28  2  0  0  0
 19 29  1  0  0  0
 29 30  1  0  0  0
 29 31  1  0  0  0
 29 32  1  0  0  0
  4  5  1  0  0  0
  5  6  2  0  0  0
  6  7  1  0  0  0
  7  8  2  0  0  0
  8  9  1  0  0  0
  9 10  2  0  0  0
 38 39  2  0  0  0
 44 45  2  0  0  0
 45 46  1  0  0  0
 46 47  2  0  0  0
 46 48  1  0  0  0
 48 49  2  0  0  0
 48 50  1  0  0  0
 50 52  1  0  0  0
 52 53  1  0  0  0
 53 54  1  0  0  0
 47 42  1  0  0  0
 39 34  1  0  0  0
 10  1  1  0  0  0
 21 17  1  0  0  0
 28 22  1  0  0  0
 10  5  1  0  0  0
 40 41  1  0  0  0
 11 15  1  0  0  0
 14 16  1  0  0  0
 50 51  1  0  0  0
 54 55  1  0  0  0
M  END
> <minimizedAffinity>
-10.14358

> <CNNscore>
0.2252707481

> <CNNaffinity>
7.6461586952

> <CNN_VS>
1.7224558592

> <CNNaffinity_variance>
0.1688655317

$$$$
[H]OC([H])([H])C([H])([H])N([H])C(=O)c1c([H])c(OC([H])([H])[H])c([H])c(N([H])c2nc([H])c([H])c(Oc3c([H])c([H])c(N([H])C(=O)N([H])c4c([H])c(C(C([H])([H])[H])(C([H])([H])[H])C([H])([H])[H])nn4-c4c([H])c([H])c(C([H])([H])[H])c([H])c4[H])c4c([H])c([H])c([H])c([H])c34)n2)c1[H]


 57 62  0  0  0  0  0  0  0  0999 V2000
    3.9581    1.5937   18.0546 C   0  0  0  0  0  0  0  0  0  0  0  0
    3.0717    0.5541   17.6556 C   0  0  0  0  0  0  0  0  0  0  0  0
    2.3065    0.6766   16.5378 C   0  0  0  0  0  0  0  0  0  0  0  0
    2.3024    1.7671   15.7064 C   0  0  0  0  0  0  0  0  0  0  0  0
    3.1805    2.7950   16.1088 C   0  0  0  0  0  0  0  0  0  0  0  0
    3.1908    3.9399   15.3443 C   0  0  0  0  0  0  0  0  0  0  0  0
    4.0228    5.0110   15.7458 C   0  0  0  0  0  0  0  0  0  0  0  0
    4.8059    4.9360   16.8584 C   0  0  0  0  0  0  0  0  0  0  0  0
    4.7561    3.7551   17.5899 C   0  0  0  0  0  0  0  0  0  0  0  0
    3.9657    2.6894   17.2393 C   0  0  0  0  0  0  0  0  0  0  0  0
    1.4900    1.8712   14.5868 N   0  0  0  0  0  0  0  0  0  0  0  0
    1.8752    1.8523   13.2285 C   0  0  0  0  0  0  0  0  0  0  0  0
    3.0381    1.7509   12.8667 O   0  0  0  0  0  0  0  0  0  0  0  0
    0.8803    1.9477   12.1924 N   0  0  0  0  0  0  0  0  0  0  0  0
    0.4276    1.9785   14.7167 H   0  0  0  0  0  0  0  0  0  0  0  0
   -0.1362    2.0358   12.5103 H   0  0  0  0  0  0  0  0  0  0  0  0
    1.2008    1.9487   10.8176 C   0  0  0  0  0  0  0  0  0  0  0  0
    1.2174    0.8982    9.9386 C   0  0  0  0  0  0  0  0  0  0  0  0
    1.5396    1.4387    8.6843 C   0  0  0  0  0  0  0  0  0  0  0  0
    1.6921    2.7397    8.8861 N   0  0  0  0  0  0  0  0  0  0  0  0
    1.5034    3.1065   10.1372 N   0  0  0  0  0  0  0  0  0  0  0  0
    1.5613    4.4132   10.6995 C   0  0  0  0  0  0  0  0  0  0  0  0
    2.7247    4.9180   11.2620 C   0  0  0  0  0  0  0  0  0  0  0  0
    2.8001    6.1795   11.8236 C   0  0  0  0  0  0  0  0  0  0  0  0
    1.6895    7.0029   11.8470 C   0  0  0  0  0  0  0  0  0  0  0  0
    1.8116    8.3588   12.4727 C   0  0  0  0  0  0  0  0  0  0  0  0
    0.5345    6.5149   11.2940 C   0  0  0  0  0  0  0  0  0  0  0  0
    0.4696    5.2424   10.7298 C   0  0  0  0  0  0  0  0  0  0  0  0
    1.6589    0.6346    7.4105 C   0  0  0  0  0  0  0  0  0  0  0  0
    3.1222    0.7929    7.0048 C   0  0  0  0  0  0  0  0  0  0  0  0
    1.4118   -0.8035    7.6902 C   0  0  0  0  0  0  0  0  0  0  0  0
    0.7646    1.2306    6.3621 C   0  0  0  0  0  0  0  0  0  0  0  0
    4.6758    1.3766   19.1904 O   0  0  0  0  0  0  0  0  0  0  0  0
    5.1598    3.1458   22.3559 C   0  0  0  0  0  0  0  0  0  0  0  0
    4.5526    2.3004   23.2289 N   0  0  0  0  0  0  0  0  0  0  0  0
    4.0157    1.1780   22.7257 C   0  0  0  0  0  0  0  0  0  0  0  0
    4.0673    0.8827   21.4081 C   0  0  0  0  0  0  0  0  0  0  0  0
    4.6978    1.7542   20.4656 C   0  0  0  0  0  0  0  0  0  0  0  0
    5.2104    2.8540   21.0576 N   0  0  0  0  0  0  0  0  0  0  0  0
    5.6675    4.3662   22.8781 N   0  0  0  0  0  0  0  0  0  0  0  0
    5.8835    4.4192   23.9051 H   0  0  0  0  0  0  0  0  0  0  0  0
    7.4224    7.3587   21.6508 C   0  0  0  0  0  0  0  0  0  0  0  0
    7.0787    6.2268   22.3263 C   0  0  0  0  0  0  0  0  0  0  0  0
    5.8881    5.5086   22.0650 C   0  0  0  0  0  0  0  0  0  0  0  0
    5.0781    5.9981   21.0902 C   0  0  0  0  0  0  0  0  0  0  0  0
    5.4156    7.1587   20.3842 C   0  0  0  0  0  0  0  0  0  0  0  0
    6.6034    7.8321   20.6832 C   0  0  0  0  0  0  0  0  0  0  0  0
    4.6023    7.7031   19.3298 C   0  0  0  0  0  0  0  0  0  0  0  0
    3.4627    7.1704   19.1437 O   0  0  0  0  0  0  0  0  0  0  0  0
    5.0441    8.7841   18.5369 N   0  0  0  0  0  0  0  0  0  0  0  0
    6.0052    9.1785   18.7401 H   0  0  0  0  0  0  0  0  0  0  0  0
    4.2147    9.3248   17.4855 C   0  0  0  0  0  0  0  0  0  0  0  0
    3.4236   10.5140   17.9283 C   0  0  0  0  0  0  0  0  0  0  0  0
    2.3668   10.1154   18.7329 O   0  0  0  0  0  0  0  0  0  0  0  0
    2.0533    9.2235   18.4724 H   0  0  0  0  0  0  0  0  0  0  0  0
    9.7913    7.6981   21.2354 C   0  0  0  0  0  0  0  0  0  0  0  0
    8.5986    8.0115   21.9620 O   0  0  0  0  0  0  0  0  0  0  0  0
 56 57  1  0  0  0
 57 42  1  0  0  0
 42 43  2  0  0  0
 43 44  1  0  0  0
 44 40  1  0  0  0
 40 34  1  0  0  0
 34 35  2  0  0  0
 35 36  1  0  0  0
 36 37  2  0  0  0
 37 38  1  0  0  0
 38 33  1  0  0  0
 33  1  1  0  0  0
  1  2  2  0  0  0
  2  3  1  0  0  0
  3  4  2  0  0  0
  4 11  1  0  0  0
 11 12  1  0  0  0
 12 13  2  0  0  0
 12 14  1  0  0  0
 14 17  1  0  0  0
 17 18  2  0  0  0
 18 19  1  0  0  0
 19 20  2  0  0  0
 20 21  1  0  0  0
 21 22  1  0  0  0
 22 23  2  0  0  0
 23 24  1  0  0  0
 24 25  2  0  0  0
 25 26  1  0  0  0
 25 27  1  0  0  0
 27 28  2  0  0  0
 19 29  1  0  0  0
 29 30  1  0  0  0
 29 31  1  0  0  0
 29 32  1  0  0  0
  4  5  1  0  0  0
  5  6  2  0  0  0
  6  7  1  0  0  0
  7  8  2  0  0  0
  8  9  1  0  0  0
  9 10  2  0  0  0
 38 39  2  0  0  0
 44 45  2  0  0  0
 45 46  1  0  0  0
 46 47  2  0  0  0
 46 48  1  0  0  0
 48 49  2  0  0  0
 48 50  1  0  0  0
 50 52  1  0  0  0
 52 53  1  0  0  0
 53 54  1  0  0  0
 47 42  1  0  0  0
 39 34  1  0  0  0
 10  1  1  0  0  0
 21 17  1  0  0  0
 28 22  1  0  0  0
 10  5  1  0  0  0
 40 41  1  0  0  0
 11 15  1  0  0  0
 14 16  1  0  0  0
 50 51  1  0  0  0
 54 55  1  0  0  0
M  END
> <minimizedAffinity>
-9.55638

> <CNNscore>
0.2156767696

> <CNNaffinity>
7.6475167274

> <CNN_VS>
1.6493916512

> <CNNaffinity_variance>
0.3574436307

$$$$
[H]OC([H])([H])C([H])([H])N([H])C(=O)c1c([H])c(OC([H])([H])[H])c([H])c(N([H])c2nc([H])c([H])c(Oc3c([H])c([H])c(N([H])C(=O)N([H])c4c([H])c(C(C([H])([H])[H])(C([H])([H])[H])C([H])([H])[H])nn4-c4c([H])c([H])c(C([H])([H])[H])c([H])c4[H])c4c([H])c([H])c([H])c([H])c34)n2)c1[H]


 57 62  0  0  0  0  0  0  0  0999 V2000
    4.8596    2.8001   18.8069 C   0  0  0  0  0  0  0  0  0  0  0  0
    5.1357    3.5499   17.6291 C   0  0  0  0  0  0  0  0  0  0  0  0
    4.5628    3.2221   16.4398 C   0  0  0  0  0  0  0  0  0  0  0  0
    3.6939    2.1784   16.2495 C   0  0  0  0  0  0  0  0  0  0  0  0
    3.4268    1.4375   17.4197 C   0  0  0  0  0  0  0  0  0  0  0  0
    2.5988    0.3454   17.2897 C   0  0  0  0  0  0  0  0  0  0  0  0
    2.3478   -0.4500   18.4320 C   0  0  0  0  0  0  0  0  0  0  0  0
    2.8997   -0.1627   19.6444 C   0  0  0  0  0  0  0  0  0  0  0  0
    3.7256    0.9530   19.7162 C   0  0  0  0  0  0  0  0  0  0  0  0
    3.9975    1.7547   18.6359 C   0  0  0  0  0  0  0  0  0  0  0  0
    3.1466    1.8550   15.0166 N   0  0  0  0  0  0  0  0  0  0  0  0
    2.3344    2.6598   14.1880 C   0  0  0  0  0  0  0  0  0  0  0  0
    1.9907    3.7930   14.4896 O   0  0  0  0  0  0  0  0  0  0  0  0
    1.8757    2.1599   12.9183 N   0  0  0  0  0  0  0  0  0  0  0  0
    3.3377    0.8838   14.5954 H   0  0  0  0  0  0  0  0  0  0  0  0
    2.1776    1.1688   12.6557 H   0  0  0  0  0  0  0  0  0  0  0  0
    1.0508    2.9081   12.0509 C   0  0  0  0  0  0  0  0  0  0  0  0
    0.5037    4.1491   12.2438 C   0  0  0  0  0  0  0  0  0  0  0  0
   -0.1784    4.4676   11.0595 C   0  0  0  0  0  0  0  0  0  0  0  0
   -0.0027    3.4275   10.2570 N   0  0  0  0  0  0  0  0  0  0  0  0
    0.7214    2.4647   10.7901 N   0  0  0  0  0  0  0  0  0  0  0  0
    1.1240    1.2287   10.2092 C   0  0  0  0  0  0  0  0  0  0  0  0
    2.3966    1.0438    9.6886 C   0  0  0  0  0  0  0  0  0  0  0  0
    2.8048   -0.1441    9.1099 C   0  0  0  0  0  0  0  0  0  0  0  0
    1.9362   -1.2166    9.0257 C   0  0  0  0  0  0  0  0  0  0  0  0
    2.4154   -2.4825    8.3834 C   0  0  0  0  0  0  0  0  0  0  0  0
    0.6762   -1.0456    9.5370 C   0  0  0  0  0  0  0  0  0  0  0  0
    0.2753    0.1554   10.1188 C   0  0  0  0  0  0  0  0  0  0  0  0
   -0.9276    5.7584   10.8236 C   0  0  0  0  0  0  0  0  0  0  0  0
   -2.2827    5.5306   11.4889 C   0  0  0  0  0  0  0  0  0  0  0  0
   -0.2507    6.8772   11.5290 C   0  0  0  0  0  0  0  0  0  0  0  0
   -1.1052    5.9662    9.3473 C   0  0  0  0  0  0  0  0  0  0  0  0
    5.4865    3.2052   19.9450 O   0  0  0  0  0  0  0  0  0  0  0  0
    5.5903    5.8637   22.4562 C   0  0  0  0  0  0  0  0  0  0  0  0
    4.5708    5.4960   23.2754 N   0  0  0  0  0  0  0  0  0  0  0  0
    3.8999    4.3776   22.9587 C   0  0  0  0  0  0  0  0  0  0  0  0
    4.2109    3.6339   21.8741 C   0  0  0  0  0  0  0  0  0  0  0  0
    5.2771    3.9972   20.9929 C   0  0  0  0  0  0  0  0  0  0  0  0
    5.8962    5.1301   21.3878 N   0  0  0  0  0  0  0  0  0  0  0  0
    6.2558    7.0839   22.7529 N   0  0  0  0  0  0  0  0  0  0  0  0
    6.9092    7.1100   23.5754 H   0  0  0  0  0  0  0  0  0  0  0  0
    6.8354   10.5555   21.6788 C   0  0  0  0  0  0  0  0  0  0  0  0
    6.9095    9.3494   22.3078 C   0  0  0  0  0  0  0  0  0  0  0  0
    6.0664    8.2609   21.9823 C   0  0  0  0  0  0  0  0  0  0  0  0
    5.1569    8.4639   20.9935 C   0  0  0  0  0  0  0  0  0  0  0  0
    5.0673    9.6958   20.3348 C   0  0  0  0  0  0  0  0  0  0  0  0
    5.9232   10.7400   20.6965 C   0  0  0  0  0  0  0  0  0  0  0  0
    4.1368    9.9520   19.2680 C   0  0  0  0  0  0  0  0  0  0  0  0
    3.1070    9.2084   19.2068 O   0  0  0  0  0  0  0  0  0  0  0  0
    4.3512   10.9853   18.3306 N   0  0  0  0  0  0  0  0  0  0  0  0
    5.2311   11.5647   18.4346 H   0  0  0  0  0  0  0  0  0  0  0  0
    3.4055   11.2355   17.2682 C   0  0  0  0  0  0  0  0  0  0  0  0
    2.3416   12.2103   17.6602 C   0  0  0  0  0  0  0  0  0  0  0  0
    1.2121   11.5372   18.1010 O   0  0  0  0  0  0  0  0  0  0  0  0
    1.1251   10.6743   17.6431 H   0  0  0  0  0  0  0  0  0  0  0  0
    7.1577   12.8837   22.2909 C   0  0  0  0  0  0  0  0  0  0  0  0
    7.6876   11.5758   22.0518 O   0  0  0  0  0  0  0  0  0  0  0  0
 56 57  1  0  0  0
 57 42  1  0  0  0
 42 43  2  0  0  0
 43 44  1  0  0  0
 44 40  1  0  0  0
 40 34  1  0  0  0
 34 35  2  0  0  0
 35 36  1  0  0  0
 36 37  2  0  0  0
 37 38  1  0  0  0
 38 33  1  0  0  0
 33  1  1  0  0  0
  1  2  2  0  0  0
  2  3  1  0  0  0
  3  4  2  0  0  0
  4 11  1  0  0  0
 11 12  1  0  0  0
 12 13  2  0  0  0
 12 14  1  0  0  0
 14 17  1  0  0  0
 17 18  2  0  0  0
 18 19  1  0  0  0
 19 20  2  0  0  0
 20 21  1  0  0  0
 21 22  1  0  0  0
 22 23  2  0  0  0
 23 24  1  0  0  0
 24 25  2  0  0  0
 25 26  1  0  0  0
 25 27  1  0  0  0
 27 28  2  0  0  0
 19 29  1  0  0  0
 29 30  1  0  0  0
 29 31  1  0  0  0
 29 32  1  0  0  0
  4  5  1  0  0  0
  5  6  2  0  0  0
  6  7  1  0  0  0
  7  8  2  0  0  0
  8  9  1  0  0  0
  9 10  2  0  0  0
 38 39  2  0  0  0
 44 45  2  0  0  0
 45 46  1  0  0  0
 46 47  2  0  0  0
 46 48  1  0  0  0
 48 49  2  0  0  0
 48 50  1  0  0  0
 50 52  1  0  0  0
 52 53  1  0  0  0
 53 54  1  0  0  0
 47 42  1  0  0  0
 39 34  1  0  0  0
 10  1  1  0  0  0
 21 17  1  0  0  0
 28 22  1  0  0  0
 10  5  1  0  0  0
 40 41  1  0  0  0
 11 15  1  0  0  0
 14 16  1  0  0  0
 50 51  1  0  0  0
 54 55  1  0  0  0
M  END
> <minimizedAffinity>
-10.87063

> <CNNscore>
0.1443122178

> <CNNaffinity>
7.2422127724

> <CNN_VS>
1.0451397896

> <CNNaffinity_variance>
0.1554370373

$$$$
[H]OC([H])([H])C([H])([H])N([H])C(=O)c1c([H])c(OC([H])([H])[H])c([H])c(N([H])c2nc([H])c([H])c(Oc3c([H])c([H])c(N([H])C(=O)N([H])c4c([H])c(C(C([H])([H])[H])(C([H])([H])[H])C([H])([H])[H])nn4-c4c([H])c([H])c(C([H])([H])[H])c([H])c4[H])c4c([H])c([H])c([H])c([H])c34)n2)c1[H]


 57 62  0  0  0  0  0  0  0  0999 V2000
    3.8244    1.2376   19.1715 C   0  0  0  0  0  0  0  0  0  0  0  0
    3.0289    0.2911   18.4666 C   0  0  0  0  0  0  0  0  0  0  0  0
    2.8465    0.3921   17.1225 C   0  0  0  0  0  0  0  0  0  0  0  0
    3.3839    1.3740   16.3302 C   0  0  0  0  0  0  0  0  0  0  0  0
    4.1685    2.3105   17.0350 C   0  0  0  0  0  0  0  0  0  0  0  0
    4.6995    3.3513   16.3069 C   0  0  0  0  0  0  0  0  0  0  0  0
    5.4509    4.3366   16.9889 C   0  0  0  0  0  0  0  0  0  0  0  0
    5.6597    4.2793   18.3343 C   0  0  0  0  0  0  0  0  0  0  0  0
    5.1015    3.2048   19.0169 C   0  0  0  0  0  0  0  0  0  0  0  0
    4.3662    2.2247   18.3985 C   0  0  0  0  0  0  0  0  0  0  0  0
    3.1571    1.4631   14.9646 N   0  0  0  0  0  0  0  0  0  0  0  0
    2.4673    2.4753   14.2622 C   0  0  0  0  0  0  0  0  0  0  0  0
    1.9497    3.4352   14.8136 O   0  0  0  0  0  0  0  0  0  0  0  0
    2.3531    2.4126   12.8285 N   0  0  0  0  0  0  0  0  0  0  0  0
    3.5361    0.6917   14.3176 H   0  0  0  0  0  0  0  0  0  0  0  0
    2.8067    1.5728   12.3475 H   0  0  0  0  0  0  0  0  0  0  0  0
    1.6653    3.3840   12.0695 C   0  0  0  0  0  0  0  0  0  0  0  0
    0.4409    3.9506   12.3067 C   0  0  0  0  0  0  0  0  0  0  0  0
    0.2432    4.9007   11.2931 C   0  0  0  0  0  0  0  0  0  0  0  0
    1.3291    4.8436   10.5352 N   0  0  0  0  0  0  0  0  0  0  0  0
    2.2145    3.9588   10.9457 N   0  0  0  0  0  0  0  0  0  0  0  0
    3.4898    3.6534   10.3914 C   0  0  0  0  0  0  0  0  0  0  0  0
    3.6651    2.6212    9.4810 C   0  0  0  0  0  0  0  0  0  0  0  0
    4.8963    2.3003    8.9391 C   0  0  0  0  0  0  0  0  0  0  0  0
    6.0257    3.0137    9.2960 C   0  0  0  0  0  0  0  0  0  0  0  0
    7.3416    2.6279    8.6923 C   0  0  0  0  0  0  0  0  0  0  0  0
    5.8647    4.0359   10.1944 C   0  0  0  0  0  0  0  0  0  0  0  0
    4.6193    4.3515   10.7340 C   0  0  0  0  0  0  0  0  0  0  0  0
   -0.9815    5.7769   11.1678 C   0  0  0  0  0  0  0  0  0  0  0  0
   -2.1272    4.8877   11.6447 C   0  0  0  0  0  0  0  0  0  0  0  0
   -0.8788    6.9326   12.0959 C   0  0  0  0  0  0  0  0  0  0  0  0
   -1.1807    6.1479    9.7267 C   0  0  0  0  0  0  0  0  0  0  0  0
    3.9408    1.0520   20.5147 O   0  0  0  0  0  0  0  0  0  0  0  0
    4.4581    3.6976   22.9880 C   0  0  0  0  0  0  0  0  0  0  0  0
    4.3845    2.9952   24.1485 N   0  0  0  0  0  0  0  0  0  0  0  0
    4.1725    1.6733   24.0550 C   0  0  0  0  0  0  0  0  0  0  0  0
    4.0360    1.0481   22.8648 C   0  0  0  0  0  0  0  0  0  0  0  0
    4.1069    1.7615   21.6274 C   0  0  0  0  0  0  0  0  0  0  0  0
    4.3238    3.0807   21.8156 N   0  0  0  0  0  0  0  0  0  0  0  0
    4.6139    5.1067   23.0889 N   0  0  0  0  0  0  0  0  0  0  0  0
    4.0406    5.6234   23.8021 H   0  0  0  0  0  0  0  0  0  0  0  0
    5.6282    7.4784   20.4645 C   0  0  0  0  0  0  0  0  0  0  0  0
    4.9084    6.7269   21.3437 C   0  0  0  0  0  0  0  0  0  0  0  0
    5.5094    5.8344   22.2623 C   0  0  0  0  0  0  0  0  0  0  0  0
    6.8653    5.7510   22.2386 C   0  0  0  0  0  0  0  0  0  0  0  0
    7.6217    6.5167   21.3436 C   0  0  0  0  0  0  0  0  0  0  0  0
    6.9779    7.3823   20.4546 C   0  0  0  0  0  0  0  0  0  0  0  0
    9.0590    6.4796   21.2955 C   0  0  0  0  0  0  0  0  0  0  0  0
    9.6245    7.1373   20.3655 O   0  0  0  0  0  0  0  0  0  0  0  0
    9.8128    5.7499   22.2398 N   0  0  0  0  0  0  0  0  0  0  0  0
    9.2805    5.2197   22.9856 H   0  0  0  0  0  0  0  0  0  0  0  0
   11.2557    5.7263   22.1834 C   0  0  0  0  0  0  0  0  0  0  0  0
   11.8903    6.4084   23.3531 C   0  0  0  0  0  0  0  0  0  0  0  0
   12.6150    7.5124   22.9302 O   0  0  0  0  0  0  0  0  0  0  0  0
   12.9723    7.3650   22.0289 H   0  0  0  0  0  0  0  0  0  0  0  0
    3.9746    7.7980   18.7144 C   0  0  0  0  0  0  0  0  0  0  0  0
    4.9742    8.3259   19.5924 O   0  0  0  0  0  0  0  0  0  0  0  0
 56 57  1  0  0  0
 57 42  1  0  0  0
 42 43  2  0  0  0
 43 44  1  0  0  0
 44 40  1  0  0  0
 40 34  1  0  0  0
 34 35  2  0  0  0
 35 36  1  0  0  0
 36 37  2  0  0  0
 37 38  1  0  0  0
 38 33  1  0  0  0
 33  1  1  0  0  0
  1  2  2  0  0  0
  2  3  1  0  0  0
  3  4  2  0  0  0
  4 11  1  0  0  0
 11 12  1  0  0  0
 12 13  2  0  0  0
 12 14  1  0  0  0
 14 17  1  0  0  0
 17 18  2  0  0  0
 18 19  1  0  0  0
 19 20  2  0  0  0
 20 21  1  0  0  0
 21 22  1  0  0  0
 22 23  2  0  0  0
 23 24  1  0  0  0
 24 25  2  0  0  0
 25 26  1  0  0  0
 25 27  1  0  0  0
 27 28  2  0  0  0
 19 29  1  0  0  0
 29 30  1  0  0  0
 29 31  1  0  0  0
 29 32  1  0  0  0
  4  5  1  0  0  0
  5  6  2  0  0  0
  6  7  1  0  0  0
  7  8  2  0  0  0
  8  9  1  0  0  0
  9 10  2  0  0  0
 38 39  2  0  0  0
 44 45  2  0  0  0
 45 46  1  0  0  0
 46 47  2  0  0  0
 46 48  1  0  0  0
 48 49  2  0  0  0
 48 50  1  0  0  0
 50 52  1  0  0  0
 52 53  1  0  0  0
 53 54  1  0  0  0
 47 42  1  0  0  0
 39 34  1  0  0  0
 10  1  1  0  0  0
 21 17  1  0  0  0
 28 22  1  0  0  0
 10  5  1  0  0  0
 40 41  1  0  0  0
 11 15  1  0  0  0
 14 16  1  0  0  0
 50 51  1  0  0  0
 54 55  1  0  0  0
M  END
> <minimizedAffinity>
-10.50018

> <CNNscore>
0.1238109544

> <CNNaffinity>
7.5503745079

> <CNN_VS>
0.9348191023

> <CNNaffinity_variance>
0.2053534538

$$$$
[H]OC([H])([H])C([H])([H])N([H])C(=O)c1c([H])c(OC([H])([H])[H])c([H])c(N([H])c2nc([H])c([H])c(Oc3c([H])c([H])c(N([H])C(=O)N([H])c4c([H])c(C(C([H])([H])[H])(C([H])([H])[H])C([H])([H])[H])nn4-c4c([H])c([H])c(C([H])([H])[H])c([H])c4[H])c4c([H])c([H])c([H])c([H])c34)n2)c1[H]


 57 62  0  0  0  0  0  0  0  0999 V2000
    3.7207    2.0369   17.0562 C   0  0  0  0  0  0  0  0  0  0  0  0
    2.9342    1.2251   16.1913 C   0  0  0  0  0  0  0  0  0  0  0  0
    2.4056    1.7309   15.0446 C   0  0  0  0  0  0  0  0  0  0  0  0
    2.5632    3.0226   14.6119 C   0  0  0  0  0  0  0  0  0  0  0  0
    3.3410    3.8227   15.4748 C   0  0  0  0  0  0  0  0  0  0  0  0
    3.4993    5.1446   15.1242 C   0  0  0  0  0  0  0  0  0  0  0  0
    4.2318    5.9888   15.9910 C   0  0  0  0  0  0  0  0  0  0  0  0
    4.7789    5.5286   17.1511 C   0  0  0  0  0  0  0  0  0  0  0  0
    4.5885    4.1850   17.4522 C   0  0  0  0  0  0  0  0  0  0  0  0
    3.8866    3.3279   16.6423 C   0  0  0  0  0  0  0  0  0  0  0  0
    1.9888    3.5143   13.4489 N   0  0  0  0  0  0  0  0  0  0  0  0
    2.5981    3.6971   12.1884 C   0  0  0  0  0  0  0  0  0  0  0  0
    3.7734    3.4411   11.9727 O   0  0  0  0  0  0  0  0  0  0  0  0
    1.8304    4.1999   11.0792 N   0  0  0  0  0  0  0  0  0  0  0  0
    0.9526    3.8032   13.4562 H   0  0  0  0  0  0  0  0  0  0  0  0
    0.8026    4.4228   11.2692 H   0  0  0  0  0  0  0  0  0  0  0  0
    2.3832    4.4182    9.7987 C   0  0  0  0  0  0  0  0  0  0  0  0
    3.0082    5.5358    9.3121 C   0  0  0  0  0  0  0  0  0  0  0  0
    3.4266    5.2183    8.0108 C   0  0  0  0  0  0  0  0  0  0  0  0
    3.0361    3.9683    7.8065 N   0  0  0  0  0  0  0  0  0  0  0  0
    2.4084    3.4356    8.8350 N   0  0  0  0  0  0  0  0  0  0  0  0
    1.8807    2.1203    8.9711 C   0  0  0  0  0  0  0  0  0  0  0  0
    0.5237    1.8588    8.8479 C   0  0  0  0  0  0  0  0  0  0  0  0
   -0.0114    0.5912    8.9875 C   0  0  0  0  0  0  0  0  0  0  0  0
    0.8078   -0.4879    9.2641 C   0  0  0  0  0  0  0  0  0  0  0  0
    0.1867   -1.8428    9.4163 C   0  0  0  0  0  0  0  0  0  0  0  0
    2.1502   -0.2416    9.3877 C   0  0  0  0  0  0  0  0  0  0  0  0
    2.6792    1.0395    9.2443 C   0  0  0  0  0  0  0  0  0  0  0  0
    4.1735    6.1622    7.0973 C   0  0  0  0  0  0  0  0  0  0  0  0
    3.1602    6.5086    6.0092 C   0  0  0  0  0  0  0  0  0  0  0  0
    4.5140    7.4125    7.8241 C   0  0  0  0  0  0  0  0  0  0  0  0
    5.3498    5.4464    6.4990 C   0  0  0  0  0  0  0  0  0  0  0  0
    4.1995    1.4386   18.1809 O   0  0  0  0  0  0  0  0  0  0  0  0
    4.0035    2.3880   21.7086 C   0  0  0  0  0  0  0  0  0  0  0  0
    3.5304    1.2432   22.2665 N   0  0  0  0  0  0  0  0  0  0  0  0
    3.3044    0.2063   21.4450 C   0  0  0  0  0  0  0  0  0  0  0  0
    3.5323    0.2781   20.1149 C   0  0  0  0  0  0  0  0  0  0  0  0
    4.0280    1.4701   19.4995 C   0  0  0  0  0  0  0  0  0  0  0  0
    4.2281    2.4578   20.3980 N   0  0  0  0  0  0  0  0  0  0  0  0
    4.1776    3.5068   22.5675 N   0  0  0  0  0  0  0  0  0  0  0  0
    3.6909    3.5029   23.4988 H   0  0  0  0  0  0  0  0  0  0  0  0
    5.0095    6.6816   20.9032 C   0  0  0  0  0  0  0  0  0  0  0  0
    4.3660    5.5698   21.3566 C   0  0  0  0  0  0  0  0  0  0  0  0
    4.9788    4.6228   22.2105 C   0  0  0  0  0  0  0  0  0  0  0  0
    6.2650    4.8670   22.5743 C   0  0  0  0  0  0  0  0  0  0  0  0
    6.9417    6.0050   22.1198 C   0  0  0  0  0  0  0  0  0  0  0  0
    6.2905    6.9086   21.2754 C   0  0  0  0  0  0  0  0  0  0  0  0
    8.2949    6.3180   22.4944 C   0  0  0  0  0  0  0  0  0  0  0  0
    9.2074    6.0420   21.6528 O   0  0  0  0  0  0  0  0  0  0  0  0
    8.6007    6.9097   23.7389 N   0  0  0  0  0  0  0  0  0  0  0  0
    7.7953    7.1092   24.3963 H   0  0  0  0  0  0  0  0  0  0  0  0
    9.9633    7.2243   24.0996 C   0  0  0  0  0  0  0  0  0  0  0  0
   10.5107    6.3051   25.1443 C   0  0  0  0  0  0  0  0  0  0  0  0
    9.4844    5.5824   25.7338 O   0  0  0  0  0  0  0  0  0  0  0  0
    8.6548    6.1054   25.7403 H   0  0  0  0  0  0  0  0  0  0  0  0
    4.5779    8.9678   20.2059 C   0  0  0  0  0  0  0  0  0  0  0  0
    4.3504    7.5614   20.0677 O   0  0  0  0  0  0  0  0  0  0  0  0
 56 57  1  0  0  0
 57 42  1  0  0  0
 42 43  2  0  0  0
 43 44  1  0  0  0
 44 40  1  0  0  0
 40 34  1  0  0  0
 34 35  2  0  0  0
 35 36  1  0  0  0
 36 37  2  0  0  0
 37 38  1  0  0  0
 38 33  1  0  0  0
 33  1  1  0  0  0
  1  2  2  0  0  0
  2  3  1  0  0  0
  3  4  2  0  0  0
  4 11  1  0  0  0
 11 12  1  0  0  0
 12 13  2  0  0  0
 12 14  1  0  0  0
 14 17  1  0  0  0
 17 18  2  0  0  0
 18 19  1  0  0  0
 19 20  2  0  0  0
 20 21  1  0  0  0
 21 22  1  0  0  0
 22 23  2  0  0  0
 23 24  1  0  0  0
 24 25  2  0  0  0
 25 26  1  0  0  0
 25 27  1  0  0  0
 27 28  2  0  0  0
 19 29  1  0  0  0
 29 30  1  0  0  0
 29 31  1  0  0  0
 29 32  1  0  0  0
  4  5  1  0  0  0
  5  6  2  0  0  0
  6  7  1  0  0  0
  7  8  2  0  0  0
  8  9  1  0  0  0
  9 10  2  0  0  0
 38 39  2  0  0  0
 44 45  2  0  0  0
 45 46  1  0  0  0
 46 47  2  0  0  0
 46 48  1  0  0  0
 48 49  2  0  0  0
 48 50  1  0  0  0
 50 52  1  0  0  0
 52 53  1  0  0  0
 53 54  1  0  0  0
 47 42  1  0  0  0
 39 34  1  0  0  0
 10  1  1  0  0  0
 21 17  1  0  0  0
 28 22  1  0  0  0
 10  5  1  0  0  0
 40 41  1  0  0  0
 11 15  1  0  0  0
 14 16  1  0  0  0
 50 51  1  0  0  0
 54 55  1  0  0  0
M  END
> <minimizedAffinity>
-9.07151

> <CNNscore>
0.0988634378

> <CNNaffinity>
7.2362756729

> <CNN_VS>
0.7154030800

> <CNNaffinity_variance>
0.2278406620

$$$$
[H]OC([H])([H])C([H])([H])N([H])C(=O)c1c([H])c(OC([H])([H])[H])c([H])c(N([H])c2nc([H])c([H])c(Oc3c([H])c([H])c(N([H])C(=O)N([H])c4c([H])c(C(C([H])([H])[H])(C([H])([H])[H])C([H])([H])[H])nn4-c4c([H])c([H])c(C([H])([H])[H])c([H])c4[H])c4c([H])c([H])c([H])c([H])c34)n2)c1[H]


 57 62  0  0  0  0  0  0  0  0999 V2000
    4.0118    2.0209   17.2813 C   0  0  0  0  0  0  0  0  0  0  0  0
    3.3725    1.2150   16.2976 C   0  0  0  0  0  0  0  0  0  0  0  0
    2.9960    1.7385   15.1000 C   0  0  0  0  0  0  0  0  0  0  0  0
    3.1808    3.0437   14.7221 C   0  0  0  0  0  0  0  0  0  0  0  0
    3.8120    3.8378   15.7023 C   0  0  0  0  0  0  0  0  0  0  0  0
    3.9854    5.1711   15.4065 C   0  0  0  0  0  0  0  0  0  0  0  0
    4.5702    6.0082   16.3853 C   0  0  0  0  0  0  0  0  0  0  0  0
    4.9621    5.5303   17.5998 C   0  0  0  0  0  0  0  0  0  0  0  0
    4.7643    4.1759   17.8417 C   0  0  0  0  0  0  0  0  0  0  0  0
    4.2022    3.3250   16.9232 C   0  0  0  0  0  0  0  0  0  0  0  0
    2.7615    3.5525   13.5017 N   0  0  0  0  0  0  0  0  0  0  0  0
    1.4764    3.4732   12.9221 C   0  0  0  0  0  0  0  0  0  0  0  0
    0.5384    2.9005   13.4564 O   0  0  0  0  0  0  0  0  0  0  0  0
    1.2181    4.0890   11.6467 N   0  0  0  0  0  0  0  0  0  0  0  0
    3.4644    4.0839   12.8846 H   0  0  0  0  0  0  0  0  0  0  0  0
    2.0392    4.5899   11.1809 H   0  0  0  0  0  0  0  0  0  0  0  0
   -0.0395    4.0337   11.0078 C   0  0  0  0  0  0  0  0  0  0  0  0
   -1.1245    4.8532   11.1745 C   0  0  0  0  0  0  0  0  0  0  0  0
   -2.0955    4.4119   10.2626 C   0  0  0  0  0  0  0  0  0  0  0  0
   -1.5471    3.3860    9.6275 N   0  0  0  0  0  0  0  0  0  0  0  0
   -0.3221    3.1107   10.0264 N   0  0  0  0  0  0  0  0  0  0  0  0
    0.5632    2.1027    9.5498 C   0  0  0  0  0  0  0  0  0  0  0  0
    0.5468    0.8123   10.0591 C   0  0  0  0  0  0  0  0  0  0  0  0
    1.4051   -0.1787    9.6189 C   0  0  0  0  0  0  0  0  0  0  0  0
    2.3354    0.0888    8.6316 C   0  0  0  0  0  0  0  0  0  0  0  0
    3.2524   -1.0106    8.1895 C   0  0  0  0  0  0  0  0  0  0  0  0
    2.3608    1.3602    8.1207 C   0  0  0  0  0  0  0  0  0  0  0  0
    1.4908    2.3513    8.5709 C   0  0  0  0  0  0  0  0  0  0  0  0
   -3.4599    5.0393   10.0942 C   0  0  0  0  0  0  0  0  0  0  0  0
   -3.2803    6.0183    8.9366 C   0  0  0  0  0  0  0  0  0  0  0  0
   -4.4467    4.0097    9.6775 C   0  0  0  0  0  0  0  0  0  0  0  0
   -3.8224    5.7820   11.3477 C   0  0  0  0  0  0  0  0  0  0  0  0
    4.3443    1.4045   18.4482 O   0  0  0  0  0  0  0  0  0  0  0  0
    4.0471    2.5229   21.9188 C   0  0  0  0  0  0  0  0  0  0  0  0
    3.4621    1.4420   22.4976 N   0  0  0  0  0  0  0  0  0  0  0  0
    3.1991    0.3887   21.7086 C   0  0  0  0  0  0  0  0  0  0  0  0
    3.4970    0.3839   20.3905 C   0  0  0  0  0  0  0  0  0  0  0  0
    4.1110    1.5076   19.7536 C   0  0  0  0  0  0  0  0  0  0  0  0
    4.3406    2.5172   20.6199 N   0  0  0  0  0  0  0  0  0  0  0  0
    4.2627    3.6633   22.7390 N   0  0  0  0  0  0  0  0  0  0  0  0
    3.8877    3.6515   23.7205 H   0  0  0  0  0  0  0  0  0  0  0  0
    7.1806    5.7819   22.0048 C   0  0  0  0  0  0  0  0  0  0  0  0
    6.3701    4.7532   22.3798 C   0  0  0  0  0  0  0  0  0  0  0  0
    4.9601    4.8108   22.2787 C   0  0  0  0  0  0  0  0  0  0  0  0
    4.4273    5.9570   21.7802 C   0  0  0  0  0  0  0  0  0  0  0  0
    5.2444    7.0238   21.3880 C   0  0  0  0  0  0  0  0  0  0  0  0
    6.6327    6.9162   21.5107 C   0  0  0  0  0  0  0  0  0  0  0  0
    4.7293    8.2477   20.8347 C   0  0  0  0  0  0  0  0  0  0  0  0
    5.0022    9.3237   21.4550 O   0  0  0  0  0  0  0  0  0  0  0  0
    3.9579    8.2589   19.6526 N   0  0  0  0  0  0  0  0  0  0  0  0
    3.7623    7.3281   19.1878 H   0  0  0  0  0  0  0  0  0  0  0  0
    3.4521    9.4957   19.1047 C   0  0  0  0  0  0  0  0  0  0  0  0
    3.8372    9.6930   17.6734 C   0  0  0  0  0  0  0  0  0  0  0  0
    2.7417   10.1143   16.9348 O   0  0  0  0  0  0  0  0  0  0  0  0
    1.9127    9.7485   17.3096 H   0  0  0  0  0  0  0  0  0  0  0  0
    9.2201    6.3436   23.1982 C   0  0  0  0  0  0  0  0  0  0  0  0
    8.5495    5.6579   22.1357 O   0  0  0  0  0  0  0  0  0  0  0  0
 56 57  1  0  0  0
 57 42  1  0  0  0
 42 43  2  0  0  0
 43 44  1  0  0  0
 44 40  1  0  0  0
 40 34  1  0  0  0
 34 35  2  0  0  0
 35 36  1  0  0  0
 36 37  2  0  0  0
 37 38  1  0  0  0
 38 33  1  0  0  0
 33  1  1  0  0  0
  1  2  2  0  0  0
  2  3  1  0  0  0
  3  4  2  0  0  0
  4 11  1  0  0  0
 11 12  1  0  0  0
 12 13  2  0  0  0
 12 14  1  0  0  0
 14 17  1  0  0  0
 17 18  2  0  0  0
 18 19  1  0  0  0
 19 20  2  0  0  0
 20 21  1  0  0  0
 21 22  1  0  0  0
 22 23  2  0  0  0
 23 24  1  0  0  0
 24 25  2  0  0  0
 25 26  1  0  0  0
 25 27  1  0  0  0
 27 28  2  0  0  0
 19 29  1  0  0  0
 29 30  1  0  0  0
 29 31  1  0  0  0
 29 32  1  0  0  0
  4  5  1  0  0  0
  5  6  2  0  0  0
  6  7  1  0  0  0
  7  8  2  0  0  0
  8  9  1  0  0  0
  9 10  2  0  0  0
 38 39  2  0  0  0
 44 45  2  0  0  0
 45 46  1  0  0  0
 46 47  2  0  0  0
 46 48  1  0  0  0
 48 49  2  0  0  0
 48 50  1  0  0  0
 50 52  1  0  0  0
 52 53  1  0  0  0
 53 54  1  0  0  0
 47 42  1  0  0  0
 39 34  1  0  0  0
 10  1  1  0  0  0
 21 17  1  0  0  0
 28 22  1  0  0  0
 10  5  1  0  0  0
 40 41  1  0  0  0
 11 15  1  0  0  0
 14 16  1  0  0  0
 50 51  1  0  0  0
 54 55  1  0  0  0
M  END
> <minimizedAffinity>
-10.39416

> <CNNscore>
0.0968838632

> <CNNaffinity>
7.4772338867

> <CNN_VS>
0.7244232893

> <CNNaffinity_variance>
0.2862541378

$$$$
[H]OC([H])([H])C([H])([H])N([H])C(=O)c1c([H])c(OC([H])([H])[H])c([H])c(N([H])c2nc([H])c([H])c(Oc3c([H])c([H])c(N([H])C(=O)N([H])c4c([H])c(C(C([H])([H])[H])(C([H])([H])[H])C([H])([H])[H])nn4-c4c([H])c([H])c(C([H])([H])[H])c([H])c4[H])c4c([H])c([H])c([H])c([H])c34)n2)c1[H]


 57 62  0  0  0  0  0  0  0  0999 V2000
    4.1252    1.8110   17.7217 C   0  0  0  0  0  0  0  0  0  0  0  0
    3.3502    0.6806   17.3380 C   0  0  0  0  0  0  0  0  0  0  0  0
    2.5231    0.7318   16.2594 C   0  0  0  0  0  0  0  0  0  0  0  0
    2.3497    1.8296   15.4561 C   0  0  0  0  0  0  0  0  0  0  0  0
    3.1181    2.9473   15.8434 C   0  0  0  0  0  0  0  0  0  0  0  0
    2.9557    4.0996   15.1076 C   0  0  0  0  0  0  0  0  0  0  0  0
    3.6731    5.2547   15.4971 C   0  0  0  0  0  0  0  0  0  0  0  0
    4.5121    5.2528   16.5708 C   0  0  0  0  0  0  0  0  0  0  0  0
    4.6379    4.0608   17.2745 C   0  0  0  0  0  0  0  0  0  0  0  0
    3.9636    2.9150   16.9341 C   0  0  0  0  0  0  0  0  0  0  0  0
    1.4779    1.8570   14.3774 N   0  0  0  0  0  0  0  0  0  0  0  0
    1.7959    1.8339   13.0019 C   0  0  0  0  0  0  0  0  0  0  0  0
    2.9436    1.8000   12.5835 O   0  0  0  0  0  0  0  0  0  0  0  0
    0.7469    1.8426   12.0160 N   0  0  0  0  0  0  0  0  0  0  0  0
    0.4185    1.8982   14.5591 H   0  0  0  0  0  0  0  0  0  0  0  0
   -0.2563    1.8717   12.3834 H   0  0  0  0  0  0  0  0  0  0  0  0
    0.9983    1.8349   10.6270 C   0  0  0  0  0  0  0  0  0  0  0  0
    0.9828    0.7767    9.7571 C   0  0  0  0  0  0  0  0  0  0  0  0
    1.2358    1.3095    8.4838 C   0  0  0  0  0  0  0  0  0  0  0  0
    1.3835    2.6138    8.6668 N   0  0  0  0  0  0  0  0  0  0  0  0
    1.2534    2.9897    9.9227 N   0  0  0  0  0  0  0  0  0  0  0  0
    1.3246    4.3019   10.4704 C   0  0  0  0  0  0  0  0  0  0  0  0
    2.5240    4.8544   10.8957 C   0  0  0  0  0  0  0  0  0  0  0  0
    2.6142    6.1221   11.4410 C   0  0  0  0  0  0  0  0  0  0  0  0
    1.4827    6.9034   11.5873 C   0  0  0  0  0  0  0  0  0  0  0  0
    1.6229    8.2676   12.1906 C   0  0  0  0  0  0  0  0  0  0  0  0
    0.2921    6.3681   11.1703 C   0  0  0  0  0  0  0  0  0  0  0  0
    0.2124    5.0898   10.6215 C   0  0  0  0  0  0  0  0  0  0  0  0
    1.3004    0.4954    7.2124 C   0  0  0  0  0  0  0  0  0  0  0  0
    0.4260    1.2692    6.2288 C   0  0  0  0  0  0  0  0  0  0  0  0
    2.6890    0.4845    6.6839 C   0  0  0  0  0  0  0  0  0  0  0  0
    0.7162   -0.8646    7.4639 C   0  0  0  0  0  0  0  0  0  0  0  0
    4.9173    1.6598   18.8181 O   0  0  0  0  0  0  0  0  0  0  0  0
    5.6437    3.2840   22.0148 C   0  0  0  0  0  0  0  0  0  0  0  0
    4.8169    2.6053   22.8522 N   0  0  0  0  0  0  0  0  0  0  0  0
    4.0606    1.6345   22.3165 C   0  0  0  0  0  0  0  0  0  0  0  0
    4.1058    1.3294   21.0009 C   0  0  0  0  0  0  0  0  0  0  0  0
    4.9646    2.0279   20.0954 C   0  0  0  0  0  0  0  0  0  0  0  0
    5.6878    2.9826   20.7185 N   0  0  0  0  0  0  0  0  0  0  0  0
    6.3933    4.3568   22.5688 N   0  0  0  0  0  0  0  0  0  0  0  0
    7.1504    4.1323   23.2620 H   0  0  0  0  0  0  0  0  0  0  0  0
    4.9206    7.1603   20.6943 C   0  0  0  0  0  0  0  0  0  0  0  0
    5.2384    5.9211   21.1627 C   0  0  0  0  0  0  0  0  0  0  0  0
    6.1531    5.7121   22.2216 C   0  0  0  0  0  0  0  0  0  0  0  0
    6.7179    6.8188   22.7716 C   0  0  0  0  0  0  0  0  0  0  0  0
    6.4021    8.1001   22.3047 C   0  0  0  0  0  0  0  0  0  0  0  0
    5.4931    8.2513   21.2538 C   0  0  0  0  0  0  0  0  0  0  0  0
    6.9566    9.3019   22.8685 C   0  0  0  0  0  0  0  0  0  0  0  0
    6.2733    9.8894   23.7658 O   0  0  0  0  0  0  0  0  0  0  0  0
    8.2061    9.8080   22.4502 N   0  0  0  0  0  0  0  0  0  0  0  0
    8.7219    9.2740   21.6956 H   0  0  0  0  0  0  0  0  0  0  0  0
    8.7538   11.0124   23.0292 C   0  0  0  0  0  0  0  0  0  0  0  0
    8.2517   12.2532   22.3626 C   0  0  0  0  0  0  0  0  0  0  0  0
    7.0564   12.6574   22.9379 O   0  0  0  0  0  0  0  0  0  0  0  0
    6.5532   11.8825   23.2667 H   0  0  0  0  0  0  0  0  0  0  0  0
    3.8536    8.5633   19.0234 C   0  0  0  0  0  0  0  0  0  0  0  0
    4.0224    7.2894   19.6537 O   0  0  0  0  0  0  0  0  0  0  0  0
 56 57  1  0  0  0
 57 42  1  0  0  0
 42 43  2  0  0  0
 43 44  1  0  0  0
 44 40  1  0  0  0
 40 34  1  0  0  0
 34 35  2  0  0  0
 35 36  1  0  0  0
 36 37  2  0  0  0
 37 38  1  0  0  0
 38 33  1  0  0  0
 33  1  1  0  0  0
  1  2  2  0  0  0
  2  3  1  0  0  0
  3  4  2  0  0  0
  4 11  1  0  0  0
 11 12  1  0  0  0
 12 13  2  0  0  0
 12 14  1  0  0  0
 14 17  1  0  0  0
 17 18  2  0  0  0
 18 19  1  0  0  0
 19 20  2  0  0  0
 20 21  1  0  0  0
 21 22  1  0  0  0
 22 23  2  0  0  0
 23 24  1  0  0  0
 24 25  2  0  0  0
 25 26  1  0  0  0
 25 27  1  0  0  0
 27 28  2  0  0  0
 19 29  1  0  0  0
 29 30  1  0  0  0
 29 31  1  0  0  0
 29 32  1  0  0  0
  4  5  1  0  0  0
  5  6  2  0  0  0
  6  7  1  0  0  0
  7  8  2  0  0  0
  8  9  1  0  0  0
  9 10  2  0  0  0
 38 39  2  0  0  0
 44 45  2  0  0  0
 45 46  1  0  0  0
 46 47  2  0  0  0
 46 48  1  0  0  0
 48 49  2  0  0  0
 48 50  1  0  0  0
 50 52  1  0  0  0
 52 53  1  0  0  0
 53 54  1  0  0  0
 47 42  1  0  0  0
 39 34  1  0  0  0
 10  1  1  0  0  0
 21 17  1  0  0  0
 28 22  1  0  0  0
 10  5  1  0  0  0
 40 41  1  0  0  0
 11 15  1  0  0  0
 14 16  1  0  0  0
 50 51  1  0  0  0
 54 55  1  0  0  0
M  END
> <minimizedAffinity>
-9.62814

> <CNNscore>
0.0922525525

> <CNNaffinity>
7.0907769203

> <CNN_VS>
0.6541422606

> <CNNaffinity_variance>
0.4785393775

$$$$
[H]OC([H])([H])C([H])([H])N([H])C(=O)c1c([H])c(OC([H])([H])[H])c([H])c(N([H])c2nc([H])c([H])c(Oc3c([H])c([H])c(N([H])C(=O)N([H])c4c([H])c(C(C([H])([H])[H])(C([H])([H])[H])C([H])([H])[H])nn4-c4c([H])c([H])c(C([H])([H])[H])c([H])c4[H])c4c([H])c([H])c([H])c([H])c34)n2)c1[H]


 57 62  0  0  0  0  0  0  0  0999 V2000
    4.8616    2.6966   18.8388 C   0  0  0  0  0  0  0  0  0  0  0  0
    5.1634    3.4450   17.6663 C   0  0  0  0  0  0  0  0  0  0  0  0
    4.6011    3.1282   16.4690 C   0  0  0  0  0  0  0  0  0  0  0  0
    3.7197    2.0976   16.2652 C   0  0  0  0  0  0  0  0  0  0  0  0
    3.4271    1.3580   17.4301 C   0  0  0  0  0  0  0  0  0  0  0  0
    2.5851    0.2782   17.2870 C   0  0  0  0  0  0  0  0  0  0  0  0
    2.3082   -0.5160   18.4241 C   0  0  0  0  0  0  0  0  0  0  0  0
    2.8487   -0.2394   19.6441 C   0  0  0  0  0  0  0  0  0  0  0  0
    3.6897    0.8640   19.7290 C   0  0  0  0  0  0  0  0  0  0  0  0
    3.9868    1.6641   18.6543 C   0  0  0  0  0  0  0  0  0  0  0  0
    3.1834    1.7849   15.0247 N   0  0  0  0  0  0  0  0  0  0  0  0
    2.3574    2.5872   14.2075 C   0  0  0  0  0  0  0  0  0  0  0  0
    1.9890    3.7074   14.5279 O   0  0  0  0  0  0  0  0  0  0  0  0
    1.9137    2.1006   12.9273 N   0  0  0  0  0  0  0  0  0  0  0  0
    3.3963    0.8255   14.5870 H   0  0  0  0  0  0  0  0  0  0  0  0
    2.2371    1.1209   12.6483 H   0  0  0  0  0  0  0  0  0  0  0  0
    1.0762    2.8468   12.0703 C   0  0  0  0  0  0  0  0  0  0  0  0
    0.5332    4.0889   12.2675 C   0  0  0  0  0  0  0  0  0  0  0  0
   -0.1666    4.4042   11.0928 C   0  0  0  0  0  0  0  0  0  0  0  0
   -0.0041    3.3614   10.2911 N   0  0  0  0  0  0  0  0  0  0  0  0
    0.7273    2.3997   10.8160 N   0  0  0  0  0  0  0  0  0  0  0  0
    1.1199    1.1615   10.2330 C   0  0  0  0  0  0  0  0  0  0  0  0
    0.2247    0.1155   10.0620 C   0  0  0  0  0  0  0  0  0  0  0  0
    0.5873   -1.0990    9.5088 C   0  0  0  0  0  0  0  0  0  0  0  0
    1.8888   -1.3203    9.0976 C   0  0  0  0  0  0  0  0  0  0  0  0
    2.2419   -2.6531    8.5114 C   0  0  0  0  0  0  0  0  0  0  0  0
    2.7820   -0.2939    9.2614 C   0  0  0  0  0  0  0  0  0  0  0  0
    2.4060    0.9263    9.8194 C   0  0  0  0  0  0  0  0  0  0  0  0
   -0.9183    5.6950   10.8643 C   0  0  0  0  0  0  0  0  0  0  0  0
   -1.2012    5.7016    9.3640 C   0  0  0  0  0  0  0  0  0  0  0  0
   -2.2208    5.6599   11.5782 C   0  0  0  0  0  0  0  0  0  0  0  0
   -0.0362    6.8539   11.2289 C   0  0  0  0  0  0  0  0  0  0  0  0
    5.4797    3.0900   19.9857 O   0  0  0  0  0  0  0  0  0  0  0  0
    5.5857    5.8147   22.4248 C   0  0  0  0  0  0  0  0  0  0  0  0
    4.6024    5.4408   23.2844 N   0  0  0  0  0  0  0  0  0  0  0  0
    3.9537    4.2968   23.0170 C   0  0  0  0  0  0  0  0  0  0  0  0
    4.2521    3.5339   21.9422 C   0  0  0  0  0  0  0  0  0  0  0  0
    5.2804    3.9030   21.0193 C   0  0  0  0  0  0  0  0  0  0  0  0
    5.8793    5.0622   21.3662 N   0  0  0  0  0  0  0  0  0  0  0  0
    6.2256    7.0598   22.6698 N   0  0  0  0  0  0  0  0  0  0  0  0
    6.7996    7.1636   23.5439 H   0  0  0  0  0  0  0  0  0  0  0  0
    4.6921    9.1741   20.0776 C   0  0  0  0  0  0  0  0  0  0  0  0
    4.9375    8.1978   20.9954 C   0  0  0  0  0  0  0  0  0  0  0  0
    6.1136    8.1609   21.7810 C   0  0  0  0  0  0  0  0  0  0  0  0
    7.0135    9.1598   21.5851 C   0  0  0  0  0  0  0  0  0  0  0  0
    6.7777   10.1725   20.6479 C   0  0  0  0  0  0  0  0  0  0  0  0
    5.5997   10.1610   19.8955 C   0  0  0  0  0  0  0  0  0  0  0  0
    7.6890   11.2621   20.4204 C   0  0  0  0  0  0  0  0  0  0  0  0
    7.9611   12.0066   21.4148 O   0  0  0  0  0  0  0  0  0  0  0  0
    8.2619   11.4956   19.1517 N   0  0  0  0  0  0  0  0  0  0  0  0
    7.9897   10.8420   18.3647 H   0  0  0  0  0  0  0  0  0  0  0  0
    9.1803   12.5897   18.9389 C   0  0  0  0  0  0  0  0  0  0  0  0
    9.2444   13.0193   17.5081 C   0  0  0  0  0  0  0  0  0  0  0  0
   10.2843   12.3716   16.8582 O   0  0  0  0  0  0  0  0  0  0  0  0
   11.0162   12.1830   17.4830 H   0  0  0  0  0  0  0  0  0  0  0  0
    3.0912   10.3263   18.6604 C   0  0  0  0  0  0  0  0  0  0  0  0
    3.5240    9.1445   19.3421 O   0  0  0  0  0  0  0  0  0  0  0  0
 56 57  1  0  0  0
 57 42  1  0  0  0
 42 43  2  0  0  0
 43 44  1  0  0  0
 44 40  1  0  0  0
 40 34  1  0  0  0
 34 35  2  0  0  0
 35 36  1  0  0  0
 36 37  2  0  0  0
 37 38  1  0  0  0
 38 33  1  0  0  0
 33  1  1  0  0  0
  1  2  2  0  0  0
  2  3  1  0  0  0
  3  4  2  0  0  0
  4 11  1  0  0  0
 11 12  1  0  0  0
 12 13  2  0  0  0
 12 14  1  0  0  0
 14 17  1  0  0  0
 17 18  2  0  0  0
 18 19  1  0  0  0
 19 20  2  0  0  0
 20 21  1  0  0  0
 21 22  1  0  0  0
 22 23  2  0  0  0
 23 24  1  0  0  0
 24 25  2  0  0  0
 25 26  1  0  0  0
 25 27  1  0  0  0
 27 28  2  0  0  0
 19 29  1  0  0  0
 29 30  1  0  0  0
 29 31  1  0  0  0
 29 32  1  0  0  0
  4  5  1  0  0  0
  5  6  2  0  0  0
  6  7  1  0  0  0
  7  8  2  0  0  0
  8  9  1  0  0  0
  9 10  2  0  0  0
 38 39  2  0  0  0
 44 45  2  0  0  0
 45 46  1  0  0  0
 46 47  2  0  0  0
 46 48  1  0  0  0
 48 49  2  0  0  0
 48 50  1  0  0  0
 50 52  1  0  0  0
 52 53  1  0  0  0
 53 54  1  0  0  0
 47 42  1  0  0  0
 39 34  1  0  0  0
 10  1  1  0  0  0
 21 17  1  0  0  0
 28 22  1  0  0  0
 10  5  1  0  0  0
 40 41  1  0  0  0
 11 15  1  0  0  0
 14 16  1  0  0  0
 50 51  1  0  0  0
 54 55  1  0  0  0
M  END
> <minimizedAffinity>
-10.13095

> <CNNscore>
0.0854983404

> <CNNaffinity>
7.1780638695

> <CNN_VS>
0.6137125492

> <CNNaffinity_variance>
0.2299616635

$$$$
[H]c1nc(N([H])c2c([H])c([H])c(N3C([H])([H])C([H])([H])C([H])(N4C([H])([H])C([H])([H])N(C([H])([H])[H])C([H])([H])C4([H])[H])C([H])([H])C3([H])[H])c([H])c2OC([H])([H])[H])nc(N([H])c2c([H])c([H])c([H])c([H])c2S(=O)(=O)C([H])(C([H])([H])[H])C([H])([H])[H])c1Cl


 44 48  0  0  0  0  0  0  0  0999 V2000
    3.7930    2.5715   15.3586 N   0  0  0  0  0  0  0  0  0  0  0  0
    4.7919    2.8745   15.0728 H   0  0  0  0  0  0  0  0  0  0  0  0
    3.6753    1.9003   16.6044 C   0  0  0  0  0  0  0  0  0  0  0  0
    2.9535    0.8028   16.8444 N   0  0  0  0  0  0  0  0  0  0  0  0
    2.8876    0.2185   18.0472 C   0  0  0  0  0  0  0  0  0  0  0  0
    3.5856    0.7503   19.1061 C   0  0  0  0  0  0  0  0  0  0  0  0
    3.5112   -0.0046   20.6952 Cl  0  0  0  0  0  0  0  0  0  0  0  0
    4.3559    1.9095   18.8792 C   0  0  0  0  0  0  0  0  0  0  0  0
    4.3569    2.4170   17.6449 N   0  0  0  0  0  0  0  0  0  0  0  0
    5.0599    2.4307   19.9756 N   0  0  0  0  0  0  0  0  0  0  0  0
    6.1253    2.3242   19.9094 H   0  0  0  0  0  0  0  0  0  0  0  0
    4.6219    3.0682   21.1462 C   0  0  0  0  0  0  0  0  0  0  0  0
    4.4662    2.3441   22.3093 C   0  0  0  0  0  0  0  0  0  0  0  0
    4.0281    2.9655   23.4858 C   0  0  0  0  0  0  0  0  0  0  0  0
    3.7561    4.3006   23.4675 C   0  0  0  0  0  0  0  0  0  0  0  0
    3.9127    5.0208   22.3049 C   0  0  0  0  0  0  0  0  0  0  0  0
    4.3397    4.4387   21.1401 C   0  0  0  0  0  0  0  0  0  0  0  0
    4.5307    5.3503   19.7005 S   0  0  0  0  0  0  0  0  0  0  0  0
    3.3497    5.1254   18.7900 O   0  0  0  0  0  0  0  0  0  0  0  0
    5.7779    5.0392   18.9212 O   0  0  0  0  0  0  0  0  0  0  0  0
    4.5776    7.1063   20.0046 C   0  0  0  0  0  0  0  0  0  0  0  0
    5.9670    7.5540   20.3237 C   0  0  0  0  0  0  0  0  0  0  0  0
    3.8688    7.9090   18.9653 C   0  0  0  0  0  0  0  0  0  0  0  0
    2.2554    4.2013   14.4917 C   0  0  0  0  0  0  0  0  0  0  0  0
    1.2589    4.6053   13.6222 C   0  0  0  0  0  0  0  0  0  0  0  0
    0.7390    3.7583   12.6690 C   0  0  0  0  0  0  0  0  0  0  0  0
    1.2656    2.4901   12.6302 C   0  0  0  0  0  0  0  0  0  0  0  0
    2.2730    2.0493   13.4942 C   0  0  0  0  0  0  0  0  0  0  0  0
    2.7871    2.8980   14.4421 C   0  0  0  0  0  0  0  0  0  0  0  0
   -0.2864    4.1930   11.7718 N   0  0  0  0  0  0  0  0  0  0  0  0
   -0.1405    3.9031   10.3865 C   0  0  0  0  0  0  0  0  0  0  0  0
   -1.3777    4.0574    9.5474 C   0  0  0  0  0  0  0  0  0  0  0  0
   -2.1836    5.2745    9.8545 C   0  0  0  0  0  0  0  0  0  0  0  0
   -1.8179    5.9073   11.1822 C   0  0  0  0  0  0  0  0  0  0  0  0
   -1.4485    4.9148   12.2318 C   0  0  0  0  0  0  0  0  0  0  0  0
   -3.5851    5.1668    9.7662 N   0  0  0  0  0  0  0  0  0  0  0  0
   -4.1750    3.8989    9.6488 C   0  0  0  0  0  0  0  0  0  0  0  0
   -5.6269    4.0491    9.1857 C   0  0  0  0  0  0  0  0  0  0  0  0
   -6.2288    5.1184    9.9582 N   0  0  0  0  0  0  0  0  0  0  0  0
   -6.4643    4.7916   11.3283 C   0  0  0  0  0  0  0  0  0  0  0  0
   -5.6317    6.3927    9.7203 C   0  0  0  0  0  0  0  0  0  0  0  0
   -4.2761    6.1887    9.0471 C   0  0  0  0  0  0  0  0  0  0  0  0
    3.5808    6.1467   14.9981 C   0  0  0  0  0  0  0  0  0  0  0  0
    2.7334    5.1057   15.4273 O   0  0  0  0  0  0  0  0  0  0  0  0
 43 44  1  0  0  0
 44 24  1  0  0  0
 24 25  2  0  0  0
 25 26  1  0  0  0
 26 27  2  0  0  0
 27 28  1  0  0  0
 28 29  2  0  0  0
 29  1  1  0  0  0
  1  3  1  0  0  0
  3  4  2  0  0  0
  4  5  1  0  0  0
  5  6  2  0  0  0
  6  7  1  0  0  0
  6  8  1  0  0  0
  8 10  1  0  0  0
 10 12  1  0  0  0
 12 13  2  0  0  0
 13 14  1  0  0  0
 14 15  2  0  0  0
 15 16  1  0  0  0
 16 17  2  0  0  0
 17 18  1  0  0  0
 18 19  2  0  0  0
 18 20  2  0  0  0
 18 21  1  0  0  0
 21 22  1  0  0  0
 21 23  1  0  0  0
  8  9  2  0  0  0
 26 30  1  0  0  0
 30 31  1  0  0  0
 31 32  1  0  0  0
 32 33  1  0  0  0
 33 34  1  0  0  0
 34 35  1  0  0  0
 33 36  1  0  0  0
 36 37  1  0  0  0
 37 38  1  0  0  0
 38 39  1  0  0  0
 39 40  1  0  0  0
 39 41  1  0  0  0
 41 42  1  0  0  0
 29 24  1  0  0  0
  9  3  1  0  0  0
 35 30  1  0  0  0
 42 36  1  0  0  0
 17 12  1  0  0  0
  1  2  1  0  0  0
 10 11  1  0  0  0
M  END
> <minimizedAffinity>
-9.28675

> <CNNscore>
0.6179667115

> <CNNaffinity>
7.5144948959

> <CNN_VS>
4.6437077522

> <CNNaffinity_variance>
0.2258378267

$$$$
[H]c1nc(N([H])c2c([H])c([H])c(N3C([H])([H])C([H])([H])C([H])(N4C([H])([H])C([H])([H])N(C([H])([H])[H])C([H])([H])C4([H])[H])C([H])([H])C3([H])[H])c([H])c2OC([H])([H])[H])nc(N([H])c2c([H])c([H])c([H])c([H])c2S(=O)(=O)C([H])(C([H])([H])[H])C([H])([H])[H])c1Cl


 44 48  0  0  0  0  0  0  0  0999 V2000
    4.7049    1.5542   18.4890 N   0  0  0  0  0  0  0  0  0  0  0  0
    5.3155    0.6624   18.4339 H   0  0  0  0  0  0  0  0  0  0  0  0
    4.4884    2.0847   19.7883 C   0  0  0  0  0  0  0  0  0  0  0  0
    3.8438    1.4807   20.7898 N   0  0  0  0  0  0  0  0  0  0  0  0
    3.6762    2.0396   21.9948 C   0  0  0  0  0  0  0  0  0  0  0  0
    4.1805    3.2945   22.2440 C   0  0  0  0  0  0  0  0  0  0  0  0
    3.9700    4.0453   23.8228 Cl  0  0  0  0  0  0  0  0  0  0  0  0
    4.8657    3.9541   21.2028 C   0  0  0  0  0  0  0  0  0  0  0  0
    4.9803    3.3135   20.0377 N   0  0  0  0  0  0  0  0  0  0  0  0
    5.3720    5.2324   21.4836 N   0  0  0  0  0  0  0  0  0  0  0  0
    4.6213    5.9730   21.6807 H   0  0  0  0  0  0  0  0  0  0  0  0
    6.6860    5.7192   21.5542 C   0  0  0  0  0  0  0  0  0  0  0  0
    7.5847    5.1545   22.4343 C   0  0  0  0  0  0  0  0  0  0  0  0
    8.8995    5.6304   22.5180 C   0  0  0  0  0  0  0  0  0  0  0  0
    9.2821    6.6631   21.7156 C   0  0  0  0  0  0  0  0  0  0  0  0
    8.3827    7.2247   20.8378 C   0  0  0  0  0  0  0  0  0  0  0  0
    7.0908    6.7790   20.7351 C   0  0  0  0  0  0  0  0  0  0  0  0
    5.9829    7.4887   19.6356 S   0  0  0  0  0  0  0  0  0  0  0  0
    5.2388    6.4103   18.8890 O   0  0  0  0  0  0  0  0  0  0  0  0
    6.6061    8.4050   18.6200 O   0  0  0  0  0  0  0  0  0  0  0  0
    4.7319    8.4582   20.4561 C   0  0  0  0  0  0  0  0  0  0  0  0
    5.2640    9.0547   21.7186 C   0  0  0  0  0  0  0  0  0  0  0  0
    4.0243    9.4075   19.5478 C   0  0  0  0  0  0  0  0  0  0  0  0
    3.4049    1.1783   16.5038 C   0  0  0  0  0  0  0  0  0  0  0  0
    2.8973    1.5706   15.2788 C   0  0  0  0  0  0  0  0  0  0  0  0
    3.1750    2.8069   14.7395 C   0  0  0  0  0  0  0  0  0  0  0  0
    3.9840    3.6283   15.4863 C   0  0  0  0  0  0  0  0  0  0  0  0
    4.5141    3.2631   16.7278 C   0  0  0  0  0  0  0  0  0  0  0  0
    4.2339    2.0297   17.2601 C   0  0  0  0  0  0  0  0  0  0  0  0
    2.6364    3.2012   13.4746 N   0  0  0  0  0  0  0  0  0  0  0  0
    1.5109    2.4932   12.9684 C   0  0  0  0  0  0  0  0  0  0  0  0
    0.7733    3.1515   11.8364 C   0  0  0  0  0  0  0  0  0  0  0  0
    1.6539    3.7600   10.7974 C   0  0  0  0  0  0  0  0  0  0  0  0
    3.0861    3.9323   11.2621 C   0  0  0  0  0  0  0  0  0  0  0  0
    3.2040    4.2833   12.7065 C   0  0  0  0  0  0  0  0  0  0  0  0
    1.2185    4.9557   10.1937 N   0  0  0  0  0  0  0  0  0  0  0  0
    2.1372    5.7485    9.4889 C   0  0  0  0  0  0  0  0  0  0  0  0
    1.5466    7.1437    9.2666 C   0  0  0  0  0  0  0  0  0  0  0  0
    0.1716    6.9784    8.8370 N   0  0  0  0  0  0  0  0  0  0  0  0
    0.0287    6.4622    7.5133 C   0  0  0  0  0  0  0  0  0  0  0  0
   -0.6619    6.3783    9.8282 C   0  0  0  0  0  0  0  0  0  0  0  0
    0.2199    5.7100   10.8810 C   0  0  0  0  0  0  0  0  0  0  0  0
    2.0558   -0.2028   17.9425 C   0  0  0  0  0  0  0  0  0  0  0  0
    3.0852   -0.0808   16.9878 O   0  0  0  0  0  0  0  0  0  0  0  0
 43 44  1  0  0  0
 44 24  1  0  0  0
 24 25  2  0  0  0
 25 26  1  0  0  0
 26 27  2  0  0  0
 27 28  1  0  0  0
 28 29  2  0  0  0
 29  1  1  0  0  0
  1  3  1  0  0  0
  3  4  2  0  0  0
  4  5  1  0  0  0
  5  6  2  0  0  0
  6  7  1  0  0  0
  6  8  1  0  0  0
  8 10  1  0  0  0
 10 12  1  0  0  0
 12 13  2  0  0  0
 13 14  1  0  0  0
 14 15  2  0  0  0
 15 16  1  0  0  0
 16 17  2  0  0  0
 17 18  1  0  0  0
 18 19  2  0  0  0
 18 20  2  0  0  0
 18 21  1  0  0  0
 21 22  1  0  0  0
 21 23  1  0  0  0
  8  9  2  0  0  0
 26 30  1  0  0  0
 30 31  1  0  0  0
 31 32  1  0  0  0
 32 33  1  0  0  0
 33 34  1  0  0  0
 34 35  1  0  0  0
 33 36  1  0  0  0
 36 37  1  0  0  0
 37 38  1  0  0  0
 38 39  1  0  0  0
 39 40  1  0  0  0
 39 41  1  0  0  0
 41 42  1  0  0  0
 29 24  1  0  0  0
  9  3  1  0  0  0
 35 30  1  0  0  0
 42 36  1  0  0  0
 17 12  1  0  0  0
  1  2  1  0  0  0
 10 11  1  0  0  0
M  END
> <minimizedAffinity>
-9.34852

> <CNNscore>
0.4549475610

> <CNNaffinity>
7.3547487259

> <CNN_VS>
3.3460249901

> <CNNaffinity_variance>
0.1476063579

$$$$
[H]c1nc(N([H])c2c([H])c([H])c(N3C([H])([H])C([H])([H])C([H])(N4C([H])([H])C([H])([H])N(C([H])([H])[H])C([H])([H])C4([H])[H])C([H])([H])C3([H])[H])c([H])c2OC([H])([H])[H])nc(N([H])c2c([H])c([H])c([H])c([H])c2S(=O)(=O)C([H])(C([H])([H])[H])C([H])([H])[H])c1Cl


 44 48  0  0  0  0  0  0  0  0999 V2000
    4.7053    1.4443   18.5380 N   0  0  0  0  0  0  0  0  0  0  0  0
    5.3598    0.5832   18.5036 H   0  0  0  0  0  0  0  0  0  0  0  0
    4.4939    2.0184   19.8195 C   0  0  0  0  0  0  0  0  0  0  0  0
    3.8788    1.4373   20.8526 N   0  0  0  0  0  0  0  0  0  0  0  0
    3.7142    2.0373   22.0382 C   0  0  0  0  0  0  0  0  0  0  0  0
    4.1904    3.3127   22.2323 C   0  0  0  0  0  0  0  0  0  0  0  0
    3.9833    4.1176   23.7847 Cl  0  0  0  0  0  0  0  0  0  0  0  0
    4.8440    3.9489   21.1568 C   0  0  0  0  0  0  0  0  0  0  0  0
    4.9582    3.2675   20.0150 N   0  0  0  0  0  0  0  0  0  0  0  0
    5.3220    5.2490   21.3816 N   0  0  0  0  0  0  0  0  0  0  0  0
    4.5548    5.9922   21.4812 H   0  0  0  0  0  0  0  0  0  0  0  0
    6.6252    5.7549   21.5008 C   0  0  0  0  0  0  0  0  0  0  0  0
    7.5037    5.1930   22.4029 C   0  0  0  0  0  0  0  0  0  0  0  0
    8.8076    5.6877   22.5350 C   0  0  0  0  0  0  0  0  0  0  0  0
    9.1997    6.7362   21.7580 C   0  0  0  0  0  0  0  0  0  0  0  0
    8.3204    7.2949   20.8582 C   0  0  0  0  0  0  0  0  0  0  0  0
    7.0397    6.8310   20.7082 C   0  0  0  0  0  0  0  0  0  0  0  0
    5.9570    7.5374   19.5818 S   0  0  0  0  0  0  0  0  0  0  0  0
    5.2491    6.4571   18.8034 O   0  0  0  0  0  0  0  0  0  0  0  0
    6.5994    8.4704   18.5938 O   0  0  0  0  0  0  0  0  0  0  0  0
    4.6699    8.4842   20.3725 C   0  0  0  0  0  0  0  0  0  0  0  0
    5.1534    9.0679   21.6602 C   0  0  0  0  0  0  0  0  0  0  0  0
    3.9845    9.4396   19.4536 C   0  0  0  0  0  0  0  0  0  0  0  0
    3.2929    0.9605   16.6557 C   0  0  0  0  0  0  0  0  0  0  0  0
    2.7293    1.2766   15.4331 C   0  0  0  0  0  0  0  0  0  0  0  0
    3.0052    2.4631   14.7909 C   0  0  0  0  0  0  0  0  0  0  0  0
    3.8712    3.3148   15.4327 C   0  0  0  0  0  0  0  0  0  0  0  0
    4.4586    3.0263   16.6685 C   0  0  0  0  0  0  0  0  0  0  0  0
    4.1799    1.8422   17.3035 C   0  0  0  0  0  0  0  0  0  0  0  0
    2.4086    2.7793   13.5301 N   0  0  0  0  0  0  0  0  0  0  0  0
    3.1927    3.4712   12.5654 C   0  0  0  0  0  0  0  0  0  0  0  0
    2.6608    3.4683   11.1597 C   0  0  0  0  0  0  0  0  0  0  0  0
    1.1902    3.6956   11.0562 C   0  0  0  0  0  0  0  0  0  0  0  0
    0.4676    3.5072   12.3750 C   0  0  0  0  0  0  0  0  0  0  0  0
    1.0451    2.4224   13.2193 C   0  0  0  0  0  0  0  0  0  0  0  0
    0.4938    3.0033   10.0465 N   0  0  0  0  0  0  0  0  0  0  0  0
    1.1889    2.1140    9.2127 C   0  0  0  0  0  0  0  0  0  0  0  0
    0.3362    1.7909    7.9825 C   0  0  0  0  0  0  0  0  0  0  0  0
   -1.0165    1.5344    8.4373 N   0  0  0  0  0  0  0  0  0  0  0  0
   -1.1737    0.3050    9.1468 C   0  0  0  0  0  0  0  0  0  0  0  0
   -1.6394    2.6740    9.0294 C   0  0  0  0  0  0  0  0  0  0  0  0
   -0.5645    3.6985    9.3867 C   0  0  0  0  0  0  0  0  0  0  0  0
    1.9675   -0.2832   18.2349 C   0  0  0  0  0  0  0  0  0  0  0  0
    2.9716   -0.2517   17.2466 O   0  0  0  0  0  0  0  0  0  0  0  0
 43 44  1  0  0  0
 44 24  1  0  0  0
 24 25  2  0  0  0
 25 26  1  0  0  0
 26 27  2  0  0  0
 27 28  1  0  0  0
 28 29  2  0  0  0
 29  1  1  0  0  0
  1  3  1  0  0  0
  3  4  2  0  0  0
  4  5  1  0  0  0
  5  6  2  0  0  0
  6  7  1  0  0  0
  6  8  1  0  0  0
  8 10  1  0  0  0
 10 12  1  0  0  0
 12 13  2  0  0  0
 13 14  1  0  0  0
 14 15  2  0  0  0
 15 16  1  0  0  0
 16 17  2  0  0  0
 17 18  1  0  0  0
 18 19  2  0  0  0
 18 20  2  0  0  0
 18 21  1  0  0  0
 21 22  1  0  0  0
 21 23  1  0  0  0
  8  9  2  0  0  0
 26 30  1  0  0  0
 30 31  1  0  0  0
 31 32  1  0  0  0
 32 33  1  0  0  0
 33 34  1  0  0  0
 34 35  1  0  0  0
 33 36  1  0  0  0
 36 37  1  0  0  0
 37 38  1  0  0  0
 38 39  1  0  0  0
 39 40  1  0  0  0
 39 41  1  0  0  0
 41 42  1  0  0  0
 29 24  1  0  0  0
  9  3  1  0  0  0
 35 30  1  0  0  0
 42 36  1  0  0  0
 17 12  1  0  0  0
  1  2  1  0  0  0
 10 11  1  0  0  0
M  END
> <minimizedAffinity>
-9.27859

> <CNNscore>
0.4250812531

> <CNNaffinity>
7.2717885971

> <CNN_VS>
3.0911009312

> <CNNaffinity_variance>
0.1850194633

$$$$
[H]c1nc(N([H])c2c([H])c([H])c(N3C([H])([H])C([H])([H])C([H])(N4C([H])([H])C([H])([H])N(C([H])([H])[H])C([H])([H])C4([H])[H])C([H])([H])C3([H])[H])c([H])c2OC([H])([H])[H])nc(N([H])c2c([H])c([H])c([H])c([H])c2S(=O)(=O)C([H])(C([H])([H])[H])C([H])([H])[H])c1Cl


 44 48  0  0  0  0  0  0  0  0999 V2000
    4.7764    1.8750   18.1371 N   0  0  0  0  0  0  0  0  0  0  0  0
    5.3622    0.9661   18.0939 H   0  0  0  0  0  0  0  0  0  0  0  0
    4.6316    2.4655   19.4203 C   0  0  0  0  0  0  0  0  0  0  0  0
    4.1411    1.8719   20.5113 N   0  0  0  0  0  0  0  0  0  0  0  0
    4.0335    2.4889   21.6946 C   0  0  0  0  0  0  0  0  0  0  0  0
    4.4392    3.7965   21.8246 C   0  0  0  0  0  0  0  0  0  0  0  0
    4.3056    4.6242   23.3731 Cl  0  0  0  0  0  0  0  0  0  0  0  0
    4.9612    4.4465   20.6872 C   0  0  0  0  0  0  0  0  0  0  0  0
    5.0275    3.7461   19.5532 N   0  0  0  0  0  0  0  0  0  0  0  0
    5.3696    5.7795   20.8472 N   0  0  0  0  0  0  0  0  0  0  0  0
    4.9240    6.2822   21.6836 H   0  0  0  0  0  0  0  0  0  0  0  0
    6.2581    6.5766   20.1098 C   0  0  0  0  0  0  0  0  0  0  0  0
    5.9527    6.9320   18.8131 C   0  0  0  0  0  0  0  0  0  0  0  0
    6.8300    7.7257   18.0631 C   0  0  0  0  0  0  0  0  0  0  0  0
    7.9948    8.1446   18.6327 C   0  0  0  0  0  0  0  0  0  0  0  0
    8.2969    7.7884   19.9276 C   0  0  0  0  0  0  0  0  0  0  0  0
    7.4572    7.0132   20.6839 C   0  0  0  0  0  0  0  0  0  0  0  0
    7.8477    6.5791   22.2961 S   0  0  0  0  0  0  0  0  0  0  0  0
    7.8682    5.0774   22.4326 O   0  0  0  0  0  0  0  0  0  0  0  0
    6.9099    7.1228   23.3374 O   0  0  0  0  0  0  0  0  0  0  0  0
    9.4737    7.1293   22.7772 C   0  0  0  0  0  0  0  0  0  0  0  0
    9.3966    8.4069   23.5482 C   0  0  0  0  0  0  0  0  0  0  0  0
   10.3054    6.0563   23.3969 C   0  0  0  0  0  0  0  0  0  0  0  0
    3.4501    1.4146   16.1874 C   0  0  0  0  0  0  0  0  0  0  0  0
    2.9022    1.7652   14.9671 C   0  0  0  0  0  0  0  0  0  0  0  0
    3.1214    3.0011   14.4005 C   0  0  0  0  0  0  0  0  0  0  0  0
    3.9143    3.8657   15.1152 C   0  0  0  0  0  0  0  0  0  0  0  0
    4.4838    3.5432   16.3510 C   0  0  0  0  0  0  0  0  0  0  0  0
    4.2619    2.3101   16.9106 C   0  0  0  0  0  0  0  0  0  0  0  0
    2.5417    3.3519   13.1410 N   0  0  0  0  0  0  0  0  0  0  0  0
    1.1235    3.3566   13.0270 C   0  0  0  0  0  0  0  0  0  0  0  0
    0.5618    4.0589   11.8228 C   0  0  0  0  0  0  0  0  0  0  0  0
    1.2947    3.7869   10.5524 C   0  0  0  0  0  0  0  0  0  0  0  0
    2.6632    3.1756   10.7775 C   0  0  0  0  0  0  0  0  0  0  0  0
    3.3514    3.6915   11.9955 C   0  0  0  0  0  0  0  0  0  0  0  0
    1.4085    4.8428    9.6274 N   0  0  0  0  0  0  0  0  0  0  0  0
    0.3421    5.7412    9.4693 C   0  0  0  0  0  0  0  0  0  0  0  0
    0.5292    6.5374    8.1748 C   0  0  0  0  0  0  0  0  0  0  0  0
    1.9157    6.9571    8.1105 N   0  0  0  0  0  0  0  0  0  0  0  0
    2.2649    7.9740    9.0504 C   0  0  0  0  0  0  0  0  0  0  0  0
    2.8319    5.8674    8.0095 C   0  0  0  0  0  0  0  0  0  0  0  0
    2.1196    4.5795    8.4176 C   0  0  0  0  0  0  0  0  0  0  0  0
    2.1819    0.0095   17.6756 C   0  0  0  0  0  0  0  0  0  0  0  0
    3.1886    0.1534   16.7000 O   0  0  0  0  0  0  0  0  0  0  0  0
 43 44  1  0  0  0
 44 24  1  0  0  0
 24 25  2  0  0  0
 25 26  1  0  0  0
 26 27  2  0  0  0
 27 28  1  0  0  0
 28 29  2  0  0  0
 29  1  1  0  0  0
  1  3  1  0  0  0
  3  4  2  0  0  0
  4  5  1  0  0  0
  5  6  2  0  0  0
  6  7  1  0  0  0
  6  8  1  0  0  0
  8 10  1  0  0  0
 10 12  1  0  0  0
 12 13  2  0  0  0
 13 14  1  0  0  0
 14 15  2  0  0  0
 15 16  1  0  0  0
 16 17  2  0  0  0
 17 18  1  0  0  0
 18 19  2  0  0  0
 18 20  2  0  0  0
 18 21  1  0  0  0
 21 22  1  0  0  0
 21 23  1  0  0  0
  8  9  2  0  0  0
 26 30  1  0  0  0
 30 31  1  0  0  0
 31 32  1  0  0  0
 32 33  1  0  0  0
 33 34  1  0  0  0
 34 35  1  0  0  0
 33 36  1  0  0  0
 36 37  1  0  0  0
 37 38  1  0  0  0
 38 39  1  0  0  0
 39 40  1  0  0  0
 39 41  1  0  0  0
 41 42  1  0  0  0
 29 24  1  0  0  0
  9  3  1  0  0  0
 35 30  1  0  0  0
 42 36  1  0  0  0
 17 12  1  0  0  0
  1  2  1  0  0  0
 10 11  1  0  0  0
M  END
> <minimizedAffinity>
-8.26520

> <CNNscore>
0.2965776026

> <CNNaffinity>
6.9653916359

> <CNN_VS>
2.0657792091

> <CNNaffinity_variance>
0.2227949351

$$$$
[H]c1nc(N([H])c2c([H])c([H])c(N3C([H])([H])C([H])([H])C([H])(N4C([H])([H])C([H])([H])N(C([H])([H])[H])C([H])([H])C4([H])[H])C([H])([H])C3([H])[H])c([H])c2OC([H])([H])[H])nc(N([H])c2c([H])c([H])c([H])c([H])c2S(=O)(=O)C([H])(C([H])([H])[H])C([H])([H])[H])c1Cl


 44 48  0  0  0  0  0  0  0  0999 V2000
    4.8354    1.6675   18.2460 N   0  0  0  0  0  0  0  0  0  0  0  0
    5.6883    1.0045   18.1808 H   0  0  0  0  0  0  0  0  0  0  0  0
    4.5900    2.2476   19.5186 C   0  0  0  0  0  0  0  0  0  0  0  0
    3.9483    1.6712   20.5380 N   0  0  0  0  0  0  0  0  0  0  0  0
    3.7522    2.2768   21.7158 C   0  0  0  0  0  0  0  0  0  0  0  0
    4.2222    3.5536   21.9162 C   0  0  0  0  0  0  0  0  0  0  0  0
    3.9739    4.3658   23.4587 Cl  0  0  0  0  0  0  0  0  0  0  0  0
    4.9036    4.1849   20.8552 C   0  0  0  0  0  0  0  0  0  0  0  0
    5.0483    3.4981   19.7202 N   0  0  0  0  0  0  0  0  0  0  0  0
    5.3747    5.4865   21.0862 N   0  0  0  0  0  0  0  0  0  0  0  0
    6.1464    5.5532   21.8285 H   0  0  0  0  0  0  0  0  0  0  0  0
    5.0190    6.7202   20.5205 C   0  0  0  0  0  0  0  0  0  0  0  0
    4.0144    6.7831   19.5782 C   0  0  0  0  0  0  0  0  0  0  0  0
    3.6487    8.0068   19.0028 C   0  0  0  0  0  0  0  0  0  0  0  0
    4.3008    9.1400   19.3868 C   0  0  0  0  0  0  0  0  0  0  0  0
    5.3033    9.0740   20.3279 C   0  0  0  0  0  0  0  0  0  0  0  0
    5.6810    7.8908   20.9069 C   0  0  0  0  0  0  0  0  0  0  0  0
    6.9311    7.8257   22.0787 S   0  0  0  0  0  0  0  0  0  0  0  0
    6.5729    6.8340   23.1569 O   0  0  0  0  0  0  0  0  0  0  0  0
    7.2368    9.1383   22.7443 O   0  0  0  0  0  0  0  0  0  0  0  0
    8.4780    7.2591   21.3971 C   0  0  0  0  0  0  0  0  0  0  0  0
    8.8986    5.9723   22.0296 C   0  0  0  0  0  0  0  0  0  0  0  0
    8.5142    7.2814   19.9054 C   0  0  0  0  0  0  0  0  0  0  0  0
    4.3799    2.9948   16.2958 C   0  0  0  0  0  0  0  0  0  0  0  0
    3.7174    3.2387   15.1068 C   0  0  0  0  0  0  0  0  0  0  0  0
    2.7762    2.3663   14.6073 C   0  0  0  0  0  0  0  0  0  0  0  0
    2.5325    1.2406   15.3559 C   0  0  0  0  0  0  0  0  0  0  0  0
    3.1840    0.9636   16.5619 C   0  0  0  0  0  0  0  0  0  0  0  0
    4.1209    1.8367   17.0547 C   0  0  0  0  0  0  0  0  0  0  0  0
    2.1046    2.6287   13.3721 N   0  0  0  0  0  0  0  0  0  0  0  0
    0.8841    3.3591   13.4077 C   0  0  0  0  0  0  0  0  0  0  0  0
    0.4071    3.9091   12.0929 C   0  0  0  0  0  0  0  0  0  0  0  0
    0.5442    2.9675   10.9441 C   0  0  0  0  0  0  0  0  0  0  0  0
    1.4704    1.8047   11.2389 C   0  0  0  0  0  0  0  0  0  0  0  0
    2.6263    2.1709   12.1067 C   0  0  0  0  0  0  0  0  0  0  0  0
    0.8768    3.5148    9.6897 N   0  0  0  0  0  0  0  0  0  0  0  0
    1.2360    2.6603    8.6361 C   0  0  0  0  0  0  0  0  0  0  0  0
    1.9143    3.4697    7.5272 C   0  0  0  0  0  0  0  0  0  0  0  0
    1.1352    4.6749    7.3200 N   0  0  0  0  0  0  0  0  0  0  0  0
   -0.1295    4.4555    6.6943 C   0  0  0  0  0  0  0  0  0  0  0  0
    1.1219    5.5413    8.4542 C   0  0  0  0  0  0  0  0  0  0  0  0
    1.5786    4.7582    9.6834 C   0  0  0  0  0  0  0  0  0  0  0  0
    5.0370    5.2903   16.6061 C   0  0  0  0  0  0  0  0  0  0  0  0
    5.3159    3.9155   16.7407 O   0  0  0  0  0  0  0  0  0  0  0  0
 43 44  1  0  0  0
 44 24  1  0  0  0
 24 25  2  0  0  0
 25 26  1  0  0  0
 26 27  2  0  0  0
 27 28  1  0  0  0
 28 29  2  0  0  0
 29  1  1  0  0  0
  1  3  1  0  0  0
  3  4  2  0  0  0
  4  5  1  0  0  0
  5  6  2  0  0  0
  6  7  1  0  0  0
  6  8  1  0  0  0
  8 10  1  0  0  0
 10 12  1  0  0  0
 12 13  2  0  0  0
 13 14  1  0  0  0
 14 15  2  0  0  0
 15 16  1  0  0  0
 16 17  2  0  0  0
 17 18  1  0  0  0
 18 19  2  0  0  0
 18 20  2  0  0  0
 18 21  1  0  0  0
 21 22  1  0  0  0
 21 23  1  0  0  0
  8  9  2  0  0  0
 26 30  1  0  0  0
 30 31  1  0  0  0
 31 32  1  0  0  0
 32 33  1  0  0  0
 33 34  1  0  0  0
 34 35  1  0  0  0
 33 36  1  0  0  0
 36 37  1  0  0  0
 37 38  1  0  0  0
 38 39  1  0  0  0
 39 40  1  0  0  0
 39 41  1  0  0  0
 41 42  1  0  0  0
 29 24  1  0  0  0
  9  3  1  0  0  0
 35 30  1  0  0  0
 42 36  1  0  0  0
 17 12  1  0  0  0
  1  2  1  0  0  0
 10 11  1  0  0  0
M  END
> <minimizedAffinity>
-8.35379

> <CNNscore>
0.1918806881

> <CNNaffinity>
6.9045152664

> <CNN_VS>
1.3248431683

> <CNNaffinity_variance>
0.2573086619

$$$$
[H]c1nc(N([H])c2c([H])c([H])c(N3C([H])([H])C([H])([H])C([H])(N4C([H])([H])C([H])([H])N(C([H])([H])[H])C([H])([H])C4([H])[H])C([H])([H])C3([H])[H])c([H])c2OC([H])([H])[H])nc(N([H])c2c([H])c([H])c([H])c([H])c2S(=O)(=O)C([H])(C([H])([H])[H])C([H])([H])[H])c1Cl


 44 48  0  0  0  0  0  0  0  0999 V2000
    4.8456    1.9174   18.0839 N   0  0  0  0  0  0  0  0  0  0  0  0
    5.5403    1.0898   18.0229 H   0  0  0  0  0  0  0  0  0  0  0  0
    4.6895    2.5098   19.3650 C   0  0  0  0  0  0  0  0  0  0  0  0
    4.1082    1.9486   20.4282 N   0  0  0  0  0  0  0  0  0  0  0  0
    3.9955    2.5652   21.6112 C   0  0  0  0  0  0  0  0  0  0  0  0
    4.4923    3.8376   21.7706 C   0  0  0  0  0  0  0  0  0  0  0  0
    4.3533    4.6642   23.3192 Cl  0  0  0  0  0  0  0  0  0  0  0  0
    5.1112    4.4529   20.6628 C   0  0  0  0  0  0  0  0  0  0  0  0
    5.1744    3.7559   19.5264 N   0  0  0  0  0  0  0  0  0  0  0  0
    5.6113    5.7502   20.8524 N   0  0  0  0  0  0  0  0  0  0  0  0
    6.4989    5.7996   21.4530 H   0  0  0  0  0  0  0  0  0  0  0  0
    5.1602    6.9984   20.3974 C   0  0  0  0  0  0  0  0  0  0  0  0
    4.1245    7.0688   19.4899 C   0  0  0  0  0  0  0  0  0  0  0  0
    3.6638    8.3072   19.0245 C   0  0  0  0  0  0  0  0  0  0  0  0
    4.2542    9.4472   19.4812 C   0  0  0  0  0  0  0  0  0  0  0  0
    5.2879    9.3737   20.3873 C   0  0  0  0  0  0  0  0  0  0  0  0
    5.7583    8.1761   20.8591 C   0  0  0  0  0  0  0  0  0  0  0  0
    7.0462    8.1017   21.9886 S   0  0  0  0  0  0  0  0  0  0  0  0
    6.7402    7.0740   23.0490 O   0  0  0  0  0  0  0  0  0  0  0  0
    7.3497    9.4008   22.6812 O   0  0  0  0  0  0  0  0  0  0  0  0
    8.5802    7.5831   21.2428 C   0  0  0  0  0  0  0  0  0  0  0  0
    9.0460    6.2898   21.8285 C   0  0  0  0  0  0  0  0  0  0  0  0
    8.5666    7.6430   19.7518 C   0  0  0  0  0  0  0  0  0  0  0  0
    3.3815    1.2980   16.2825 C   0  0  0  0  0  0  0  0  0  0  0  0
    2.7260    1.5552   15.0924 C   0  0  0  0  0  0  0  0  0  0  0  0
    2.8593    2.7577   14.4346 C   0  0  0  0  0  0  0  0  0  0  0  0
    3.6794    3.6871   15.0268 C   0  0  0  0  0  0  0  0  0  0  0  0
    4.3569    3.4596   16.2288 C   0  0  0  0  0  0  0  0  0  0  0  0
    4.2202    2.2593   16.8796 C   0  0  0  0  0  0  0  0  0  0  0  0
    2.1689    3.0116   13.2081 N   0  0  0  0  0  0  0  0  0  0  0  0
    2.1674    1.9974   12.2102 C   0  0  0  0  0  0  0  0  0  0  0  0
    1.1569    2.1581   11.1094 C   0  0  0  0  0  0  0  0  0  0  0  0
    1.0247    3.5508   10.5918 C   0  0  0  0  0  0  0  0  0  0  0  0
    1.6397    4.5856   11.5127 C   0  0  0  0  0  0  0  0  0  0  0  0
    1.4870    4.2591   12.9595 C   0  0  0  0  0  0  0  0  0  0  0  0
   -0.2590    3.9829   10.2057 N   0  0  0  0  0  0  0  0  0  0  0  0
   -1.0803    3.1264    9.4564 C   0  0  0  0  0  0  0  0  0  0  0  0
   -2.2285    3.9282    8.8371 C   0  0  0  0  0  0  0  0  0  0  0  0
   -2.7538    4.8107    9.8608 N   0  0  0  0  0  0  0  0  0  0  0  0
   -3.4793    4.1438   10.8943 C   0  0  0  0  0  0  0  0  0  0  0  0
   -1.8133    5.7908   10.2989 C   0  0  0  0  0  0  0  0  0  0  0  0
   -0.4118    5.3620    9.8694 C   0  0  0  0  0  0  0  0  0  0  0  0
    2.1826   -0.0775   17.8535 C   0  0  0  0  0  0  0  0  0  0  0  0
    3.2026    0.0657   16.8916 O   0  0  0  0  0  0  0  0  0  0  0  0
 43 44  1  0  0  0
 44 24  1  0  0  0
 24 25  2  0  0  0
 25 26  1  0  0  0
 26 27  2  0  0  0
 27 28  1  0  0  0
 28 29  2  0  0  0
 29  1  1  0  0  0
  1  3  1  0  0  0
  3  4  2  0  0  0
  4  5  1  0  0  0
  5  6  2  0  0  0
  6  7  1  0  0  0
  6  8  1  0  0  0
  8 10  1  0  0  0
 10 12  1  0  0  0
 12 13  2  0  0  0
 13 14  1  0  0  0
 14 15  2  0  0  0
 15 16  1  0  0  0
 16 17  2  0  0  0
 17 18  1  0  0  0
 18 19  2  0  0  0
 18 20  2  0  0  0
 18 21  1  0  0  0
 21 22  1  0  0  0
 21 23  1  0  0  0
  8  9  2  0  0  0
 26 30  1  0  0  0
 30 31  1  0  0  0
 31 32  1  0  0  0
 32 33  1  0  0  0
 33 34  1  0  0  0
 34 35  1  0  0  0
 33 36  1  0  0  0
 36 37  1  0  0  0
 37 38  1  0  0  0
 38 39  1  0  0  0
 39 40  1  0  0  0
 39 41  1  0  0  0
 41 42  1  0  0  0
 29 24  1  0  0  0
  9  3  1  0  0  0
 35 30  1  0  0  0
 42 36  1  0  0  0
 17 12  1  0  0  0
  1  2  1  0  0  0
 10 11  1  0  0  0
M  END
> <minimizedAffinity>
-9.04166

> <CNNscore>
0.1538526863

> <CNNaffinity>
6.9136362076

> <CNN_VS>
1.0636814833

> <CNNaffinity_variance>
0.2963225245

$$$$
[H]c1nc(N([H])c2c([H])c([H])c(N3C([H])([H])C([H])([H])C([H])(N4C([H])([H])C([H])([H])N(C([H])([H])[H])C([H])([H])C4([H])[H])C([H])([H])C3([H])[H])c([H])c2OC([H])([H])[H])nc(N([H])c2c([H])c([H])c([H])c([H])c2S(=O)(=O)C([H])(C([H])([H])[H])C([H])([H])[H])c1Cl


 44 48  0  0  0  0  0  0  0  0999 V2000
    4.7120    2.8629   17.7926 N   0  0  0  0  0  0  0  0  0  0  0  0
    5.4139    2.1075   17.4642 H   0  0  0  0  0  0  0  0  0  0  0  0
    4.5699    3.0162   19.1972 C   0  0  0  0  0  0  0  0  0  0  0  0
    3.9813    2.1537   20.0295 N   0  0  0  0  0  0  0  0  0  0  0  0
    3.8828    2.3607   21.3486 C   0  0  0  0  0  0  0  0  0  0  0  0
    4.4030    3.5067   21.9029 C   0  0  0  0  0  0  0  0  0  0  0  0
    4.2830    3.7958   23.6357 Cl  0  0  0  0  0  0  0  0  0  0  0  0
    5.0300    4.4341   21.0453 C   0  0  0  0  0  0  0  0  0  0  0  0
    5.0777    4.1370   19.7452 N   0  0  0  0  0  0  0  0  0  0  0  0
    5.5540    5.5941   21.6363 N   0  0  0  0  0  0  0  0  0  0  0  0
    4.8210    6.2244   22.1014 H   0  0  0  0  0  0  0  0  0  0  0  0
    6.8667    6.0805   21.7300 C   0  0  0  0  0  0  0  0  0  0  0  0
    7.8421    5.3207   22.3403 C   0  0  0  0  0  0  0  0  0  0  0  0
    9.1569    5.7930   22.4435 C   0  0  0  0  0  0  0  0  0  0  0  0
    9.4623    7.0181   21.9312 C   0  0  0  0  0  0  0  0  0  0  0  0
    8.4864    7.7742   21.3223 C   0  0  0  0  0  0  0  0  0  0  0  0
    7.1927    7.3369   21.2075 C   0  0  0  0  0  0  0  0  0  0  0  0
    5.9889    8.2906   20.4450 S   0  0  0  0  0  0  0  0  0  0  0  0
    6.5542    9.6427   20.0893 O   0  0  0  0  0  0  0  0  0  0  0  0
    4.7496    8.5118   21.2663 O   0  0  0  0  0  0  0  0  0  0  0  0
    5.4285    7.5828   18.9077 C   0  0  0  0  0  0  0  0  0  0  0  0
    3.9363    7.5892   18.8317 C   0  0  0  0  0  0  0  0  0  0  0  0
    6.1332    8.1274   17.7103 C   0  0  0  0  0  0  0  0  0  0  0  0
    2.8688    3.0152   16.2591 C   0  0  0  0  0  0  0  0  0  0  0  0
    2.1668    3.6404   15.2450 C   0  0  0  0  0  0  0  0  0  0  0  0
    2.5989    4.8209   14.6830 C   0  0  0  0  0  0  0  0  0  0  0  0
    3.7659    5.3426   15.1861 C   0  0  0  0  0  0  0  0  0  0  0  0
    4.5002    4.7364   16.2103 C   0  0  0  0  0  0  0  0  0  0  0  0
    4.0646    3.5600   16.7664 C   0  0  0  0  0  0  0  0  0  0  0  0
    1.8579    5.4596   13.6397 N   0  0  0  0  0  0  0  0  0  0  0  0
    2.0887    6.8421   13.3949 C   0  0  0  0  0  0  0  0  0  0  0  0
    1.5666    7.3762   12.0908 C   0  0  0  0  0  0  0  0  0  0  0  0
    0.2036    6.8912   11.7269 C   0  0  0  0  0  0  0  0  0  0  0  0
   -0.2284    5.6812   12.5307 C   0  0  0  0  0  0  0  0  0  0  0  0
    0.8894    4.7452   12.8430 C   0  0  0  0  0  0  0  0  0  0  0  0
   -0.0618    6.6574   10.3636 N   0  0  0  0  0  0  0  0  0  0  0  0
   -1.1723    5.8807    9.9990 C   0  0  0  0  0  0  0  0  0  0  0  0
   -1.0380    5.4477    8.5364 C   0  0  0  0  0  0  0  0  0  0  0  0
   -0.6118    6.6031    7.7708 N   0  0  0  0  0  0  0  0  0  0  0  0
   -1.6159    7.6065    7.6151 C   0  0  0  0  0  0  0  0  0  0  0  0
    0.6841    7.0765    8.1363 C   0  0  0  0  0  0  0  0  0  0  0  0
    1.0608    6.4938    9.4968 C   0  0  0  0  0  0  0  0  0  0  0  0
    2.7761    0.6100   16.1948 C   0  0  0  0  0  0  0  0  0  0  0  0
    2.3767    1.8284   16.7798 O   0  0  0  0  0  0  0  0  0  0  0  0
 43 44  1  0  0  0
 44 24  1  0  0  0
 24 25  2  0  0  0
 25 26  1  0  0  0
 26 27  2  0  0  0
 27 28  1  0  0  0
 28 29  2  0  0  0
 29  1  1  0  0  0
  1  3  1  0  0  0
  3  4  2  0  0  0
  4  5  1  0  0  0
  5  6  2  0  0  0
  6  7  1  0  0  0
  6  8  1  0  0  0
  8 10  1  0  0  0
 10 12  1  0  0  0
 12 13  2  0  0  0
 13 14  1  0  0  0
 14 15  2  0  0  0
 15 16  1  0  0  0
 16 17  2  0  0  0
 17 18  1  0  0  0
 18 19  2  0  0  0
 18 20  2  0  0  0
 18 21  1  0  0  0
 21 22  1  0  0  0
 21 23  1  0  0  0
  8  9  2  0  0  0
 26 30  1  0  0  0
 30 31  1  0  0  0
 31 32  1  0  0  0
 32 33  1  0  0  0
 33 34  1  0  0  0
 34 35  1  0  0  0
 33 36  1  0  0  0
 36 37  1  0  0  0
 37 38  1  0  0  0
 38 39  1  0  0  0
 39 40  1  0  0  0
 39 41  1  0  0  0
 41 42  1  0  0  0
 29 24  1  0  0  0
  9  3  1  0  0  0
 35 30  1  0  0  0
 42 36  1  0  0  0
 17 12  1  0  0  0
  1  2  1  0  0  0
 10 11  1  0  0  0
M  END
> <minimizedAffinity>
-8.10930

> <CNNscore>
0.1416445374

> <CNNaffinity>
6.7501044273

> <CNN_VS>
0.9561154246

> <CNNaffinity_variance>
0.2482056618

$$$$
[H]c1nc(N([H])c2c([H])c([H])c(N3C([H])([H])C([H])([H])C([H])(N4C([H])([H])C([H])([H])N(C([H])([H])[H])C([H])([H])C4([H])[H])C([H])([H])C3([H])[H])c([H])c2OC([H])([H])[H])nc(N([H])c2c([H])c([H])c([H])c([H])c2S(=O)(=O)C([H])(C([H])([H])[H])C([H])([H])[H])c1Cl


 44 48  0  0  0  0  0  0  0  0999 V2000
    3.8855    5.7541   15.4277 N   0  0  0  0  0  0  0  0  0  0  0  0
    4.8227    6.0275   14.9607 H   0  0  0  0  0  0  0  0  0  0  0  0
    3.9154    5.5829   16.8371 C   0  0  0  0  0  0  0  0  0  0  0  0
    4.0440    4.4244   17.4886 N   0  0  0  0  0  0  0  0  0  0  0  0
    4.0662    4.3343   18.8243 C   0  0  0  0  0  0  0  0  0  0  0  0
    3.9533    5.4714   19.5894 C   0  0  0  0  0  0  0  0  0  0  0  0
    3.9807    5.3725   21.3473 Cl  0  0  0  0  0  0  0  0  0  0  0  0
    3.8163    6.7081   18.9256 C   0  0  0  0  0  0  0  0  0  0  0  0
    3.8052    6.6935   17.5912 N   0  0  0  0  0  0  0  0  0  0  0  0
    3.7050    7.8531   19.7294 N   0  0  0  0  0  0  0  0  0  0  0  0
    3.3788    7.6600   20.7330 H   0  0  0  0  0  0  0  0  0  0  0  0
    3.9439    9.2087   19.4580 C   0  0  0  0  0  0  0  0  0  0  0  0
    3.0547    9.9247   18.6848 C   0  0  0  0  0  0  0  0  0  0  0  0
    3.2799   11.2784   18.4033 C   0  0  0  0  0  0  0  0  0  0  0  0
    4.3935   11.8824   18.9049 C   0  0  0  0  0  0  0  0  0  0  0  0
    5.2793   11.1650   19.6767 C   0  0  0  0  0  0  0  0  0  0  0  0
    5.0837    9.8402   19.9677 C   0  0  0  0  0  0  0  0  0  0  0  0
    6.1963    8.9609   20.9317 S   0  0  0  0  0  0  0  0  0  0  0  0
    5.4626    8.2428   22.0363 O   0  0  0  0  0  0  0  0  0  0  0  0
    7.2760    9.7947   21.5629 O   0  0  0  0  0  0  0  0  0  0  0  0
    7.0439    7.6912   20.0109 C   0  0  0  0  0  0  0  0  0  0  0  0
    7.9482    8.2923   18.9845 C   0  0  0  0  0  0  0  0  0  0  0  0
    7.6623    6.6429   20.8744 C   0  0  0  0  0  0  0  0  0  0  0  0
    3.0180    4.9176   13.3493 C   0  0  0  0  0  0  0  0  0  0  0  0
    2.0013    4.7376   12.4294 C   0  0  0  0  0  0  0  0  0  0  0  0
    0.7332    5.2305   12.6424 C   0  0  0  0  0  0  0  0  0  0  0  0
    0.5349    5.9107   13.8193 C   0  0  0  0  0  0  0  0  0  0  0  0
    1.5404    6.1108   14.7703 C   0  0  0  0  0  0  0  0  0  0  0  0
    2.8021    5.6173   14.5525 C   0  0  0  0  0  0  0  0  0  0  0  0
   -0.3101    5.0298   11.6849 N   0  0  0  0  0  0  0  0  0  0  0  0
   -1.6584    5.0560   12.1383 C   0  0  0  0  0  0  0  0  0  0  0  0
   -2.7091    5.1946   11.0727 C   0  0  0  0  0  0  0  0  0  0  0  0
   -2.4693    4.3626    9.8580 C   0  0  0  0  0  0  0  0  0  0  0  0
   -1.0490    3.8412    9.7684 C   0  0  0  0  0  0  0  0  0  0  0  0
   -0.0307    4.7985   10.2879 C   0  0  0  0  0  0  0  0  0  0  0  0
   -2.8397    4.9064    8.6127 N   0  0  0  0  0  0  0  0  0  0  0  0
   -3.1297    6.2760    8.5153 C   0  0  0  0  0  0  0  0  0  0  0  0
   -3.8653    6.5528    7.2010 C   0  0  0  0  0  0  0  0  0  0  0  0
   -3.1802    5.8262    6.1497 N   0  0  0  0  0  0  0  0  0  0  0  0
   -1.9008    6.3592    5.8059 C   0  0  0  0  0  0  0  0  0  0  0  0
   -3.2362    4.4093    6.3130 C   0  0  0  0  0  0  0  0  0  0  0  0
   -3.6346    4.0901    7.7524 C   0  0  0  0  0  0  0  0  0  0  0  0
    4.7648    4.4710   11.7533 C   0  0  0  0  0  0  0  0  0  0  0  0
    4.2714    4.3948   13.0712 O   0  0  0  0  0  0  0  0  0  0  0  0
 43 44  1  0  0  0
 44 24  1  0  0  0
 24 25  2  0  0  0
 25 26  1  0  0  0
 26 27  2  0  0  0
 27 28  1  0  0  0
 28 29  2  0  0  0
 29  1  1  0  0  0
  1  3  1  0  0  0
  3  4  2  0  0  0
  4  5  1  0  0  0
  5  6  2  0  0  0
  6  7  1  0  0  0
  6  8  1  0  0  0
  8 10  1  0  0  0
 10 12  1  0  0  0
 12 13  2  0  0  0
 13 14  1  0  0  0
 14 15  2  0  0  0
 15 16  1  0  0  0
 16 17  2  0  0  0
 17 18  1  0  0  0
 18 19  2  0  0  0
 18 20  2  0  0  0
 18 21  1  0  0  0
 21 22  1  0  0  0
 21 23  1  0  0  0
  8  9  2  0  0  0
 26 30  1  0  0  0
 30 31  1  0  0  0
 31 32  1  0  0  0
 32 33  1  0  0  0
 33 34  1  0  0  0
 34 35  1  0  0  0
 33 36  1  0  0  0
 36 37  1  0  0  0
 37 38  1  0  0  0
 38 39  1  0  0  0
 39 40  1  0  0  0
 39 41  1  0  0  0
 41 42  1  0  0  0
 29 24  1  0  0  0
  9  3  1  0  0  0
 35 30  1  0  0  0
 42 36  1  0  0  0
 17 12  1  0  0  0
  1  2  1  0  0  0
 10 11  1  0  0  0
M  END
> <minimizedAffinity>
-7.74901

> <CNNscore>
0.1326213926

> <CNNaffinity>
6.1612601280

> <CNN_VS>
0.8171148896

> <CNNaffinity_variance>
0.4110406935

$$$$
[H]c1nc(N([H])c2c([H])c([H])c(N3C([H])([H])C([H])([H])C([H])(N4C([H])([H])C([H])([H])N(C([H])([H])[H])C([H])([H])C4([H])[H])C([H])([H])C3([H])[H])c([H])c2OC([H])([H])[H])nc(N([H])c2c([H])c([H])c([H])c([H])c2S(=O)(=O)C([H])(C([H])([H])[H])C([H])([H])[H])c1Cl


 44 48  0  0  0  0  0  0  0  0999 V2000
    4.8268    1.6378   18.8309 N   0  0  0  0  0  0  0  0  0  0  0  0
    5.6823    0.9761   18.7915 H   0  0  0  0  0  0  0  0  0  0  0  0
    4.4924    2.1523   20.1115 C   0  0  0  0  0  0  0  0  0  0  0  0
    3.7474    1.5424   21.0369 N   0  0  0  0  0  0  0  0  0  0  0  0
    3.4711    2.0860   22.2288 C   0  0  0  0  0  0  0  0  0  0  0  0
    3.9637    3.3305   22.5449 C   0  0  0  0  0  0  0  0  0  0  0  0
    3.6109    4.0611   24.1077 Cl  0  0  0  0  0  0  0  0  0  0  0  0
    4.7536    3.9960   21.5847 C   0  0  0  0  0  0  0  0  0  0  0  0
    4.9723    3.3708   20.4261 N   0  0  0  0  0  0  0  0  0  0  0  0
    5.2454    5.2634   21.9328 N   0  0  0  0  0  0  0  0  0  0  0  0
    4.4966    5.9498   22.2780 H   0  0  0  0  0  0  0  0  0  0  0  0
    6.5426    5.7973   21.9119 C   0  0  0  0  0  0  0  0  0  0  0  0
    7.5928    5.0798   22.4443 C   0  0  0  0  0  0  0  0  0  0  0  0
    8.8935    5.5998   22.4327 C   0  0  0  0  0  0  0  0  0  0  0  0
    9.1100    6.8292   21.8865 C   0  0  0  0  0  0  0  0  0  0  0  0
    8.0596    7.5431   21.3555 C   0  0  0  0  0  0  0  0  0  0  0  0
    6.7777    7.0586   21.3535 C   0  0  0  0  0  0  0  0  0  0  0  0
    5.4803    7.9600   20.6870 S   0  0  0  0  0  0  0  0  0  0  0  0
    4.6580    8.5711   21.7937 O   0  0  0  0  0  0  0  0  0  0  0  0
    4.5526    7.1690   19.8077 O   0  0  0  0  0  0  0  0  0  0  0  0
    6.0397    9.3282   19.6902 C   0  0  0  0  0  0  0  0  0  0  0  0
    6.0803    8.9517   18.2448 C   0  0  0  0  0  0  0  0  0  0  0  0
    5.3442   10.6120   19.9984 C   0  0  0  0  0  0  0  0  0  0  0  0
    4.2610    3.1741   17.0726 C   0  0  0  0  0  0  0  0  0  0  0  0
    3.6659    3.4891   15.8648 C   0  0  0  0  0  0  0  0  0  0  0  0
    2.9852    2.5493   15.1233 C   0  0  0  0  0  0  0  0  0  0  0  0
    2.9307    1.2819   15.6504 C   0  0  0  0  0  0  0  0  0  0  0  0
    3.5208    0.9298   16.8683 C   0  0  0  0  0  0  0  0  0  0  0  0
    4.1977    1.8707   17.6028 C   0  0  0  0  0  0  0  0  0  0  0  0
    2.3812    2.8885   13.8720 N   0  0  0  0  0  0  0  0  0  0  0  0
    1.6169    4.0859   13.7925 C   0  0  0  0  0  0  0  0  0  0  0  0
    1.3055    4.5776   12.4068 C   0  0  0  0  0  0  0  0  0  0  0  0
    0.9015    3.5080   11.4489 C   0  0  0  0  0  0  0  0  0  0  0  0
    1.2449    2.1150   11.9375 C   0  0  0  0  0  0  0  0  0  0  0  0
    2.5222    2.0523   12.7041 C   0  0  0  0  0  0  0  0  0  0  0  0
    1.3174    3.6419   10.1100 N   0  0  0  0  0  0  0  0  0  0  0  0
    2.3946    4.4870    9.8020 C   0  0  0  0  0  0  0  0  0  0  0  0
    2.4110    4.7702    8.2972 C   0  0  0  0  0  0  0  0  0  0  0  0
    2.1864    3.5141    7.6086 N   0  0  0  0  0  0  0  0  0  0  0  0
    3.2844    2.6035    7.6762 C   0  0  0  0  0  0  0  0  0  0  0  0
    0.8999    2.9514    7.8645 C   0  0  0  0  0  0  0  0  0  0  0  0
    0.3044    3.6157    9.1041 C   0  0  0  0  0  0  0  0  0  0  0  0
    6.1166    4.7011   17.2227 C   0  0  0  0  0  0  0  0  0  0  0  0
    4.9307    4.1692   17.7675 O   0  0  0  0  0  0  0  0  0  0  0  0
 43 44  1  0  0  0
 44 24  1  0  0  0
 24 25  2  0  0  0
 25 26  1  0  0  0
 26 27  2  0  0  0
 27 28  1  0  0  0
 28 29  2  0  0  0
 29  1  1  0  0  0
  1  3  1  0  0  0
  3  4  2  0  0  0
  4  5  1  0  0  0
  5  6  2  0  0  0
  6  7  1  0  0  0
  6  8  1  0  0  0
  8 10  1  0  0  0
 10 12  1  0  0  0
 12 13  2  0  0  0
 13 14  1  0  0  0
 14 15  2  0  0  0
 15 16  1  0  0  0
 16 17  2  0  0  0
 17 18  1  0  0  0
 18 19  2  0  0  0
 18 20  2  0  0  0
 18 21  1  0  0  0
 21 22  1  0  0  0
 21 23  1  0  0  0
  8  9  2  0  0  0
 26 30  1  0  0  0
 30 31  1  0  0  0
 31 32  1  0  0  0
 32 33  1  0  0  0
 33 34  1  0  0  0
 34 35  1  0  0  0
 33 36  1  0  0  0
 36 37  1  0  0  0
 37 38  1  0  0  0
 38 39  1  0  0  0
 39 40  1  0  0  0
 39 41  1  0  0  0
 41 42  1  0  0  0
 29 24  1  0  0  0
  9  3  1  0  0  0
 35 30  1  0  0  0
 42 36  1  0  0  0
 17 12  1  0  0  0
  1  2  1  0  0  0
 10 11  1  0  0  0
M  END
> <minimizedAffinity>
-8.35223

> <CNNscore>
0.1211492345

> <CNNaffinity>
6.8716874123

> <CNN_VS>
0.8324996829

> <CNNaffinity_variance>
0.3094424009

$$$$
[H]OC(=O)[C@@]([H])(N([H])C(=O)[C@@]1([H])N(C(=O)[C@@]([H])(N([H])C(=O)C([H])([H])[H])C([H])(C([H])([H])[H])C([H])([H])[H])C([H])([H])c2c([H])c([H])c([H])c([H])c2C1([H])[H])C([H])([H])C([H])([H])SC([H])([H])[H]


 34 35  0  0  0  0  0  0  0  0999 V2000
    3.6880    6.9935   17.5586 C   0  0  0  0  0  0  0  0  0  0  0  0
    4.0881    7.8709   18.7269 C   0  0  0  0  0  0  0  0  0  0  0  0
    5.5333    7.8595   18.9444 C   0  0  0  0  0  0  0  0  0  0  0  0
    6.1110    8.9257   19.5822 C   0  0  0  0  0  0  0  0  0  0  0  0
    7.4704    8.9934   19.8200 C   0  0  0  0  0  0  0  0  0  0  0  0
    8.2685    7.9478   19.3982 C   0  0  0  0  0  0  0  0  0  0  0  0
    7.7051    6.8737   18.7587 C   0  0  0  0  0  0  0  0  0  0  0  0
    6.3139    6.8249   18.5260 C   0  0  0  0  0  0  0  0  0  0  0  0
    5.7448    5.6519   17.8418 C   0  0  0  0  0  0  0  0  0  0  0  0
    4.3406    5.7106   17.7226 N   0  0  0  0  0  0  0  0  0  0  0  0
    3.4901    4.5438   17.7715 C   0  0  0  0  0  0  0  0  0  0  0  0
    2.2235    4.7130   17.7130 O   0  0  0  0  0  0  0  0  0  0  0  0
    4.4606    6.8778   15.1568 N   0  0  0  0  0  0  0  0  0  0  0  0
    3.9771    7.6132   16.2606 C   0  0  0  0  0  0  0  0  0  0  0  0
    3.7916    8.8441   16.1133 O   0  0  0  0  0  0  0  0  0  0  0  0
    4.6138    5.8346   15.2917 H   0  0  0  0  0  0  0  0  0  0  0  0
    4.7591    7.4268   13.8737 C   0  0  0  0  0  0  0  0  0  0  0  0
    5.1838    8.8407   14.0382 C   0  0  0  0  0  0  0  0  0  0  0  0
    4.2764    9.8337   13.6505 O   0  0  0  0  0  0  0  0  0  0  0  0
    6.3034    9.1123   14.5031 O   0  0  0  0  0  0  0  0  0  0  0  0
    3.8855   10.4717   14.3534 H   0  0  0  0  0  0  0  0  0  0  0  0
    3.5928    7.3648   12.9134 C   0  0  0  0  0  0  0  0  0  0  0  0
    2.6067    6.2851   13.2913 C   0  0  0  0  0  0  0  0  0  0  0  0
    0.1194    7.4156   12.0715 C   0  0  0  0  0  0  0  0  0  0  0  0
    1.0123    7.0917   13.6070 S   0  0  0  0  0  0  0  0  0  0  0  0
    3.9644    3.1666   17.8846 C   0  0  0  0  0  0  0  0  0  0  0  0
    3.6250    2.6620   19.2347 N   0  0  0  0  0  0  0  0  0  0  0  0
    4.5640    2.6916   20.2863 C   0  0  0  0  0  0  0  0  0  0  0  0
    4.2135    2.1875   21.6226 C   0  0  0  0  0  0  0  0  0  0  0  0
    5.7088    3.1527   20.0778 O   0  0  0  0  0  0  0  0  0  0  0  0
    2.6798    2.2744   19.4296 H   0  0  0  0  0  0  0  0  0  0  0  0
    3.2687    2.2456   16.8630 C   0  0  0  0  0  0  0  0  0  0  0  0
    3.5893    0.8058   17.1150 C   0  0  0  0  0  0  0  0  0  0  0  0
    3.7774    2.6674   15.5004 C   0  0  0  0  0  0  0  0  0  0  0  0
 24 25  1  0  0  0
 25 23  1  0  0  0
 23 22  1  0  0  0
 22 17  1  0  0  0
 17 13  1  0  0  0
 13 14  1  0  0  0
 14 15  2  0  0  0
 14  1  1  0  0  0
  1  2  1  0  0  0
  2  3  1  0  0  0
  3  4  2  0  0  0
  4  5  1  0  0  0
  5  6  2  0  0  0
  6  7  1  0  0  0
  7  8  2  0  0  0
  8  9  1  0  0  0
  9 10  1  0  0  0
 10 11  1  0  0  0
 11 12  2  0  0  0
 11 26  1  0  0  0
 26 27  1  0  0  0
 27 28  1  0  0  0
 28 29  1  0  0  0
 28 30  2  0  0  0
 26 32  1  0  0  0
 32 33  1  0  0  0
 32 34  1  0  0  0
 17 18  1  0  0  0
 18 19  1  0  0  0
 18 20  2  0  0  0
 10  1  1  0  0  0
  8  3  1  0  0  0
 13 16  1  0  0  0
 27 31  1  0  0  0
 19 21  1  0  0  0
M  END
> <minimizedAffinity>
-6.44179

> <CNNscore>
0.3566448987

> <CNNaffinity>
5.7880525589

> <CNN_VS>
2.0642793179

> <CNNaffinity_variance>
0.0906284079

$$$$
[H]OC(=O)[C@@]([H])(N([H])C(=O)[C@@]1([H])N(C(=O)[C@@]([H])(N([H])C(=O)C([H])([H])[H])C([H])(C([H])([H])[H])C([H])([H])[H])C([H])([H])c2c([H])c([H])c([H])c([H])c2C1([H])[H])C([H])([H])C([H])([H])SC([H])([H])[H]


 34 35  0  0  0  0  0  0  0  0999 V2000
    5.2032    4.7607   19.0662 C   0  0  0  0  0  0  0  0  0  0  0  0
    5.6302    3.5307   19.8405 C   0  0  0  0  0  0  0  0  0  0  0  0
    4.8780    3.3846   21.0851 C   0  0  0  0  0  0  0  0  0  0  0  0
    4.7578    2.1370   21.6384 C   0  0  0  0  0  0  0  0  0  0  0  0
    4.0581    1.9147   22.8091 C   0  0  0  0  0  0  0  0  0  0  0  0
    3.4622    2.9906   23.4378 C   0  0  0  0  0  0  0  0  0  0  0  0
    3.5739    4.2454   22.8965 C   0  0  0  0  0  0  0  0  0  0  0  0
    4.2934    4.4501   21.6996 C   0  0  0  0  0  0  0  0  0  0  0  0
    4.3965    5.8131   21.1524 C   0  0  0  0  0  0  0  0  0  0  0  0
    5.1857    5.8803   19.9852 N   0  0  0  0  0  0  0  0  0  0  0  0
    6.0107    7.0176   19.6490 C   0  0  0  0  0  0  0  0  0  0  0  0
    6.7341    6.9526   18.5960 O   0  0  0  0  0  0  0  0  0  0  0  0
    3.7555    3.6607   17.3132 N   0  0  0  0  0  0  0  0  0  0  0  0
    3.9227    4.5771   18.3739 C   0  0  0  0  0  0  0  0  0  0  0  0
    2.9303    5.2553   18.7293 O   0  0  0  0  0  0  0  0  0  0  0  0
    4.6029    3.0899   17.0200 H   0  0  0  0  0  0  0  0  0  0  0  0
    2.5363    3.4413   16.6045 C   0  0  0  0  0  0  0  0  0  0  0  0
    2.4834    2.0257   16.1573 C   0  0  0  0  0  0  0  0  0  0  0  0
    2.8065    1.7613   14.8210 O   0  0  0  0  0  0  0  0  0  0  0  0
    2.1631    1.1256   16.9514 O   0  0  0  0  0  0  0  0  0  0  0  0
    3.6359    1.1994   14.5972 H   0  0  0  0  0  0  0  0  0  0  0  0
    2.3720    4.3493   15.4066 C   0  0  0  0  0  0  0  0  0  0  0  0
    3.6847    4.9597   14.9762 C   0  0  0  0  0  0  0  0  0  0  0  0
    3.9603    7.6243   13.6434 C   0  0  0  0  0  0  0  0  0  0  0  0
    3.5372    6.7578   15.1699 S   0  0  0  0  0  0  0  0  0  0  0  0
    6.0885    8.2535   20.4243 C   0  0  0  0  0  0  0  0  0  0  0  0
    7.5055    8.6785   20.4903 N   0  0  0  0  0  0  0  0  0  0  0  0
    8.1067    9.0394   21.7137 C   0  0  0  0  0  0  0  0  0  0  0  0
    9.5151    9.4592   21.7651 C   0  0  0  0  0  0  0  0  0  0  0  0
    7.4319    9.0014   22.7672 O   0  0  0  0  0  0  0  0  0  0  0  0
    8.0842    8.7175   19.6271 H   0  0  0  0  0  0  0  0  0  0  0  0
    5.2996    9.3926   19.7490 C   0  0  0  0  0  0  0  0  0  0  0  0
    3.9503    8.9312   19.2951 C   0  0  0  0  0  0  0  0  0  0  0  0
    6.1308    9.8355   18.5631 C   0  0  0  0  0  0  0  0  0  0  0  0
 24 25  1  0  0  0
 25 23  1  0  0  0
 23 22  1  0  0  0
 22 17  1  0  0  0
 17 13  1  0  0  0
 13 14  1  0  0  0
 14 15  2  0  0  0
 14  1  1  0  0  0
  1  2  1  0  0  0
  2  3  1  0  0  0
  3  4  2  0  0  0
  4  5  1  0  0  0
  5  6  2  0  0  0
  6  7  1  0  0  0
  7  8  2  0  0  0
  8  9  1  0  0  0
  9 10  1  0  0  0
 10 11  1  0  0  0
 11 12  2  0  0  0
 11 26  1  0  0  0
 26 27  1  0  0  0
 27 28  1  0  0  0
 28 29  1  0  0  0
 28 30  2  0  0  0
 26 32  1  0  0  0
 32 33  1  0  0  0
 32 34  1  0  0  0
 17 18  1  0  0  0
 18 19  1  0  0  0
 18 20  2  0  0  0
 10  1  1  0  0  0
  8  3  1  0  0  0
 13 16  1  0  0  0
 27 31  1  0  0  0
 19 21  1  0  0  0
M  END
> <minimizedAffinity>
-6.74246

> <CNNscore>
0.3388033807

> <CNNaffinity>
5.6953506470

> <CNN_VS>
1.9296040535

> <CNNaffinity_variance>
0.1458919346

$$$$
[H]OC(=O)[C@@]([H])(N([H])C(=O)[C@@]1([H])N(C(=O)[C@@]([H])(N([H])C(=O)C([H])([H])[H])C([H])(C([H])([H])[H])C([H])([H])[H])C([H])([H])c2c([H])c([H])c([H])c([H])c2C1([H])[H])C([H])([H])C([H])([H])SC([H])([H])[H]


 34 35  0  0  0  0  0  0  0  0999 V2000
    5.1813    4.1343   18.9962 C   0  0  0  0  0  0  0  0  0  0  0  0
    5.5634    2.7244   19.3973 C   0  0  0  0  0  0  0  0  0  0  0  0
    4.7654    2.2454   20.5242 C   0  0  0  0  0  0  0  0  0  0  0  0
    4.6084    0.8948   20.6922 C   0  0  0  0  0  0  0  0  0  0  0  0
    3.8645    0.3629   21.7280 C   0  0  0  0  0  0  0  0  0  0  0  0
    3.2613    1.2272   22.6208 C   0  0  0  0  0  0  0  0  0  0  0  0
    3.4094    2.5815   22.4662 C   0  0  0  0  0  0  0  0  0  0  0  0
    4.1739    3.1036   21.4008 C   0  0  0  0  0  0  0  0  0  0  0  0
    4.3152    4.5634   21.2713 C   0  0  0  0  0  0  0  0  0  0  0  0
    5.1463    4.9437   20.1970 N   0  0  0  0  0  0  0  0  0  0  0  0
    5.9983    6.1101   20.2265 C   0  0  0  0  0  0  0  0  0  0  0  0
    6.7578    6.3327   19.2216 O   0  0  0  0  0  0  0  0  0  0  0  0
    3.6594    3.3403   17.1435 N   0  0  0  0  0  0  0  0  0  0  0  0
    3.9239    4.1867   18.2419 C   0  0  0  0  0  0  0  0  0  0  0  0
    3.0415    5.0117   18.5765 O   0  0  0  0  0  0  0  0  0  0  0  0
    4.4137    2.6436   16.8684 H   0  0  0  0  0  0  0  0  0  0  0  0
    2.4572    3.3475   16.3743 C   0  0  0  0  0  0  0  0  0  0  0  0
    2.0729    1.9470   16.0620 C   0  0  0  0  0  0  0  0  0  0  0  0
    1.5328    1.6960   14.7951 O   0  0  0  0  0  0  0  0  0  0  0  0
    2.2318    1.0474   16.9039 O   0  0  0  0  0  0  0  0  0  0  0  0
    2.0391    1.0966   14.1332 H   0  0  0  0  0  0  0  0  0  0  0  0
    2.5789    4.1304   15.0865 C   0  0  0  0  0  0  0  0  0  0  0  0
    2.0406    5.5346   15.2259 C   0  0  0  0  0  0  0  0  0  0  0  0
    4.3500    7.1940   16.1560 C   0  0  0  0  0  0  0  0  0  0  0  0
    3.3638    6.6750   14.7354 S   0  0  0  0  0  0  0  0  0  0  0  0
    6.0653    7.0699   21.3260 C   0  0  0  0  0  0  0  0  0  0  0  0
    7.3353    7.8234   21.2154 N   0  0  0  0  0  0  0  0  0  0  0  0
    8.4523    7.4992   22.0127 C   0  0  0  0  0  0  0  0  0  0  0  0
    9.7077    8.2555   21.8923 C   0  0  0  0  0  0  0  0  0  0  0  0
    8.3722    6.5562   22.8320 O   0  0  0  0  0  0  0  0  0  0  0  0
    7.4234    8.6105   20.5415 H   0  0  0  0  0  0  0  0  0  0  0  0
    4.9165    8.0948   21.2498 C   0  0  0  0  0  0  0  0  0  0  0  0
    4.5463    8.3993   19.8322 C   0  0  0  0  0  0  0  0  0  0  0  0
    5.4196    9.3440   21.9424 C   0  0  0  0  0  0  0  0  0  0  0  0
 24 25  1  0  0  0
 25 23  1  0  0  0
 23 22  1  0  0  0
 22 17  1  0  0  0
 17 13  1  0  0  0
 13 14  1  0  0  0
 14 15  2  0  0  0
 14  1  1  0  0  0
  1  2  1  0  0  0
  2  3  1  0  0  0
  3  4  2  0  0  0
  4  5  1  0  0  0
  5  6  2  0  0  0
  6  7  1  0  0  0
  7  8  2  0  0  0
  8  9  1  0  0  0
  9 10  1  0  0  0
 10 11  1  0  0  0
 11 12  2  0  0  0
 11 26  1  0  0  0
 26 27  1  0  0  0
 27 28  1  0  0  0
 28 29  1  0  0  0
 28 30  2  0  0  0
 26 32  1  0  0  0
 32 33  1  0  0  0
 32 34  1  0  0  0
 17 18  1  0  0  0
 18 19  1  0  0  0
 18 20  2  0  0  0
 10  1  1  0  0  0
  8  3  1  0  0  0
 13 16  1  0  0  0
 27 31  1  0  0  0
 19 21  1  0  0  0
M  END
> <minimizedAffinity>
-7.26875

> <CNNscore>
0.3345189989

> <CNNaffinity>
5.9248170853

> <CNN_VS>
1.9819638729

> <CNNaffinity_variance>
0.1079259291

$$$$
[H]OC(=O)[C@@]([H])(N([H])C(=O)[C@@]1([H])N(C(=O)[C@@]([H])(N([H])C(=O)C([H])([H])[H])C([H])(C([H])([H])[H])C([H])([H])[H])C([H])([H])c2c([H])c([H])c([H])c([H])c2C1([H])[H])C([H])([H])C([H])([H])SC([H])([H])[H]


 34 35  0  0  0  0  0  0  0  0999 V2000
    4.8844    6.4272   21.6531 C   0  0  0  0  0  0  0  0  0  0  0  0
    3.9520    5.3801   22.2267 C   0  0  0  0  0  0  0  0  0  0  0  0
    4.3202    4.0322   21.7984 C   0  0  0  0  0  0  0  0  0  0  0  0
    3.9420    2.9688   22.5751 C   0  0  0  0  0  0  0  0  0  0  0  0
    4.2564    1.6650   22.2425 C   0  0  0  0  0  0  0  0  0  0  0  0
    4.9765    1.4325   21.0869 C   0  0  0  0  0  0  0  0  0  0  0  0
    5.3621    2.4864   20.2990 C   0  0  0  0  0  0  0  0  0  0  0  0
    5.0301    3.8105   20.6575 C   0  0  0  0  0  0  0  0  0  0  0  0
    5.4563    4.9155   19.7827 C   0  0  0  0  0  0  0  0  0  0  0  0
    5.0130    6.1769   20.2321 N   0  0  0  0  0  0  0  0  0  0  0  0
    4.6545    7.2562   19.3411 C   0  0  0  0  0  0  0  0  0  0  0  0
    4.2075    8.3410   19.8508 O   0  0  0  0  0  0  0  0  0  0  0  0
    6.6022    7.5771   23.1042 N   0  0  0  0  0  0  0  0  0  0  0  0
    6.1803    6.4678   22.3397 C   0  0  0  0  0  0  0  0  0  0  0  0
    6.9526    5.4844   22.2516 O   0  0  0  0  0  0  0  0  0  0  0  0
    5.9397    8.4055   23.1734 H   0  0  0  0  0  0  0  0  0  0  0  0
    7.8493    7.6718   23.7917 C   0  0  0  0  0  0  0  0  0  0  0  0
    7.6806    8.5402   24.9849 C   0  0  0  0  0  0  0  0  0  0  0  0
    6.3998    9.0469   25.2352 O   0  0  0  0  0  0  0  0  0  0  0  0
    8.6488    8.7958   25.7202 O   0  0  0  0  0  0  0  0  0  0  0  0
    5.8949    8.7642   26.0832 H   0  0  0  0  0  0  0  0  0  0  0  0
    8.9644    8.2196   22.9297 C   0  0  0  0  0  0  0  0  0  0  0  0
    8.5712    9.5098   22.2502 C   0  0  0  0  0  0  0  0  0  0  0  0
    8.8954    7.4976   20.0597 C   0  0  0  0  0  0  0  0  0  0  0  0
    8.2699    9.1328   20.5011 S   0  0  0  0  0  0  0  0  0  0  0  0
    4.7615    7.2098   17.8848 C   0  0  0  0  0  0  0  0  0  0  0  0
    3.4909    6.6826   17.3367 N   0  0  0  0  0  0  0  0  0  0  0  0
    3.4537    5.4850   16.5932 C   0  0  0  0  0  0  0  0  0  0  0  0
    2.1848    4.9725   16.0550 C   0  0  0  0  0  0  0  0  0  0  0  0
    4.5144    4.8522   16.3900 O   0  0  0  0  0  0  0  0  0  0  0  0
    2.5982    7.1925   17.4935 H   0  0  0  0  0  0  0  0  0  0  0  0
    4.9681    8.6168   17.2901 C   0  0  0  0  0  0  0  0  0  0  0  0
    4.1930    8.7957   16.0226 C   0  0  0  0  0  0  0  0  0  0  0  0
    6.4529    8.7471   17.0219 C   0  0  0  0  0  0  0  0  0  0  0  0
 24 25  1  0  0  0
 25 23  1  0  0  0
 23 22  1  0  0  0
 22 17  1  0  0  0
 17 13  1  0  0  0
 13 14  1  0  0  0
 14 15  2  0  0  0
 14  1  1  0  0  0
  1  2  1  0  0  0
  2  3  1  0  0  0
  3  4  2  0  0  0
  4  5  1  0  0  0
  5  6  2  0  0  0
  6  7  1  0  0  0
  7  8  2  0  0  0
  8  9  1  0  0  0
  9 10  1  0  0  0
 10 11  1  0  0  0
 11 12  2  0  0  0
 11 26  1  0  0  0
 26 27  1  0  0  0
 27 28  1  0  0  0
 28 29  1  0  0  0
 28 30  2  0  0  0
 26 32  1  0  0  0
 32 33  1  0  0  0
 32 34  1  0  0  0
 17 18  1  0  0  0
 18 19  1  0  0  0
 18 20  2  0  0  0
 10  1  1  0  0  0
  8  3  1  0  0  0
 13 16  1  0  0  0
 27 31  1  0  0  0
 19 21  1  0  0  0
M  END
> <minimizedAffinity>
-7.95069

> <CNNscore>
0.3261399567

> <CNNaffinity>
5.9000496864

> <CNN_VS>
1.9242419004

> <CNNaffinity_variance>
0.0643518269

$$$$
[H]OC(=O)[C@@]([H])(N([H])C(=O)[C@@]1([H])N(C(=O)[C@@]([H])(N([H])C(=O)C([H])([H])[H])C([H])(C([H])([H])[H])C([H])([H])[H])C([H])([H])c2c([H])c([H])c([H])c([H])c2C1([H])[H])C([H])([H])C([H])([H])SC([H])([H])[H]


 34 35  0  0  0  0  0  0  0  0999 V2000
    3.7585    5.6843   18.7057 C   0  0  0  0  0  0  0  0  0  0  0  0
    3.5628    7.1857   18.6571 C   0  0  0  0  0  0  0  0  0  0  0  0
    4.7833    7.8793   18.2506 C   0  0  0  0  0  0  0  0  0  0  0  0
    4.6758    9.1200   17.6796 C   0  0  0  0  0  0  0  0  0  0  0  0
    5.7807    9.8375   17.2629 C   0  0  0  0  0  0  0  0  0  0  0  0
    7.0332    9.2795   17.4304 C   0  0  0  0  0  0  0  0  0  0  0  0
    7.1572    8.0387   18.0005 C   0  0  0  0  0  0  0  0  0  0  0  0
    6.0150    7.3230   18.4192 C   0  0  0  0  0  0  0  0  0  0  0  0
    6.1888    5.9960   19.0329 C   0  0  0  0  0  0  0  0  0  0  0  0
    4.9718    5.4183   19.4510 N   0  0  0  0  0  0  0  0  0  0  0  0
    4.8540    4.5701   20.6146 C   0  0  0  0  0  0  0  0  0  0  0  0
    3.6924    4.1451   20.9408 O   0  0  0  0  0  0  0  0  0  0  0  0
    2.6472    5.0988   16.5146 N   0  0  0  0  0  0  0  0  0  0  0  0
    3.7679    5.0716   17.3726 C   0  0  0  0  0  0  0  0  0  0  0  0
    4.8064    4.4981   16.9681 O   0  0  0  0  0  0  0  0  0  0  0  0
    1.7717    5.5882   16.8666 H   0  0  0  0  0  0  0  0  0  0  0  0
    2.5992    4.5201   15.2109 C   0  0  0  0  0  0  0  0  0  0  0  0
    1.7226    5.3492   14.3443 C   0  0  0  0  0  0  0  0  0  0  0  0
    0.8194    6.2098   14.9795 O   0  0  0  0  0  0  0  0  0  0  0  0
    1.8019    5.2689   13.1071 O   0  0  0  0  0  0  0  0  0  0  0  0
    0.9176    7.2257   14.8694 H   0  0  0  0  0  0  0  0  0  0  0  0
    2.0963    3.0942   15.2103 C   0  0  0  0  0  0  0  0  0  0  0  0
    3.2277    2.0961   15.2800 C   0  0  0  0  0  0  0  0  0  0  0  0
    4.0234    1.2361   18.0331 C   0  0  0  0  0  0  0  0  0  0  0  0
    2.8780    0.9739   16.6622 S   0  0  0  0  0  0  0  0  0  0  0  0
    5.9683    4.1523   21.4620 C   0  0  0  0  0  0  0  0  0  0  0  0
    6.1766    5.1816   22.5060 N   0  0  0  0  0  0  0  0  0  0  0  0
    7.2521    6.0909   22.4352 C   0  0  0  0  0  0  0  0  0  0  0  0
    7.4470    7.1086   23.4787 C   0  0  0  0  0  0  0  0  0  0  0  0
    8.0491    6.0294   21.4720 O   0  0  0  0  0  0  0  0  0  0  0  0
    5.5266    5.2501   23.3148 H   0  0  0  0  0  0  0  0  0  0  0  0
    5.6610    2.8247   22.1825 C   0  0  0  0  0  0  0  0  0  0  0  0
    5.7929    2.9629   23.6668 C   0  0  0  0  0  0  0  0  0  0  0  0
    6.6628    1.8181   21.6566 C   0  0  0  0  0  0  0  0  0  0  0  0
 24 25  1  0  0  0
 25 23  1  0  0  0
 23 22  1  0  0  0
 22 17  1  0  0  0
 17 13  1  0  0  0
 13 14  1  0  0  0
 14 15  2  0  0  0
 14  1  1  0  0  0
  1  2  1  0  0  0
  2  3  1  0  0  0
  3  4  2  0  0  0
  4  5  1  0  0  0
  5  6  2  0  0  0
  6  7  1  0  0  0
  7  8  2  0  0  0
  8  9  1  0  0  0
  9 10  1  0  0  0
 10 11  1  0  0  0
 11 12  2  0  0  0
 11 26  1  0  0  0
 26 27  1  0  0  0
 27 28  1  0  0  0
 28 29  1  0  0  0
 28 30  2  0  0  0
 26 32  1  0  0  0
 32 33  1  0  0  0
 32 34  1  0  0  0
 17 18  1  0  0  0
 18 19  1  0  0  0
 18 20  2  0  0  0
 10  1  1  0  0  0
  8  3  1  0  0  0
 13 16  1  0  0  0
 27 31  1  0  0  0
 19 21  1  0  0  0
M  END
> <minimizedAffinity>
-6.58551

> <CNNscore>
0.3248270750

> <CNNaffinity>
5.9802026749

> <CNN_VS>
1.9425317049

> <CNNaffinity_variance>
0.3792403340

$$$$
[H]OC(=O)[C@@]([H])(N([H])C(=O)[C@@]1([H])N(C(=O)[C@@]([H])(N([H])C(=O)C([H])([H])[H])C([H])(C([H])([H])[H])C([H])([H])[H])C([H])([H])c2c([H])c([H])c([H])c([H])c2C1([H])[H])C([H])([H])C([H])([H])SC([H])([H])[H]


 34 35  0  0  0  0  0  0  0  0999 V2000
    3.8162    7.3691   18.4051 C   0  0  0  0  0  0  0  0  0  0  0  0
    4.4696    8.1294   19.5408 C   0  0  0  0  0  0  0  0  0  0  0  0
    5.9178    7.9340   19.5625 C   0  0  0  0  0  0  0  0  0  0  0  0
    6.7015    8.8883   20.1560 C   0  0  0  0  0  0  0  0  0  0  0  0
    8.0779    8.7804   20.2123 C   0  0  0  0  0  0  0  0  0  0  0  0
    8.6779    7.6709   19.6494 C   0  0  0  0  0  0  0  0  0  0  0  0
    7.9070    6.7071   19.0520 C   0  0  0  0  0  0  0  0  0  0  0  0
    6.5024    6.8372   19.0058 C   0  0  0  0  0  0  0  0  0  0  0  0
    5.7078    5.7784   18.3612 C   0  0  0  0  0  0  0  0  0  0  0  0
    4.3184    6.0106   18.4331 N   0  0  0  0  0  0  0  0  0  0  0  0
    3.3417    4.9528   18.5524 C   0  0  0  0  0  0  0  0  0  0  0  0
    2.1093    5.2749   18.6700 O   0  0  0  0  0  0  0  0  0  0  0  0
    3.6008    7.4267   15.8894 N   0  0  0  0  0  0  0  0  0  0  0  0
    4.0119    8.0177   17.1037 C   0  0  0  0  0  0  0  0  0  0  0  0
    4.5650    9.1414   17.0552 O   0  0  0  0  0  0  0  0  0  0  0  0
    3.1320    6.4741   15.9414 H   0  0  0  0  0  0  0  0  0  0  0  0
    3.7657    8.0099   14.5972 C   0  0  0  0  0  0  0  0  0  0  0  0
    2.5004    8.6806   14.2028 C   0  0  0  0  0  0  0  0  0  0  0  0
    1.3124    7.9577   14.3639 O   0  0  0  0  0  0  0  0  0  0  0  0
    2.5150    9.8374   13.7500 O   0  0  0  0  0  0  0  0  0  0  0  0
    0.6032    8.2820   15.0315 H   0  0  0  0  0  0  0  0  0  0  0  0
    4.1497    7.0049   13.5348 C   0  0  0  0  0  0  0  0  0  0  0  0
    3.4695    5.6729   13.7450 C   0  0  0  0  0  0  0  0  0  0  0  0
    1.4439    5.8114   11.5473 C   0  0  0  0  0  0  0  0  0  0  0  0
    2.9799    5.0493   12.1130 S   0  0  0  0  0  0  0  0  0  0  0  0
    3.6502    3.5247   18.5504 C   0  0  0  0  0  0  0  0  0  0  0  0
    4.0633    3.1350   17.1829 N   0  0  0  0  0  0  0  0  0  0  0  0
    3.1256    2.6704   16.2377 C   0  0  0  0  0  0  0  0  0  0  0  0
    3.5494    2.2871   14.8828 C   0  0  0  0  0  0  0  0  0  0  0  0
    1.9186    2.5839   16.5579 O   0  0  0  0  0  0  0  0  0  0  0  0
    5.0609    3.1987   16.8960 H   0  0  0  0  0  0  0  0  0  0  0  0
    4.8255    3.2011   19.4937 C   0  0  0  0  0  0  0  0  0  0  0  0
    5.1425    1.7386   19.4933 C   0  0  0  0  0  0  0  0  0  0  0  0
    4.3918    3.6452   20.8750 C   0  0  0  0  0  0  0  0  0  0  0  0
 24 25  1  0  0  0
 25 23  1  0  0  0
 23 22  1  0  0  0
 22 17  1  0  0  0
 17 13  1  0  0  0
 13 14  1  0  0  0
 14 15  2  0  0  0
 14  1  1  0  0  0
  1  2  1  0  0  0
  2  3  1  0  0  0
  3  4  2  0  0  0
  4  5  1  0  0  0
  5  6  2  0  0  0
  6  7  1  0  0  0
  7  8  2  0  0  0
  8  9  1  0  0  0
  9 10  1  0  0  0
 10 11  1  0  0  0
 11 12  2  0  0  0
 11 26  1  0  0  0
 26 27  1  0  0  0
 27 28  1  0  0  0
 28 29  1  0  0  0
 28 30  2  0  0  0
 26 32  1  0  0  0
 32 33  1  0  0  0
 32 34  1  0  0  0
 17 18  1  0  0  0
 18 19  1  0  0  0
 18 20  2  0  0  0
 10  1  1  0  0  0
  8  3  1  0  0  0
 13 16  1  0  0  0
 27 31  1  0  0  0
 19 21  1  0  0  0
M  END
> <minimizedAffinity>
-6.20569

> <CNNscore>
0.3218927383

> <CNNaffinity>
5.7425971031

> <CNN_VS>
1.8485002518

> <CNNaffinity_variance>
0.2122890949

$$$$
[H]OC(=O)[C@@]([H])(N([H])C(=O)[C@@]1([H])N(C(=O)[C@@]([H])(N([H])C(=O)C([H])([H])[H])C([H])(C([H])([H])[H])C([H])([H])[H])C([H])([H])c2c([H])c([H])c([H])c([H])c2C1([H])[H])C([H])([H])C([H])([H])SC([H])([H])[H]


 34 35  0  0  0  0  0  0  0  0999 V2000
    5.4365    4.1218   19.1289 C   0  0  0  0  0  0  0  0  0  0  0  0
    5.8220    3.1102   20.1886 C   0  0  0  0  0  0  0  0  0  0  0  0
    4.9594    3.2008   21.3649 C   0  0  0  0  0  0  0  0  0  0  0  0
    4.8219    2.0981   22.1662 C   0  0  0  0  0  0  0  0  0  0  0  0
    4.0206    2.1009   23.2920 C   0  0  0  0  0  0  0  0  0  0  0  0
    3.3380    3.2575   23.6150 C   0  0  0  0  0  0  0  0  0  0  0  0
    3.4656    4.3695   22.8230 C   0  0  0  0  0  0  0  0  0  0  0  0
    4.2896    4.3447   21.6773 C   0  0  0  0  0  0  0  0  0  0  0  0
    4.4063    5.5605   20.8550 C   0  0  0  0  0  0  0  0  0  0  0  0
    5.3006    5.4115   19.7745 N   0  0  0  0  0  0  0  0  0  0  0  0
    6.1219    6.4874   19.2693 C   0  0  0  0  0  0  0  0  0  0  0  0
    6.9435    6.2310   18.3231 O   0  0  0  0  0  0  0  0  0  0  0  0
    4.1214    2.4959   17.7128 N   0  0  0  0  0  0  0  0  0  0  0  0
    4.2331    3.7318   18.3856 C   0  0  0  0  0  0  0  0  0  0  0  0
    3.2588    4.5189   18.3388 O   0  0  0  0  0  0  0  0  0  0  0  0
    4.9528    1.8352   17.7592 H   0  0  0  0  0  0  0  0  0  0  0  0
    2.9780    2.0648   16.9753 C   0  0  0  0  0  0  0  0  0  0  0  0
    2.7893    0.6060   17.1820 C   0  0  0  0  0  0  0  0  0  0  0  0
    1.5322    0.1767   17.6238 O   0  0  0  0  0  0  0  0  0  0  0  0
    3.7213   -0.1867   16.9663 O   0  0  0  0  0  0  0  0  0  0  0  0
    0.9536   -0.4178   17.0192 H   0  0  0  0  0  0  0  0  0  0  0  0
    3.0829    2.3493   15.4939 C   0  0  0  0  0  0  0  0  0  0  0  0
    2.2623    3.5511   15.0900 C   0  0  0  0  0  0  0  0  0  0  0  0
    2.7627    4.7594   12.3989 C   0  0  0  0  0  0  0  0  0  0  0  0
    1.9542    3.4242   13.3064 S   0  0  0  0  0  0  0  0  0  0  0  0
    6.0913    7.8639   19.7580 C   0  0  0  0  0  0  0  0  0  0  0  0
    4.8705    8.5205   19.2373 N   0  0  0  0  0  0  0  0  0  0  0  0
    4.8693    9.1870   17.9945 C   0  0  0  0  0  0  0  0  0  0  0  0
    3.6497    9.8345   17.4890 C   0  0  0  0  0  0  0  0  0  0  0  0
    5.9199    9.2266   17.3152 O   0  0  0  0  0  0  0  0  0  0  0  0
    3.9870    8.4999   19.7855 H   0  0  0  0  0  0  0  0  0  0  0  0
    6.0174    7.9138   21.2968 C   0  0  0  0  0  0  0  0  0  0  0  0
    5.4153    9.1974   21.7757 C   0  0  0  0  0  0  0  0  0  0  0  0
    7.4429    7.7844   21.7916 C   0  0  0  0  0  0  0  0  0  0  0  0
 24 25  1  0  0  0
 25 23  1  0  0  0
 23 22  1  0  0  0
 22 17  1  0  0  0
 17 13  1  0  0  0
 13 14  1  0  0  0
 14 15  2  0  0  0
 14  1  1  0  0  0
  1  2  1  0  0  0
  2  3  1  0  0  0
  3  4  2  0  0  0
  4  5  1  0  0  0
  5  6  2  0  0  0
  6  7  1  0  0  0
  7  8  2  0  0  0
  8  9  1  0  0  0
  9 10  1  0  0  0
 10 11  1  0  0  0
 11 12  2  0  0  0
 11 26  1  0  0  0
 26 27  1  0  0  0
 27 28  1  0  0  0
 28 29  1  0  0  0
 28 30  2  0  0  0
 26 32  1  0  0  0
 32 33  1  0  0  0
 32 34  1  0  0  0
 17 18  1  0  0  0
 18 19  1  0  0  0
 18 20  2  0  0  0
 10  1  1  0  0  0
  8  3  1  0  0  0
 13 16  1  0  0  0
 27 31  1  0  0  0
 19 21  1  0  0  0
M  END
> <minimizedAffinity>
-6.96434

> <CNNscore>
0.3179317415

> <CNNaffinity>
5.9801349640

> <CNN_VS>
1.9012746811

> <CNNaffinity_variance>
0.1226558834

$$$$
[H]OC(=O)[C@@]([H])(N([H])C(=O)[C@@]1([H])N(C(=O)[C@@]([H])(N([H])C(=O)C([H])([H])[H])C([H])(C([H])([H])[H])C([H])([H])[H])C([H])([H])c2c([H])c([H])c([H])c([H])c2C1([H])[H])C([H])([H])C([H])([H])SC([H])([H])[H]


 34 35  0  0  0  0  0  0  0  0999 V2000
    3.5551    4.7805   18.4058 C   0  0  0  0  0  0  0  0  0  0  0  0
    2.3229    4.2684   17.6887 C   0  0  0  0  0  0  0  0  0  0  0  0
    2.6537    3.6846   16.3904 C   0  0  0  0  0  0  0  0  0  0  0  0
    1.8023    2.7573   15.8498 C   0  0  0  0  0  0  0  0  0  0  0  0
    2.0471    2.1548   14.6306 C   0  0  0  0  0  0  0  0  0  0  0  0
    3.1905    2.5036   13.9384 C   0  0  0  0  0  0  0  0  0  0  0  0
    4.0522    3.4303   14.4661 C   0  0  0  0  0  0  0  0  0  0  0  0
    3.7828    4.0336   15.7133 C   0  0  0  0  0  0  0  0  0  0  0  0
    4.7286    5.0291   16.2445 C   0  0  0  0  0  0  0  0  0  0  0  0
    4.3102    5.5882   17.4699 N   0  0  0  0  0  0  0  0  0  0  0  0
    4.5803    6.9549   17.8525 C   0  0  0  0  0  0  0  0  0  0  0  0
    4.1045    7.3803   18.9611 O   0  0  0  0  0  0  0  0  0  0  0  0
    3.7785    2.6293   19.7100 N   0  0  0  0  0  0  0  0  0  0  0  0
    4.3554    3.7018   18.9960 C   0  0  0  0  0  0  0  0  0  0  0  0
    5.6021    3.7221   18.8680 O   0  0  0  0  0  0  0  0  0  0  0  0
    2.7204    2.6208   19.8122 H   0  0  0  0  0  0  0  0  0  0  0  0
    4.5062    1.5552   20.3048 C   0  0  0  0  0  0  0  0  0  0  0  0
    3.6865    0.3182   20.2376 C   0  0  0  0  0  0  0  0  0  0  0  0
    3.8453   -0.6148   21.2691 O   0  0  0  0  0  0  0  0  0  0  0  0
    2.8968    0.1361   19.2960 O   0  0  0  0  0  0  0  0  0  0  0  0
    3.0612   -0.8179   21.8997 H   0  0  0  0  0  0  0  0  0  0  0  0
    4.8912    1.8210   21.7426 C   0  0  0  0  0  0  0  0  0  0  0  0
    3.8351    2.6167   22.4724 C   0  0  0  0  0  0  0  0  0  0  0  0
    6.2273    4.3953   22.2150 C   0  0  0  0  0  0  0  0  0  0  0  0
    4.5515    4.2361   22.8680 S   0  0  0  0  0  0  0  0  0  0  0  0
    5.3628    7.9052   17.0656 C   0  0  0  0  0  0  0  0  0  0  0  0
    4.4359    8.8850   16.4544 N   0  0  0  0  0  0  0  0  0  0  0  0
    4.1450    8.8579   15.0749 C   0  0  0  0  0  0  0  0  0  0  0  0
    3.2222    9.8367   14.4809 C   0  0  0  0  0  0  0  0  0  0  0  0
    4.6798    7.9895   14.3490 O   0  0  0  0  0  0  0  0  0  0  0  0
    3.9810    9.6150   17.0390 H   0  0  0  0  0  0  0  0  0  0  0  0
    6.3457    8.6955   17.9517 C   0  0  0  0  0  0  0  0  0  0  0  0
    6.9954    9.8091   17.1920 C   0  0  0  0  0  0  0  0  0  0  0  0
    7.3865    7.6995   18.4186 C   0  0  0  0  0  0  0  0  0  0  0  0
 24 25  1  0  0  0
 25 23  1  0  0  0
 23 22  1  0  0  0
 22 17  1  0  0  0
 17 13  1  0  0  0
 13 14  1  0  0  0
 14 15  2  0  0  0
 14  1  1  0  0  0
  1  2  1  0  0  0
  2  3  1  0  0  0
  3  4  2  0  0  0
  4  5  1  0  0  0
  5  6  2  0  0  0
  6  7  1  0  0  0
  7  8  2  0  0  0
  8  9  1  0  0  0
  9 10  1  0  0  0
 10 11  1  0  0  0
 11 12  2  0  0  0
 11 26  1  0  0  0
 26 27  1  0  0  0
 27 28  1  0  0  0
 28 29  1  0  0  0
 28 30  2  0  0  0
 26 32  1  0  0  0
 32 33  1  0  0  0
 32 34  1  0  0  0
 17 18  1  0  0  0
 18 19  1  0  0  0
 18 20  2  0  0  0
 10  1  1  0  0  0
  8  3  1  0  0  0
 13 16  1  0  0  0
 27 31  1  0  0  0
 19 21  1  0  0  0
M  END
> <minimizedAffinity>
-6.16011

> <CNNscore>
0.3066783249

> <CNNaffinity>
5.8983774185

> <CNN_VS>
1.8089045286

> <CNNaffinity_variance>
0.1019251347

$$$$
[H]OC(=O)[C@@]([H])(N([H])C(=O)[C@@]1([H])N(C(=O)[C@@]([H])(N([H])C(=O)C([H])([H])[H])C([H])(C([H])([H])[H])C([H])([H])[H])C([H])([H])c2c([H])c([H])c([H])c([H])c2C1([H])[H])C([H])([H])C([H])([H])SC([H])([H])[H]


 34 35  0  0  0  0  0  0  0  0999 V2000
    5.8269    5.0798   18.7031 C   0  0  0  0  0  0  0  0  0  0  0  0
    6.6187    6.3712   18.7162 C   0  0  0  0  0  0  0  0  0  0  0  0
    5.7506    7.5389   18.8539 C   0  0  0  0  0  0  0  0  0  0  0  0
    6.2763    8.6916   19.3754 C   0  0  0  0  0  0  0  0  0  0  0  0
    5.5202    9.8359   19.5436 C   0  0  0  0  0  0  0  0  0  0  0  0
    4.1902    9.8103   19.1714 C   0  0  0  0  0  0  0  0  0  0  0  0
    3.6496    8.6642   18.6477 C   0  0  0  0  0  0  0  0  0  0  0  0
    4.4402    7.5064   18.4845 C   0  0  0  0  0  0  0  0  0  0  0  0
    3.8257    6.2967   17.9127 C   0  0  0  0  0  0  0  0  0  0  0  0
    4.7405    5.2344   17.7575 N   0  0  0  0  0  0  0  0  0  0  0  0
    4.6695    4.2768   16.6781 C   0  0  0  0  0  0  0  0  0  0  0  0
    5.5842    3.3864   16.5954 O   0  0  0  0  0  0  0  0  0  0  0  0
    4.0439    4.2502   20.2878 N   0  0  0  0  0  0  0  0  0  0  0  0
    5.3629    4.6873   20.0385 C   0  0  0  0  0  0  0  0  0  0  0  0
    6.1600    4.7377   21.0045 O   0  0  0  0  0  0  0  0  0  0  0  0
    3.3760    4.2103   19.4619 H   0  0  0  0  0  0  0  0  0  0  0  0
    3.5382    3.8576   21.5634 C   0  0  0  0  0  0  0  0  0  0  0  0
    3.8794    4.9023   22.5628 C   0  0  0  0  0  0  0  0  0  0  0  0
    3.7910    6.2378   22.1524 O   0  0  0  0  0  0  0  0  0  0  0  0
    4.2273    4.5847   23.7124 O   0  0  0  0  0  0  0  0  0  0  0  0
    3.1017    6.8617   22.5876 H   0  0  0  0  0  0  0  0  0  0  0  0
    4.0754    2.5243   22.0323 C   0  0  0  0  0  0  0  0  0  0  0  0
    3.9396    1.4564   20.9730 C   0  0  0  0  0  0  0  0  0  0  0  0
    6.8050    1.4561   21.8342 C   0  0  0  0  0  0  0  0  0  0  0  0
    5.5763    0.7076   20.7433 S   0  0  0  0  0  0  0  0  0  0  0  0
    3.6242    4.2415   15.6580 C   0  0  0  0  0  0  0  0  0  0  0  0
    4.0716    5.0466   14.4985 N   0  0  0  0  0  0  0  0  0  0  0  0
    3.3594    6.1898   14.0808 C   0  0  0  0  0  0  0  0  0  0  0  0
    3.8151    6.9806   12.9278 C   0  0  0  0  0  0  0  0  0  0  0  0
    2.3274    6.5337   14.7001 O   0  0  0  0  0  0  0  0  0  0  0  0
    4.9260    4.7785   13.9697 H   0  0  0  0  0  0  0  0  0  0  0  0
    3.3793    2.8063   15.1519 C   0  0  0  0  0  0  0  0  0  0  0  0
    2.9235    2.7975   13.7266 C   0  0  0  0  0  0  0  0  0  0  0  0
    2.3103    2.2194   16.0499 C   0  0  0  0  0  0  0  0  0  0  0  0
 24 25  1  0  0  0
 25 23  1  0  0  0
 23 22  1  0  0  0
 22 17  1  0  0  0
 17 13  1  0  0  0
 13 14  1  0  0  0
 14 15  2  0  0  0
 14  1  1  0  0  0
  1  2  1  0  0  0
  2  3  1  0  0  0
  3  4  2  0  0  0
  4  5  1  0  0  0
  5  6  2  0  0  0
  6  7  1  0  0  0
  7  8  2  0  0  0
  8  9  1  0  0  0
  9 10  1  0  0  0
 10 11  1  0  0  0
 11 12  2  0  0  0
 11 26  1  0  0  0
 26 27  1  0  0  0
 27 28  1  0  0  0
 28 29  1  0  0  0
 28 30  2  0  0  0
 26 32  1  0  0  0
 32 33  1  0  0  0
 32 34  1  0  0  0
 17 18  1  0  0  0
 18 19  1  0  0  0
 18 20  2  0  0  0
 10  1  1  0  0  0
  8  3  1  0  0  0
 13 16  1  0  0  0
 27 31  1  0  0  0
 19 21  1  0  0  0
M  END
> <minimizedAffinity>
-7.07361

> <CNNscore>
0.2979085445

> <CNNaffinity>
5.7493195534

> <CNN_VS>
1.7127714157

> <CNNaffinity_variance>
0.6013541222

$$$$
[H]C1=C2[C@]([H])(C([H])([H])C([H])([H])[H])C([H])([H])[C@]3([H])[C@]([H])(C([H])([H])C([H])([H])[C@]4(C([H])([H])[H])[C@@]([H])(C([H])([H])[H])C([H])([H])C([H])([H])C([H])([H])[C@@]34[H])[C@@]2(C([H])([H])[H])C([H])([H])C([H])([H])C1=O


 24 27  0  0  0  0  0  0  0  0999 V2000
    3.5006    1.5531   20.1700 C   0  0  0  0  0  0  0  0  0  0  0  0
    4.3681    1.9730   18.9910 C   0  0  0  0  0  0  0  0  0  0  0  0
    4.4431    3.4479   18.8079 C   0  0  0  0  0  0  0  0  0  0  0  0
    3.7325    3.9576   17.5765 C   0  0  0  0  0  0  0  0  0  0  0  0
    3.9706    3.1282   16.3710 C   0  0  0  0  0  0  0  0  0  0  0  0
    4.1943    3.8771   15.1072 C   0  0  0  0  0  0  0  0  0  0  0  0
    3.2878    5.0587   15.0580 C   0  0  0  0  0  0  0  0  0  0  0  0
    3.4856    6.0275   16.1742 C   0  0  0  0  0  0  0  0  0  0  0  0
    4.2601    7.2062   15.6583 C   0  0  0  0  0  0  0  0  0  0  0  0
    4.0997    5.4123   17.4121 C   0  0  0  0  0  0  0  0  0  0  0  0
    5.6140    5.6001   17.4419 C   0  0  0  0  0  0  0  0  0  0  0  0
    3.5568    6.1996   18.5872 C   0  0  0  0  0  0  0  0  0  0  0  0
    3.9454    5.6337   19.9148 C   0  0  0  0  0  0  0  0  0  0  0  0
    3.8287    4.1509   19.9980 C   0  0  0  0  0  0  0  0  0  0  0  0
    4.4331    3.6273   21.2639 C   0  0  0  0  0  0  0  0  0  0  0  0
    5.9463    3.6466   21.2239 C   0  0  0  0  0  0  0  0  0  0  0  0
    3.9035    4.4391   22.4206 C   0  0  0  0  0  0  0  0  0  0  0  0
    4.3903    3.9032   23.7506 C   0  0  0  0  0  0  0  0  0  0  0  0
    4.4798    2.4113   23.7209 C   0  0  0  0  0  0  0  0  0  0  0  0
    4.9796    1.8364   24.6977 O   0  0  0  0  0  0  0  0  0  0  0  0
    3.9956    1.6463   22.5806 C   0  0  0  0  0  0  0  0  0  0  0  0
    3.9661    2.2100   21.4066 C   0  0  0  0  0  0  0  0  0  0  0  0
    2.5000   -0.5827   19.4139 C   0  0  0  0  0  0  0  0  0  0  0  0
    3.5990    0.0386   20.2589 C   0  0  0  0  0  0  0  0  0  0  0  0
 23 24  1  0  0  0
 24  1  1  0  0  0
  1  2  1  0  0  0
  2  3  1  0  0  0
  3  4  1  0  0  0
  4  5  1  0  0  0
  5  6  1  0  0  0
  6  7  1  0  0  0
  7  8  1  0  0  0
  8  9  1  0  0  0
  8 10  1  0  0  0
 10 11  1  0  0  0
 10 12  1  0  0  0
 12 13  1  0  0  0
 13 14  1  0  0  0
 14 15  1  0  0  0
 15 16  1  0  0  0
 15 17  1  0  0  0
 17 18  1  0  0  0
 18 19  1  0  0  0
 19 20  2  0  0  0
 19 21  1  0  0  0
 21 22  2  0  0  0
 22  1  1  0  0  0
 14  3  1  0  0  0
 22 15  1  0  0  0
 10  4  1  0  0  0
M  END
> <minimizedAffinity>
-8.90040

> <CNNscore>
0.5699082017

> <CNNaffinity>
6.6811690331

> <CNN_VS>
3.8076529503

> <CNNaffinity_variance>
0.1717505306

$$$$
[H]C1=C2[C@]([H])(C([H])([H])C([H])([H])[H])C([H])([H])[C@]3([H])[C@]([H])(C([H])([H])C([H])([H])[C@]4(C([H])([H])[H])[C@@]([H])(C([H])([H])[H])C([H])([H])C([H])([H])C([H])([H])[C@@]34[H])[C@@]2(C([H])([H])[H])C([H])([H])C([H])([H])C1=O


 24 27  0  0  0  0  0  0  0  0999 V2000
    4.7918    1.9549   20.1233 C   0  0  0  0  0  0  0  0  0  0  0  0
    4.4969    3.3008   20.7719 C   0  0  0  0  0  0  0  0  0  0  0  0
    4.9335    4.4616   19.9496 C   0  0  0  0  0  0  0  0  0  0  0  0
    6.1059    5.2223   20.5223 C   0  0  0  0  0  0  0  0  0  0  0  0
    6.0073    5.4468   21.9844 C   0  0  0  0  0  0  0  0  0  0  0  0
    6.4192    6.7933   22.4590 C   0  0  0  0  0  0  0  0  0  0  0  0
    7.6114    7.2519   21.6916 C   0  0  0  0  0  0  0  0  0  0  0  0
    7.3863    7.3628   20.2218 C   0  0  0  0  0  0  0  0  0  0  0  0
    7.2033    8.8114   19.8698 C   0  0  0  0  0  0  0  0  0  0  0  0
    6.2669    6.4839   19.7096 C   0  0  0  0  0  0  0  0  0  0  0  0
    4.9484    7.2472   19.6189 C   0  0  0  0  0  0  0  0  0  0  0  0
    6.6370    6.1168   18.2870 C   0  0  0  0  0  0  0  0  0  0  0  0
    5.7087    5.1233   17.6667 C   0  0  0  0  0  0  0  0  0  0  0  0
    5.3379    3.9968   18.5682 C   0  0  0  0  0  0  0  0  0  0  0  0
    4.2466    3.1609   17.9746 C   0  0  0  0  0  0  0  0  0  0  0  0
    2.8992    3.8473   18.0468 C   0  0  0  0  0  0  0  0  0  0  0  0
    4.6178    2.8272   16.5505 C   0  0  0  0  0  0  0  0  0  0  0  0
    3.6093    1.8952   15.9122 C   0  0  0  0  0  0  0  0  0  0  0  0
    3.0841    0.9163   16.9125 C   0  0  0  0  0  0  0  0  0  0  0  0
    2.1598    0.1672   16.5674 O   0  0  0  0  0  0  0  0  0  0  0  0
    3.6369    0.8375   18.2572 C   0  0  0  0  0  0  0  0  0  0  0  0
    4.1936    1.8950   18.7757 C   0  0  0  0  0  0  0  0  0  0  0  0
    3.6370    1.5710   22.2805 C   0  0  0  0  0  0  0  0  0  0  0  0
    4.2156    0.8955   21.0489 C   0  0  0  0  0  0  0  0  0  0  0  0
 23 24  1  0  0  0
 24  1  1  0  0  0
  1  2  1  0  0  0
  2  3  1  0  0  0
  3  4  1  0  0  0
  4  5  1  0  0  0
  5  6  1  0  0  0
  6  7  1  0  0  0
  7  8  1  0  0  0
  8  9  1  0  0  0
  8 10  1  0  0  0
 10 11  1  0  0  0
 10 12  1  0  0  0
 12 13  1  0  0  0
 13 14  1  0  0  0
 14 15  1  0  0  0
 15 16  1  0  0  0
 15 17  1  0  0  0
 17 18  1  0  0  0
 18 19  1  0  0  0
 19 20  2  0  0  0
 19 21  1  0  0  0
 21 22  2  0  0  0
 22  1  1  0  0  0
 14  3  1  0  0  0
 22 15  1  0  0  0
 10  4  1  0  0  0
M  END
> <minimizedAffinity>
-9.19521

> <CNNscore>
0.5308795571

> <CNNaffinity>
6.4875183105

> <CNN_VS>
3.4440908432

> <CNNaffinity_variance>
0.2142978013

$$$$
[H]C1=C2[C@]([H])(C([H])([H])C([H])([H])[H])C([H])([H])[C@]3([H])[C@]([H])(C([H])([H])C([H])([H])[C@]4(C([H])([H])[H])[C@@]([H])(C([H])([H])[H])C([H])([H])C([H])([H])C([H])([H])[C@@]34[H])[C@@]2(C([H])([H])[H])C([H])([H])C([H])([H])C1=O


 24 27  0  0  0  0  0  0  0  0999 V2000
    2.9699    4.6328   17.5429 C   0  0  0  0  0  0  0  0  0  0  0  0
    4.1615    4.7972   18.4768 C   0  0  0  0  0  0  0  0  0  0  0  0
    4.3592    3.6408   19.3921 C   0  0  0  0  0  0  0  0  0  0  0  0
    4.0620    3.9391   20.8426 C   0  0  0  0  0  0  0  0  0  0  0  0
    4.5978    5.2437   21.2994 C   0  0  0  0  0  0  0  0  0  0  0  0
    5.2148    5.2495   22.6512 C   0  0  0  0  0  0  0  0  0  0  0  0
    4.4212    4.3833   23.5678 C   0  0  0  0  0  0  0  0  0  0  0  0
    4.3348    2.9577   23.1392 C   0  0  0  0  0  0  0  0  0  0  0  0
    5.2829    2.1449   23.9734 C   0  0  0  0  0  0  0  0  0  0  0  0
    4.5327    2.7561   21.6532 C   0  0  0  0  0  0  0  0  0  0  0  0
    5.9807    2.4073   21.3205 C   0  0  0  0  0  0  0  0  0  0  0  0
    3.7122    1.5381   21.2806 C   0  0  0  0  0  0  0  0  0  0  0  0
    3.6710    1.2739   19.8102 C   0  0  0  0  0  0  0  0  0  0  0  0
    3.4620    2.4942   18.9818 C   0  0  0  0  0  0  0  0  0  0  0  0
    3.6470    2.2017   17.5250 C   0  0  0  0  0  0  0  0  0  0  0  0
    5.1059    2.0319   17.1583 C   0  0  0  0  0  0  0  0  0  0  0  0
    2.8459    0.9712   17.1766 C   0  0  0  0  0  0  0  0  0  0  0  0
    2.8992    0.6691   15.6938 C   0  0  0  0  0  0  0  0  0  0  0  0
    2.9195    1.9325   14.8952 C   0  0  0  0  0  0  0  0  0  0  0  0
    3.0858    1.8472   13.6705 O   0  0  0  0  0  0  0  0  0  0  0  0
    2.7492    3.2321   15.5295 C   0  0  0  0  0  0  0  0  0  0  0  0
    3.0890    3.3761   16.7788 C   0  0  0  0  0  0  0  0  0  0  0  0
    4.0473    6.8157   17.0864 C   0  0  0  0  0  0  0  0  0  0  0  0
    2.9631    5.8520   16.6349 C   0  0  0  0  0  0  0  0  0  0  0  0
 23 24  1  0  0  0
 24  1  1  0  0  0
  1  2  1  0  0  0
  2  3  1  0  0  0
  3  4  1  0  0  0
  4  5  1  0  0  0
  5  6  1  0  0  0
  6  7  1  0  0  0
  7  8  1  0  0  0
  8  9  1  0  0  0
  8 10  1  0  0  0
 10 11  1  0  0  0
 10 12  1  0  0  0
 12 13  1  0  0  0
 13 14  1  0  0  0
 14 15  1  0  0  0
 15 16  1  0  0  0
 15 17  1  0  0  0
 17 18  1  0  0  0
 18 19  1  0  0  0
 19 20  2  0  0  0
 19 21  1  0  0  0
 21 22  2  0  0  0
 22  1  1  0  0  0
 14  3  1  0  0  0
 22 15  1  0  0  0
 10  4  1  0  0  0
M  END
> <minimizedAffinity>
-8.33607

> <CNNscore>
0.4798013568

> <CNNaffinity>
6.4532785416

> <CNN_VS>
3.0962917805

> <CNNaffinity_variance>
0.3060280979

$$$$
[H]C1=C2[C@]([H])(C([H])([H])C([H])([H])[H])C([H])([H])[C@]3([H])[C@]([H])(C([H])([H])C([H])([H])[C@]4(C([H])([H])[H])[C@@]([H])(C([H])([H])[H])C([H])([H])C([H])([H])C([H])([H])[C@@]34[H])[C@@]2(C([H])([H])[H])C([H])([H])C([H])([H])C1=O


 24 27  0  0  0  0  0  0  0  0999 V2000
    4.2472    2.4204   19.3744 C   0  0  0  0  0  0  0  0  0  0  0  0
    4.5694    2.2220   17.8993 C   0  0  0  0  0  0  0  0  0  0  0  0
    4.0648    3.3202   17.0311 C   0  0  0  0  0  0  0  0  0  0  0  0
    2.9248    2.9209   16.1244 C   0  0  0  0  0  0  0  0  0  0  0  0
    3.1190    1.6015   15.4769 C   0  0  0  0  0  0  0  0  0  0  0  0
    2.7242    1.5211   14.0465 C   0  0  0  0  0  0  0  0  0  0  0  0
    1.4779    2.3074   13.8259 C   0  0  0  0  0  0  0  0  0  0  0  0
    1.6022    3.7557   14.1583 C   0  0  0  0  0  0  0  0  0  0  0  0
    1.7441    4.5332   12.8812 C   0  0  0  0  0  0  0  0  0  0  0  0
    2.6948    4.0585   15.1596 C   0  0  0  0  0  0  0  0  0  0  0  0
    3.9951    4.4608   14.4692 C   0  0  0  0  0  0  0  0  0  0  0  0
    2.2340    5.2796   15.9291 C   0  0  0  0  0  0  0  0  0  0  0  0
    3.1300    5.6386   17.0701 C   0  0  0  0  0  0  0  0  0  0  0  0
    3.5738    4.4707   17.8815 C   0  0  0  0  0  0  0  0  0  0  0  0
    4.6324    4.8620   18.8655 C   0  0  0  0  0  0  0  0  0  0  0  0
    5.9735    5.0882   18.2005 C   0  0  0  0  0  0  0  0  0  0  0  0
    4.1702    6.0944   19.6036 C   0  0  0  0  0  0  0  0  0  0  0  0
    5.1443    6.4941   20.6919 C   0  0  0  0  0  0  0  0  0  0  0  0
    5.7470    5.2864   21.3344 C   0  0  0  0  0  0  0  0  0  0  0  0
    6.6546    5.4554   22.1603 O   0  0  0  0  0  0  0  0  0  0  0  0
    5.2869    3.9447   21.0055 C   0  0  0  0  0  0  0  0  0  0  0  0
    4.7540    3.7268   19.8370 C   0  0  0  0  0  0  0  0  0  0  0  0
    3.8218    0.4654   20.8343 C   0  0  0  0  0  0  0  0  0  0  0  0
    4.8968    1.2634   20.1163 C   0  0  0  0  0  0  0  0  0  0  0  0
 23 24  1  0  0  0
 24  1  1  0  0  0
  1  2  1  0  0  0
  2  3  1  0  0  0
  3  4  1  0  0  0
  4  5  1  0  0  0
  5  6  1  0  0  0
  6  7  1  0  0  0
  7  8  1  0  0  0
  8  9  1  0  0  0
  8 10  1  0  0  0
 10 11  1  0  0  0
 10 12  1  0  0  0
 12 13  1  0  0  0
 13 14  1  0  0  0
 14 15  1  0  0  0
 15 16  1  0  0  0
 15 17  1  0  0  0
 17 18  1  0  0  0
 18 19  1  0  0  0
 19 20  2  0  0  0
 19 21  1  0  0  0
 21 22  2  0  0  0
 22  1  1  0  0  0
 14  3  1  0  0  0
 22 15  1  0  0  0
 10  4  1  0  0  0
M  END
> <minimizedAffinity>
-8.87366

> <CNNscore>
0.4663004875

> <CNNaffinity>
6.3017449379

> <CNN_VS>
2.9385068417

> <CNNaffinity_variance>
0.1923658401

$$$$
[H]C1=C2[C@]([H])(C([H])([H])C([H])([H])[H])C([H])([H])[C@]3([H])[C@]([H])(C([H])([H])C([H])([H])[C@]4(C([H])([H])[H])[C@@]([H])(C([H])([H])[H])C([H])([H])C([H])([H])C([H])([H])[C@@]34[H])[C@@]2(C([H])([H])[H])C([H])([H])C([H])([H])C1=O


 24 27  0  0  0  0  0  0  0  0999 V2000
    0.7861   -0.3611    9.5156 C   0  0  0  0  0  0  0  0  0  0  0  0
    1.4979    0.4678    8.4547 C   0  0  0  0  0  0  0  0  0  0  0  0
    2.9608    0.2051    8.3824 C   0  0  0  0  0  0  0  0  0  0  0  0
    3.8215    1.3488    8.8642 C   0  0  0  0  0  0  0  0  0  0  0  0
    3.3630    2.6753    8.3868 C   0  0  0  0  0  0  0  0  0  0  0  0
    4.4337    3.6089    7.9505 C   0  0  0  0  0  0  0  0  0  0  0  0
    5.6074    3.4851    8.8601 C   0  0  0  0  0  0  0  0  0  0  0  0
    6.2116    2.1223    8.8961 C   0  0  0  0  0  0  0  0  0  0  0  0
    7.4643    2.1281    8.0677 C   0  0  0  0  0  0  0  0  0  0  0  0
    5.2509    1.0204    8.5077 C   0  0  0  0  0  0  0  0  0  0  0  0
    5.3763    0.6593    7.0301 C   0  0  0  0  0  0  0  0  0  0  0  0
    5.6870   -0.2093    9.2779 C   0  0  0  0  0  0  0  0  0  0  0  0
    4.7549   -1.3679    9.1289 C   0  0  0  0  0  0  0  0  0  0  0  0
    3.3141   -1.0014    9.2235 C   0  0  0  0  0  0  0  0  0  0  0  0
    2.4335   -2.1541    8.8521 C   0  0  0  0  0  0  0  0  0  0  0  0
    2.4173   -2.4012    7.3587 C   0  0  0  0  0  0  0  0  0  0  0  0
    2.8979   -3.3758    9.6064 C   0  0  0  0  0  0  0  0  0  0  0  0
    1.9908   -4.5635    9.3621 C   0  0  0  0  0  0  0  0  0  0  0  0
    0.5672   -4.1263    9.2330 C   0  0  0  0  0  0  0  0  0  0  0  0
   -0.2771   -4.9731    8.9095 O   0  0  0  0  0  0  0  0  0  0  0  0
    0.1738   -2.7461    9.4788 C   0  0  0  0  0  0  0  0  0  0  0  0
    1.0492   -1.7975    9.3035 C   0  0  0  0  0  0  0  0  0  0  0  0
   -0.8495    1.3336    8.7493 C   0  0  0  0  0  0  0  0  0  0  0  0
   -0.6932   -0.0306    9.3993 C   0  0  0  0  0  0  0  0  0  0  0  0
 23 24  1  0  0  0
 24  1  1  0  0  0
  1  2  1  0  0  0
  2  3  1  0  0  0
  3  4  1  0  0  0
  4  5  1  0  0  0
  5  6  1  0  0  0
  6  7  1  0  0  0
  7  8  1  0  0  0
  8  9  1  0  0  0
  8 10  1  0  0  0
 10 11  1  0  0  0
 10 12  1  0  0  0
 12 13  1  0  0  0
 13 14  1  0  0  0
 14 15  1  0  0  0
 15 16  1  0  0  0
 15 17  1  0  0  0
 17 18  1  0  0  0
 18 19  1  0  0  0
 19 20  2  0  0  0
 19 21  1  0  0  0
 21 22  2  0  0  0
 22  1  1  0  0  0
 14  3  1  0  0  0
 22 15  1  0  0  0
 10  4  1  0  0  0
M  END
> <minimizedAffinity>
-5.30807

> <CNNscore>
0.4390010238

> <CNNaffinity>
5.0024623871

> <CNN_VS>
2.1960861683

> <CNNaffinity_variance>
0.0345522687

$$$$
[H]C1=C2[C@]([H])(C([H])([H])C([H])([H])[H])C([H])([H])[C@]3([H])[C@]([H])(C([H])([H])C([H])([H])[C@]4(C([H])([H])[H])[C@@]([H])(C([H])([H])[H])C([H])([H])C([H])([H])C([H])([H])[C@@]34[H])[C@@]2(C([H])([H])[H])C([H])([H])C([H])([H])C1=O


 24 27  0  0  0  0  0  0  0  0999 V2000
    4.7236    7.7598   20.8104 C   0  0  0  0  0  0  0  0  0  0  0  0
    5.3750    6.6413   21.6127 C   0  0  0  0  0  0  0  0  0  0  0  0
    5.3275    5.3196   20.9306 C   0  0  0  0  0  0  0  0  0  0  0  0
    4.4085    4.3157   21.5853 C   0  0  0  0  0  0  0  0  0  0  0  0
    4.5145    4.2939   23.0639 C   0  0  0  0  0  0  0  0  0  0  0  0
    4.4971    2.9472   23.6917 C   0  0  0  0  0  0  0  0  0  0  0  0
    3.5202    2.0755   22.9801 C   0  0  0  0  0  0  0  0  0  0  0  0
    3.8219    1.8734   21.5339 C   0  0  0  0  0  0  0  0  0  0  0  0
    4.4332    0.5134   21.3542 C   0  0  0  0  0  0  0  0  0  0  0  0
    4.6534    2.9807   20.9253 C   0  0  0  0  0  0  0  0  0  0  0  0
    6.1399    2.6346   20.9278 C   0  0  0  0  0  0  0  0  0  0  0  0
    4.2448    3.0621   19.4686 C   0  0  0  0  0  0  0  0  0  0  0  0
    4.8642    4.2098   18.7388 C   0  0  0  0  0  0  0  0  0  0  0  0
    4.8560    5.4883   19.5033 C   0  0  0  0  0  0  0  0  0  0  0  0
    5.6764    6.5374   18.8188 C   0  0  0  0  0  0  0  0  0  0  0  0
    7.1620    6.2909   18.9742 C   0  0  0  0  0  0  0  0  0  0  0  0
    5.2766    6.5866   17.3645 C   0  0  0  0  0  0  0  0  0  0  0  0
    5.9913    7.6976   16.6242 C   0  0  0  0  0  0  0  0  0  0  0  0
    6.1701    8.8925   17.5045 C   0  0  0  0  0  0  0  0  0  0  0  0
    6.8470    9.8376   17.0765 O   0  0  0  0  0  0  0  0  0  0  0  0
    5.5692    8.9536   18.8294 C   0  0  0  0  0  0  0  0  0  0  0  0
    5.3273    7.8434   19.4666 C   0  0  0  0  0  0  0  0  0  0  0  0
    6.2219    8.9278   22.3995 C   0  0  0  0  0  0  0  0  0  0  0  0
    4.9304    9.0379   21.6073 C   0  0  0  0  0  0  0  0  0  0  0  0
 23 24  1  0  0  0
 24  1  1  0  0  0
  1  2  1  0  0  0
  2  3  1  0  0  0
  3  4  1  0  0  0
  4  5  1  0  0  0
  5  6  1  0  0  0
  6  7  1  0  0  0
  7  8  1  0  0  0
  8  9  1  0  0  0
  8 10  1  0  0  0
 10 11  1  0  0  0
 10 12  1  0  0  0
 12 13  1  0  0  0
 13 14  1  0  0  0
 14 15  1  0  0  0
 15 16  1  0  0  0
 15 17  1  0  0  0
 17 18  1  0  0  0
 18 19  1  0  0  0
 19 20  2  0  0  0
 19 21  1  0  0  0
 21 22  2  0  0  0
 22  1  1  0  0  0
 14  3  1  0  0  0
 22 15  1  0  0  0
 10  4  1  0  0  0
M  END
> <minimizedAffinity>
-8.49354

> <CNNscore>
0.4160957932

> <CNNaffinity>
6.0606603622

> <CNN_VS>
2.5218153000

> <CNNaffinity_variance>
0.1182820573

$$$$
[H]C1=C2[C@]([H])(C([H])([H])C([H])([H])[H])C([H])([H])[C@]3([H])[C@]([H])(C([H])([H])C([H])([H])[C@]4(C([H])([H])[H])[C@@]([H])(C([H])([H])[H])C([H])([H])C([H])([H])C([H])([H])[C@@]34[H])[C@@]2(C([H])([H])[H])C([H])([H])C([H])([H])C1=O


 24 27  0  0  0  0  0  0  0  0999 V2000
    4.7017    4.4636   16.7458 C   0  0  0  0  0  0  0  0  0  0  0  0
    3.9772    3.6895   17.8390 C   0  0  0  0  0  0  0  0  0  0  0  0
    4.4615    4.0088   19.2094 C   0  0  0  0  0  0  0  0  0  0  0  0
    5.2198    2.8863   19.8772 C   0  0  0  0  0  0  0  0  0  0  0  0
    4.5925    1.5561   19.6902 C   0  0  0  0  0  0  0  0  0  0  0  0
    4.5805    0.6751   20.8867 C   0  0  0  0  0  0  0  0  0  0  0  0
    5.8651    0.8195   21.6279 C   0  0  0  0  0  0  0  0  0  0  0  0
    6.1383    2.2026   22.1134 C   0  0  0  0  0  0  0  0  0  0  0  0
    5.8402    2.2652   23.5841 C   0  0  0  0  0  0  0  0  0  0  0  0
    5.4286    3.2772   21.3200 C   0  0  0  0  0  0  0  0  0  0  0  0
    4.1096    3.6806   21.9731 C   0  0  0  0  0  0  0  0  0  0  0  0
    6.3181    4.5023   21.3809 C   0  0  0  0  0  0  0  0  0  0  0  0
    5.8416    5.6285   20.5217 C   0  0  0  0  0  0  0  0  0  0  0  0
    5.3853    5.2058   19.1682 C   0  0  0  0  0  0  0  0  0  0  0  0
    4.7219    6.3336   18.4402 C   0  0  0  0  0  0  0  0  0  0  0  0
    3.3339    6.6182   18.9732 C   0  0  0  0  0  0  0  0  0  0  0  0
    5.6071    7.5523   18.5337 C   0  0  0  0  0  0  0  0  0  0  0  0
    5.0520    8.7109   17.7321 C   0  0  0  0  0  0  0  0  0  0  0  0
    4.3941    8.2238   16.4813 C   0  0  0  0  0  0  0  0  0  0  0  0
    3.7857    9.0463   15.7827 O   0  0  0  0  0  0  0  0  0  0  0  0
    4.4610    6.8240   16.0863 C   0  0  0  0  0  0  0  0  0  0  0  0
    4.6177    5.9138   17.0049 C   0  0  0  0  0  0  0  0  0  0  0  0
    3.6381    2.6155   15.4858 C   0  0  0  0  0  0  0  0  0  0  0  0
    4.0358    4.0807   15.4339 C   0  0  0  0  0  0  0  0  0  0  0  0
 23 24  1  0  0  0
 24  1  1  0  0  0
  1  2  1  0  0  0
  2  3  1  0  0  0
  3  4  1  0  0  0
  4  5  1  0  0  0
  5  6  1  0  0  0
  6  7  1  0  0  0
  7  8  1  0  0  0
  8  9  1  0  0  0
  8 10  1  0  0  0
 10 11  1  0  0  0
 10 12  1  0  0  0
 12 13  1  0  0  0
 13 14  1  0  0  0
 14 15  1  0  0  0
 15 16  1  0  0  0
 15 17  1  0  0  0
 17 18  1  0  0  0
 18 19  1  0  0  0
 19 20  2  0  0  0
 19 21  1  0  0  0
 21 22  2  0  0  0
 22  1  1  0  0  0
 14  3  1  0  0  0
 22 15  1  0  0  0
 10  4  1  0  0  0
M  END
> <minimizedAffinity>
-8.91753

> <CNNscore>
0.4126656651

> <CNNaffinity>
6.1488842964

> <CNN_VS>
2.5374333858

> <CNNaffinity_variance>
0.0761055127

$$$$
[H]C1=C2[C@]([H])(C([H])([H])C([H])([H])[H])C([H])([H])[C@]3([H])[C@]([H])(C([H])([H])C([H])([H])[C@]4(C([H])([H])[H])[C@@]([H])(C([H])([H])[H])C([H])([H])C([H])([H])C([H])([H])[C@@]34[H])[C@@]2(C([H])([H])[H])C([H])([H])C([H])([H])C1=O


 24 27  0  0  0  0  0  0  0  0999 V2000
    5.0385    5.0431   20.4116 C   0  0  0  0  0  0  0  0  0  0  0  0
    3.7612    4.9408   19.5887 C   0  0  0  0  0  0  0  0  0  0  0  0
    3.7359    3.7622   18.6806 C   0  0  0  0  0  0  0  0  0  0  0  0
    3.8319    4.1068   17.2132 C   0  0  0  0  0  0  0  0  0  0  0  0
    2.9901    5.2625   16.8212 C   0  0  0  0  0  0  0  0  0  0  0  0
    2.2685    5.1256   15.5294 C   0  0  0  0  0  0  0  0  0  0  0  0
    3.1450    4.4436   14.5359 C   0  0  0  0  0  0  0  0  0  0  0  0
    3.5732    3.0730   14.9381 C   0  0  0  0  0  0  0  0  0  0  0  0
    2.7513    2.0694   14.1813 C   0  0  0  0  0  0  0  0  0  0  0  0
    3.5560    2.8445   16.4333 C   0  0  0  0  0  0  0  0  0  0  0  0
    2.2521    2.1951   16.8884 C   0  0  0  0  0  0  0  0  0  0  0  0
    4.6487    1.8340   16.7173 C   0  0  0  0  0  0  0  0  0  0  0  0
    4.8761    1.5955   18.1750 C   0  0  0  0  0  0  0  0  0  0  0  0
    4.8911    2.8383   18.9962 C   0  0  0  0  0  0  0  0  0  0  0  0
    4.9035    2.5235   20.4601 C   0  0  0  0  0  0  0  0  0  0  0  0
    3.5535    2.0468   20.9522 C   0  0  0  0  0  0  0  0  0  0  0  0
    5.9778    1.4965   20.7215 C   0  0  0  0  0  0  0  0  0  0  0  0
    6.1226    1.2008   22.1995 C   0  0  0  0  0  0  0  0  0  0  0  0
    5.9026    2.4362   23.0119 C   0  0  0  0  0  0  0  0  0  0  0  0
    5.8680    2.3261   24.2453 O   0  0  0  0  0  0  0  0  0  0  0  0
    5.7329    3.7373   22.3807 C   0  0  0  0  0  0  0  0  0  0  0  0
    5.2603    3.7958   21.1681 C   0  0  0  0  0  0  0  0  0  0  0  0
    4.8636    7.5122   20.4967 C   0  0  0  0  0  0  0  0  0  0  0  0
    4.8641    6.2419   21.3300 C   0  0  0  0  0  0  0  0  0  0  0  0
 23 24  1  0  0  0
 24  1  1  0  0  0
  1  2  1  0  0  0
  2  3  1  0  0  0
  3  4  1  0  0  0
  4  5  1  0  0  0
  5  6  1  0  0  0
  6  7  1  0  0  0
  7  8  1  0  0  0
  8  9  1  0  0  0
  8 10  1  0  0  0
 10 11  1  0  0  0
 10 12  1  0  0  0
 12 13  1  0  0  0
 13 14  1  0  0  0
 14 15  1  0  0  0
 15 16  1  0  0  0
 15 17  1  0  0  0
 17 18  1  0  0  0
 18 19  1  0  0  0
 19 20  2  0  0  0
 19 21  1  0  0  0
 21 22  2  0  0  0
 22  1  1  0  0  0
 14  3  1  0  0  0
 22 15  1  0  0  0
 10  4  1  0  0  0
M  END
> <minimizedAffinity>
-8.39632

> <CNNscore>
0.4105890989

> <CNNaffinity>
6.3661932945

> <CNN_VS>
2.6138894558

> <CNNaffinity_variance>
0.2592738867

$$$$
[H]C1=C2[C@]([H])(C([H])([H])C([H])([H])[H])C([H])([H])[C@]3([H])[C@]([H])(C([H])([H])C([H])([H])[C@]4(C([H])([H])[H])[C@@]([H])(C([H])([H])[H])C([H])([H])C([H])([H])C([H])([H])[C@@]34[H])[C@@]2(C([H])([H])[H])C([H])([H])C([H])([H])C1=O


 24 27  0  0  0  0  0  0  0  0999 V2000
    4.0155    1.4063   17.1297 C   0  0  0  0  0  0  0  0  0  0  0  0
    3.5900    1.8891   18.5099 C   0  0  0  0  0  0  0  0  0  0  0  0
    4.0887    3.2519   18.8391 C   0  0  0  0  0  0  0  0  0  0  0  0
    5.1479    3.2822   19.9154 C   0  0  0  0  0  0  0  0  0  0  0  0
    4.8505    2.3914   21.0625 C   0  0  0  0  0  0  0  0  0  0  0  0
    5.1480    2.9502   22.4068 C   0  0  0  0  0  0  0  0  0  0  0  0
    6.4133    3.7355   22.3540 C   0  0  0  0  0  0  0  0  0  0  0  0
    6.3790    4.8864   21.4064 C   0  0  0  0  0  0  0  0  0  0  0  0
    6.1919    6.1526   22.1920 C   0  0  0  0  0  0  0  0  0  0  0  0
    5.3686    4.7270   20.2920 C   0  0  0  0  0  0  0  0  0  0  0  0
    4.0469    5.4120   20.6285 C   0  0  0  0  0  0  0  0  0  0  0  0
    5.9350    5.4720   19.1004 C   0  0  0  0  0  0  0  0  0  0  0  0
    5.1323    5.2980   17.8519 C   0  0  0  0  0  0  0  0  0  0  0  0
    4.6872    3.8973   17.6090 C   0  0  0  0  0  0  0  0  0  0  0  0
    3.7137    3.8244   16.4736 C   0  0  0  0  0  0  0  0  0  0  0  0
    2.3448    4.3410   16.8620 C   0  0  0  0  0  0  0  0  0  0  0  0
    4.2801    4.5934   15.3052 C   0  0  0  0  0  0  0  0  0  0  0  0
    3.3981    4.4805   14.0795 C   0  0  0  0  0  0  0  0  0  0  0  0
    2.7818    3.1214   13.9926 C   0  0  0  0  0  0  0  0  0  0  0  0
    1.9382    2.9177   13.1086 O   0  0  0  0  0  0  0  0  0  0  0  0
    3.1561    2.0599   14.9163 C   0  0  0  0  0  0  0  0  0  0  0  0
    3.6017    2.3773   16.0985 C   0  0  0  0  0  0  0  0  0  0  0  0
    2.4567   -0.2493   18.1113 C   0  0  0  0  0  0  0  0  0  0  0  0
    3.3613    0.0489   16.9278 C   0  0  0  0  0  0  0  0  0  0  0  0
 23 24  1  0  0  0
 24  1  1  0  0  0
  1  2  1  0  0  0
  2  3  1  0  0  0
  3  4  1  0  0  0
  4  5  1  0  0  0
  5  6  1  0  0  0
  6  7  1  0  0  0
  7  8  1  0  0  0
  8  9  1  0  0  0
  8 10  1  0  0  0
 10 11  1  0  0  0
 10 12  1  0  0  0
 12 13  1  0  0  0
 13 14  1  0  0  0
 14 15  1  0  0  0
 15 16  1  0  0  0
 15 17  1  0  0  0
 17 18  1  0  0  0
 18 19  1  0  0  0
 19 20  2  0  0  0
 19 21  1  0  0  0
 21 22  2  0  0  0
 22  1  1  0  0  0
 14  3  1  0  0  0
 22 15  1  0  0  0
 10  4  1  0  0  0
M  END
> <minimizedAffinity>
-9.31881

> <CNNscore>
0.4045198560

> <CNNaffinity>
6.3700165749

> <CNN_VS>
2.5767982006

> <CNNaffinity_variance>
0.1912010014

$$$$
[H]c1nc2c(C([H])([H])[H])c([H])c(-c3c(C([H])(C([H])([H])[H])C([H])([H])[H])c4c([H])c(C5([H])C([H])([H])C([H])([H])N(C(=O)C([H])([H])N(C([H])([H])[H])C([H])([H])[H])C([H])([H])C5([H])[H])c([H])c([H])c4n3[H])c([H])n2n1


 35 39  0  0  0  0  0  0  0  0999 V2000
    3.8360    4.4217   16.5095 C   0  0  0  0  0  0  0  0  0  0  0  0
    3.8137    3.1268   16.9419 C   0  0  0  0  0  0  0  0  0  0  0  0
    3.5373    2.2762   15.9049 N   0  0  0  0  0  0  0  0  0  0  0  0
    3.3786    2.9972   14.8185 C   0  0  0  0  0  0  0  0  0  0  0  0
    3.1217    2.6408   13.4827 C   0  0  0  0  0  0  0  0  0  0  0  0
    3.0502    3.6145   12.5182 C   0  0  0  0  0  0  0  0  0  0  0  0
    3.2175    4.9515   12.7725 C   0  0  0  0  0  0  0  0  0  0  0  0
    3.4723    5.2895   14.1296 C   0  0  0  0  0  0  0  0  0  0  0  0
    3.5460    4.3241   15.1078 C   0  0  0  0  0  0  0  0  0  0  0  0
    3.4594    1.2190   15.9337 H   0  0  0  0  0  0  0  0  0  0  0  0
    4.0652    2.5618   18.2476 C   0  0  0  0  0  0  0  0  0  0  0  0
    4.9195    2.9764   19.1934 C   0  0  0  0  0  0  0  0  0  0  0  0
    5.0981    2.2796   20.3646 C   0  0  0  0  0  0  0  0  0  0  0  0
    6.0720    2.7943   21.3757 C   0  0  0  0  0  0  0  0  0  0  0  0
    4.3993    1.1146   20.6192 C   0  0  0  0  0  0  0  0  0  0  0  0
    4.4077    0.2905   21.6694 N   0  0  0  0  0  0  0  0  0  0  0  0
    3.5157   -0.6926   21.3715 C   0  0  0  0  0  0  0  0  0  0  0  0
    3.0132   -0.4189   20.1674 N   0  0  0  0  0  0  0  0  0  0  0  0
    3.5355    0.6933   19.6689 N   0  0  0  0  0  0  0  0  0  0  0  0
    3.3622    1.3707   18.5316 C   0  0  0  0  0  0  0  0  0  0  0  0
    3.2159    5.9700   11.7349 C   0  0  0  0  0  0  0  0  0  0  0  0
    2.0974    6.9693   11.7414 C   0  0  0  0  0  0  0  0  0  0  0  0
    2.4304    8.0364   10.7572 C   0  0  0  0  0  0  0  0  0  0  0  0
    3.0840    7.6756    9.5406 N   0  0  0  0  0  0  0  0  0  0  0  0
    3.9032    6.5045    9.4194 C   0  0  0  0  0  0  0  0  0  0  0  0
    3.3881    5.4085   10.3415 C   0  0  0  0  0  0  0  0  0  0  0  0
    2.9502    8.5361    8.3695 C   0  0  0  0  0  0  0  0  0  0  0  0
    2.2443    9.5467    8.4882 O   0  0  0  0  0  0  0  0  0  0  0  0
    3.6488    8.1662    7.1439 C   0  0  0  0  0  0  0  0  0  0  0  0
    4.9870    8.6767    7.1220 N   0  0  0  0  0  0  0  0  0  0  0  0
    5.8963    7.7285    6.4972 C   0  0  0  0  0  0  0  0  0  0  0  0
    5.0738    9.9174    6.4134 C   0  0  0  0  0  0  0  0  0  0  0  0
    3.4079    6.2427   18.2054 C   0  0  0  0  0  0  0  0  0  0  0  0
    4.2656    5.6950   17.0841 C   0  0  0  0  0  0  0  0  0  0  0  0
    5.6664    6.1061   17.1613 C   0  0  0  0  0  0  0  0  0  0  0  0
 33 34  1  0  0  0
 34 35  1  0  0  0
 34  1  1  0  0  0
  1  2  2  0  0  0
  2  3  1  0  0  0
  3  4  1  0  0  0
  4  5  2  0  0  0
  5  6  1  0  0  0
  6  7  2  0  0  0
  7  8  1  0  0  0
  8  9  2  0  0  0
  7 21  1  0  0  0
 21 22  1  0  0  0
 22 23  1  0  0  0
 23 24  1  0  0  0
 24 25  1  0  0  0
 25 26  1  0  0  0
 24 27  1  0  0  0
 27 28  2  0  0  0
 27 29  1  0  0  0
 29 30  1  0  0  0
 30 31  1  0  0  0
 30 32  1  0  0  0
  2 11  1  0  0  0
 11 12  1  0  0  0
 12 13  2  0  0  0
 13 14  1  0  0  0
 13 15  1  0  0  0
 15 16  2  0  0  0
 16 17  1  0  0  0
 17 18  2  0  0  0
 18 19  1  0  0  0
 19 20  1  0  0  0
  9  1  1  0  0  0
 26 21  1  0  0  0
 20 11  2  0  0  0
  9  4  1  0  0  0
 19 15  1  0  0  0
  3 10  1  0  0  0
M  END
> <minimizedAffinity>
-8.09511

> <CNNscore>
0.5538246036

> <CNNaffinity>
6.7157697678

> <CNN_VS>
3.7193584442

> <CNNaffinity_variance>
0.7401325107

$$$$
[H]c1nc2c(C([H])([H])[H])c([H])c(-c3c(C([H])(C([H])([H])[H])C([H])([H])[H])c4c([H])c(C5([H])C([H])([H])C([H])([H])N(C(=O)C([H])([H])N(C([H])([H])[H])C([H])([H])[H])C([H])([H])C5([H])[H])c([H])c([H])c4n3[H])c([H])n2n1


 35 39  0  0  0  0  0  0  0  0999 V2000
    4.3182    3.9075   17.2356 C   0  0  0  0  0  0  0  0  0  0  0  0
    4.2833    2.7668   17.9851 C   0  0  0  0  0  0  0  0  0  0  0  0
    3.7758    1.7250   17.2555 N   0  0  0  0  0  0  0  0  0  0  0  0
    3.4814    2.1733   16.0564 C   0  0  0  0  0  0  0  0  0  0  0  0
    2.9751    1.5332   14.9113 C   0  0  0  0  0  0  0  0  0  0  0  0
    2.8045    2.2453   13.7505 C   0  0  0  0  0  0  0  0  0  0  0  0
    3.1029    3.5777   13.6241 C   0  0  0  0  0  0  0  0  0  0  0  0
    3.6097    4.2055   14.7945 C   0  0  0  0  0  0  0  0  0  0  0  0
    3.7854    3.5045   15.9660 C   0  0  0  0  0  0  0  0  0  0  0  0
    3.6328    0.7214   17.5668 H   0  0  0  0  0  0  0  0  0  0  0  0
    4.7171    2.5120   19.3394 C   0  0  0  0  0  0  0  0  0  0  0  0
    5.5903    1.5983   19.7855 C   0  0  0  0  0  0  0  0  0  0  0  0
    5.8423    1.4303   21.1261 C   0  0  0  0  0  0  0  0  0  0  0  0
    6.8240    0.3879   21.5565 C   0  0  0  0  0  0  0  0  0  0  0  0
    5.2026    2.2019   22.0778 C   0  0  0  0  0  0  0  0  0  0  0  0
    5.2924    2.2170   23.4097 N   0  0  0  0  0  0  0  0  0  0  0  0
    4.4335    3.1869   23.8245 C   0  0  0  0  0  0  0  0  0  0  0  0
    3.8709    3.7094   22.7346 N   0  0  0  0  0  0  0  0  0  0  0  0
    4.3221    3.1259   21.6327 N   0  0  0  0  0  0  0  0  0  0  0  0
    4.0781    3.2888   20.3303 C   0  0  0  0  0  0  0  0  0  0  0  0
    2.9916    4.3075   12.3716 C   0  0  0  0  0  0  0  0  0  0  0  0
    3.4012    3.5998   11.1142 C   0  0  0  0  0  0  0  0  0  0  0  0
    2.9802    4.4389    9.9580 C   0  0  0  0  0  0  0  0  0  0  0  0
    3.0744    5.8593   10.0637 N   0  0  0  0  0  0  0  0  0  0  0  0
    3.0279    6.5471   11.3214 C   0  0  0  0  0  0  0  0  0  0  0  0
    3.6307    5.6772   12.4154 C   0  0  0  0  0  0  0  0  0  0  0  0
    3.1930    6.6644    8.8523 C   0  0  0  0  0  0  0  0  0  0  0  0
    3.2273    6.0593    7.7722 O   0  0  0  0  0  0  0  0  0  0  0  0
    3.2590    8.1159    8.9786 C   0  0  0  0  0  0  0  0  0  0  0  0
    3.3776    8.7541    7.7016 N   0  0  0  0  0  0  0  0  0  0  0  0
    2.3026    9.7124    7.4963 C   0  0  0  0  0  0  0  0  0  0  0  0
    4.6257    9.4407    7.5617 C   0  0  0  0  0  0  0  0  0  0  0  0
    4.0357    6.3045   17.9771 C   0  0  0  0  0  0  0  0  0  0  0  0
    4.9252    5.2277   17.3921 C   0  0  0  0  0  0  0  0  0  0  0  0
    6.3473    5.4273   17.6662 C   0  0  0  0  0  0  0  0  0  0  0  0
 33 34  1  0  0  0
 34 35  1  0  0  0
 34  1  1  0  0  0
  1  2  2  0  0  0
  2  3  1  0  0  0
  3  4  1  0  0  0
  4  5  2  0  0  0
  5  6  1  0  0  0
  6  7  2  0  0  0
  7  8  1  0  0  0
  8  9  2  0  0  0
  7 21  1  0  0  0
 21 22  1  0  0  0
 22 23  1  0  0  0
 23 24  1  0  0  0
 24 25  1  0  0  0
 25 26  1  0  0  0
 24 27  1  0  0  0
 27 28  2  0  0  0
 27 29  1  0  0  0
 29 30  1  0  0  0
 30 31  1  0  0  0
 30 32  1  0  0  0
  2 11  1  0  0  0
 11 12  1  0  0  0
 12 13  2  0  0  0
 13 14  1  0  0  0
 13 15  1  0  0  0
 15 16  2  0  0  0
 16 17  1  0  0  0
 17 18  2  0  0  0
 18 19  1  0  0  0
 19 20  1  0  0  0
  9  1  1  0  0  0
 26 21  1  0  0  0
 20 11  2  0  0  0
  9  4  1  0  0  0
 19 15  1  0  0  0
  3 10  1  0  0  0
M  END
> <minimizedAffinity>
-8.69678

> <CNNscore>
0.4307266474

> <CNNaffinity>
6.5987930298

> <CNN_VS>
2.8422760963

> <CNNaffinity_variance>
0.3482277989

$$$$
[H]c1nc2c(C([H])([H])[H])c([H])c(-c3c(C([H])(C([H])([H])[H])C([H])([H])[H])c4c([H])c(C5([H])C([H])([H])C([H])([H])N(C(=O)C([H])([H])N(C([H])([H])[H])C([H])([H])[H])C([H])([H])C5([H])[H])c([H])c([H])c4n3[H])c([H])n2n1


 35 39  0  0  0  0  0  0  0  0999 V2000
    4.0418    3.7828   17.1007 C   0  0  0  0  0  0  0  0  0  0  0  0
    3.7742    2.5856   17.7000 C   0  0  0  0  0  0  0  0  0  0  0  0
    3.3183    1.6774   16.7821 N   0  0  0  0  0  0  0  0  0  0  0  0
    3.2845    2.2668   15.6087 C   0  0  0  0  0  0  0  0  0  0  0  0
    2.9393    1.7959   14.3295 C   0  0  0  0  0  0  0  0  0  0  0  0
    3.0426    2.6298   13.2443 C   0  0  0  0  0  0  0  0  0  0  0  0
    3.4728    3.9294   13.3215 C   0  0  0  0  0  0  0  0  0  0  0  0
    3.8128    4.3857   14.6242 C   0  0  0  0  0  0  0  0  0  0  0  0
    3.7135    3.5613   15.7218 C   0  0  0  0  0  0  0  0  0  0  0  0
    3.0355    0.6691   16.9495 H   0  0  0  0  0  0  0  0  0  0  0  0
    3.9334    2.1583   19.0709 C   0  0  0  0  0  0  0  0  0  0  0  0
    3.7726    0.9353   19.5952 C   0  0  0  0  0  0  0  0  0  0  0  0
    3.8891    0.7043   20.9450 C   0  0  0  0  0  0  0  0  0  0  0  0
    3.6913   -0.6836   21.4649 C   0  0  0  0  0  0  0  0  0  0  0  0
    4.1797    1.7295   21.8252 C   0  0  0  0  0  0  0  0  0  0  0  0
    4.3419    1.7375   23.1503 N   0  0  0  0  0  0  0  0  0  0  0  0
    4.6177    3.0286   23.4785 C   0  0  0  0  0  0  0  0  0  0  0  0
    4.6112    3.7341   22.3473 N   0  0  0  0  0  0  0  0  0  0  0  0
    4.3442    2.9645   21.3011 N   0  0  0  0  0  0  0  0  0  0  0  0
    4.2313    3.1881   19.9898 C   0  0  0  0  0  0  0  0  0  0  0  0
    3.6522    4.7835   12.1586 C   0  0  0  0  0  0  0  0  0  0  0  0
    2.5564    4.8053   11.1346 C   0  0  0  0  0  0  0  0  0  0  0  0
    2.8449    5.9097   10.1780 C   0  0  0  0  0  0  0  0  0  0  0  0
    4.1992    6.1682    9.8080 N   0  0  0  0  0  0  0  0  0  0  0  0
    5.3099    5.8314   10.6507 C   0  0  0  0  0  0  0  0  0  0  0  0
    4.9858    4.5916   11.4721 C   0  0  0  0  0  0  0  0  0  0  0  0
    4.4846    6.8283    8.5382 C   0  0  0  0  0  0  0  0  0  0  0  0
    3.5170    7.1184    7.8217 O   0  0  0  0  0  0  0  0  0  0  0  0
    5.8727    7.1100    8.1906 C   0  0  0  0  0  0  0  0  0  0  0  0
    6.3674    6.1975    7.2035 N   0  0  0  0  0  0  0  0  0  0  0  0
    6.5184    6.8554    5.9148 C   0  0  0  0  0  0  0  0  0  0  0  0
    7.6329    5.6420    7.5763 C   0  0  0  0  0  0  0  0  0  0  0  0
    6.2316    5.0076   17.3834 C   0  0  0  0  0  0  0  0  0  0  0  0
    4.7223    5.0111   17.5059 C   0  0  0  0  0  0  0  0  0  0  0  0
    4.1250    6.3386   17.3714 C   0  0  0  0  0  0  0  0  0  0  0  0
 33 34  1  0  0  0
 34 35  1  0  0  0
 34  1  1  0  0  0
  1  2  2  0  0  0
  2  3  1  0  0  0
  3  4  1  0  0  0
  4  5  2  0  0  0
  5  6  1  0  0  0
  6  7  2  0  0  0
  7  8  1  0  0  0
  8  9  2  0  0  0
  7 21  1  0  0  0
 21 22  1  0  0  0
 22 23  1  0  0  0
 23 24  1  0  0  0
 24 25  1  0  0  0
 25 26  1  0  0  0
 24 27  1  0  0  0
 27 28  2  0  0  0
 27 29  1  0  0  0
 29 30  1  0  0  0
 30 31  1  0  0  0
 30 32  1  0  0  0
  2 11  1  0  0  0
 11 12  1  0  0  0
 12 13  2  0  0  0
 13 14  1  0  0  0
 13 15  1  0  0  0
 15 16  2  0  0  0
 16 17  1  0  0  0
 17 18  2  0  0  0
 18 19  1  0  0  0
 19 20  1  0  0  0
  9  1  1  0  0  0
 26 21  1  0  0  0
 20 11  2  0  0  0
  9  4  1  0  0  0
 19 15  1  0  0  0
  3 10  1  0  0  0
M  END
> <minimizedAffinity>
-8.49227

> <CNNscore>
0.4217659235

> <CNNaffinity>
6.7516746521

> <CNN_VS>
2.8476262093

> <CNNaffinity_variance>
0.3245797455

$$$$
[H]c1nc2c(C([H])([H])[H])c([H])c(-c3c(C([H])(C([H])([H])[H])C([H])([H])[H])c4c([H])c(C5([H])C([H])([H])C([H])([H])N(C(=O)C([H])([H])N(C([H])([H])[H])C([H])([H])[H])C([H])([H])C5([H])[H])c([H])c([H])c4n3[H])c([H])n2n1


 35 39  0  0  0  0  0  0  0  0999 V2000
    4.3043    4.0254   17.5490 C   0  0  0  0  0  0  0  0  0  0  0  0
    4.2382    3.0647   18.5169 C   0  0  0  0  0  0  0  0  0  0  0  0
    3.7354    1.8980   18.0058 N   0  0  0  0  0  0  0  0  0  0  0  0
    3.4747    2.0905   16.7328 C   0  0  0  0  0  0  0  0  0  0  0  0
    2.9877    1.2309   15.7323 C   0  0  0  0  0  0  0  0  0  0  0  0
    2.8529    1.6885   14.4455 C   0  0  0  0  0  0  0  0  0  0  0  0
    3.1701    2.9638   14.0540 C   0  0  0  0  0  0  0  0  0  0  0  0
    3.6568    3.8167   15.0819 C   0  0  0  0  0  0  0  0  0  0  0  0
    3.7966    3.3721   16.3770 C   0  0  0  0  0  0  0  0  0  0  0  0
    3.5732    0.9816   18.5141 H   0  0  0  0  0  0  0  0  0  0  0  0
    4.6370    3.0927   19.9053 C   0  0  0  0  0  0  0  0  0  0  0  0
    5.5852    3.8351   20.4935 C   0  0  0  0  0  0  0  0  0  0  0  0
    5.8982    3.6898   21.8239 C   0  0  0  0  0  0  0  0  0  0  0  0
    6.9713    4.5461   22.4163 C   0  0  0  0  0  0  0  0  0  0  0  0
    5.2439    2.7665   22.6175 C   0  0  0  0  0  0  0  0  0  0  0  0
    5.3758    2.4610   23.9103 N   0  0  0  0  0  0  0  0  0  0  0  0
    4.4671    1.4772   24.1495 C   0  0  0  0  0  0  0  0  0  0  0  0
    3.8330    1.2371   23.0017 N   0  0  0  0  0  0  0  0  0  0  0  0
    4.2858    2.0164   22.0290 N   0  0  0  0  0  0  0  0  0  0  0  0
    3.9819    2.1583   20.7368 C   0  0  0  0  0  0  0  0  0  0  0  0
    3.0969    3.4194   12.6753 C   0  0  0  0  0  0  0  0  0  0  0  0
    2.8542    2.3887   11.6130 C   0  0  0  0  0  0  0  0  0  0  0  0
    2.5811    3.1031   10.3351 C   0  0  0  0  0  0  0  0  0  0  0  0
    3.3023    4.3000   10.0440 N   0  0  0  0  0  0  0  0  0  0  0  0
    3.8527    5.1408   11.0674 C   0  0  0  0  0  0  0  0  0  0  0  0
    4.2564    4.3022   12.2718 C   0  0  0  0  0  0  0  0  0  0  0  0
    3.4716    4.7185    8.6561 C   0  0  0  0  0  0  0  0  0  0  0  0
    2.9877    3.9867    7.7819 O   0  0  0  0  0  0  0  0  0  0  0  0
    4.1865    5.9593    8.3800 C   0  0  0  0  0  0  0  0  0  0  0  0
    5.3395    5.7353    7.5600 N   0  0  0  0  0  0  0  0  0  0  0  0
    5.7870    6.9733    6.9408 C   0  0  0  0  0  0  0  0  0  0  0  0
    6.4291    5.1872    8.3091 C   0  0  0  0  0  0  0  0  0  0  0  0
    4.1101    6.5061   17.9779 C   0  0  0  0  0  0  0  0  0  0  0  0
    4.9232    5.3453   17.4446 C   0  0  0  0  0  0  0  0  0  0  0  0
    6.3678    5.5594   17.5127 C   0  0  0  0  0  0  0  0  0  0  0  0
 33 34  1  0  0  0
 34 35  1  0  0  0
 34  1  1  0  0  0
  1  2  2  0  0  0
  2  3  1  0  0  0
  3  4  1  0  0  0
  4  5  2  0  0  0
  5  6  1  0  0  0
  6  7  2  0  0  0
  7  8  1  0  0  0
  8  9  2  0  0  0
  7 21  1  0  0  0
 21 22  1  0  0  0
 22 23  1  0  0  0
 23 24  1  0  0  0
 24 25  1  0  0  0
 25 26  1  0  0  0
 24 27  1  0  0  0
 27 28  2  0  0  0
 27 29  1  0  0  0
 29 30  1  0  0  0
 30 31  1  0  0  0
 30 32  1  0  0  0
  2 11  1  0  0  0
 11 12  1  0  0  0
 12 13  2  0  0  0
 13 14  1  0  0  0
 13 15  1  0  0  0
 15 16  2  0  0  0
 16 17  1  0  0  0
 17 18  2  0  0  0
 18 19  1  0  0  0
 19 20  1  0  0  0
  9  1  1  0  0  0
 26 21  1  0  0  0
 20 11  2  0  0  0
  9  4  1  0  0  0
 19 15  1  0  0  0
  3 10  1  0  0  0
M  END
> <minimizedAffinity>
-8.44150

> <CNNscore>
0.3622636199

> <CNNaffinity>
6.6922998428

> <CNN_VS>
2.4243767262

> <CNNaffinity_variance>
0.3511009514

$$$$
[H]c1nc2c(C([H])([H])[H])c([H])c(-c3c(C([H])(C([H])([H])[H])C([H])([H])[H])c4c([H])c(C5([H])C([H])([H])C([H])([H])N(C(=O)C([H])([H])N(C([H])([H])[H])C([H])([H])[H])C([H])([H])C5([H])[H])c([H])c([H])c4n3[H])c([H])n2n1


 35 39  0  0  0  0  0  0  0  0999 V2000
    4.2582    3.8174   17.6492 C   0  0  0  0  0  0  0  0  0  0  0  0
    4.2193    2.8988   18.6586 C   0  0  0  0  0  0  0  0  0  0  0  0
    3.7060    1.7108   18.2109 N   0  0  0  0  0  0  0  0  0  0  0  0
    3.4119    1.8486   16.9381 C   0  0  0  0  0  0  0  0  0  0  0  0
    2.9010    0.9464   15.9881 C   0  0  0  0  0  0  0  0  0  0  0  0
    2.7318    1.3486   14.6869 C   0  0  0  0  0  0  0  0  0  0  0  0
    3.0360    2.6064   14.2333 C   0  0  0  0  0  0  0  0  0  0  0  0
    3.5474    3.5029   15.2109 C   0  0  0  0  0  0  0  0  0  0  0  0
    3.7217    3.1141   16.5197 C   0  0  0  0  0  0  0  0  0  0  0  0
    3.5590    0.8167   18.7618 H   0  0  0  0  0  0  0  0  0  0  0  0
    4.6540    2.9865   20.0336 C   0  0  0  0  0  0  0  0  0  0  0  0
    5.6192    3.7503   20.5639 C   0  0  0  0  0  0  0  0  0  0  0  0
    5.9660    3.6626   21.8909 C   0  0  0  0  0  0  0  0  0  0  0  0
    7.0566    4.5399   22.4170 C   0  0  0  0  0  0  0  0  0  0  0  0
    5.3299    2.7778   22.7411 C   0  0  0  0  0  0  0  0  0  0  0  0
    5.4943    2.5291   24.0423 N   0  0  0  0  0  0  0  0  0  0  0  0
    4.5893    1.5605   24.3481 C   0  0  0  0  0  0  0  0  0  0  0  0
    3.9249    1.2726   23.2287 N   0  0  0  0  0  0  0  0  0  0  0  0
    4.3547    2.0063   22.2112 N   0  0  0  0  0  0  0  0  0  0  0  0
    4.0180    2.0923   20.9222 C   0  0  0  0  0  0  0  0  0  0  0  0
    2.9260    3.0027   12.8388 C   0  0  0  0  0  0  0  0  0  0  0  0
    2.6215    4.4418   12.5456 C   0  0  0  0  0  0  0  0  0  0  0  0
    2.7942    4.6579   11.0821 C   0  0  0  0  0  0  0  0  0  0  0  0
    2.3976    3.6259   10.1791 N   0  0  0  0  0  0  0  0  0  0  0  0
    2.3525    2.2426   10.5556 C   0  0  0  0  0  0  0  0  0  0  0  0
    2.0064    2.1138   12.0322 C   0  0  0  0  0  0  0  0  0  0  0  0
    2.0490    3.9682    8.8039 C   0  0  0  0  0  0  0  0  0  0  0  0
    2.0964    5.1652    8.4898 O   0  0  0  0  0  0  0  0  0  0  0  0
    1.6742    2.8969    7.8881 C   0  0  0  0  0  0  0  0  0  0  0  0
    2.7441    2.5640    6.9958 N   0  0  0  0  0  0  0  0  0  0  0  0
    2.9453    1.1244    6.9376 C   0  0  0  0  0  0  0  0  0  0  0  0
    2.4990    3.0383    5.6676 C   0  0  0  0  0  0  0  0  0  0  0  0
    4.0762    6.3127   17.9896 C   0  0  0  0  0  0  0  0  0  0  0  0
    4.8713    5.1322   17.4726 C   0  0  0  0  0  0  0  0  0  0  0  0
    6.3171    5.3487   17.4811 C   0  0  0  0  0  0  0  0  0  0  0  0
 33 34  1  0  0  0
 34 35  1  0  0  0
 34  1  1  0  0  0
  1  2  2  0  0  0
  2  3  1  0  0  0
  3  4  1  0  0  0
  4  5  2  0  0  0
  5  6  1  0  0  0
  6  7  2  0  0  0
  7  8  1  0  0  0
  8  9  2  0  0  0
  7 21  1  0  0  0
 21 22  1  0  0  0
 22 23  1  0  0  0
 23 24  1  0  0  0
 24 25  1  0  0  0
 25 26  1  0  0  0
 24 27  1  0  0  0
 27 28  2  0  0  0
 27 29  1  0  0  0
 29 30  1  0  0  0
 30 31  1  0  0  0
 30 32  1  0  0  0
  2 11  1  0  0  0
 11 12  1  0  0  0
 12 13  2  0  0  0
 13 14  1  0  0  0
 13 15  1  0  0  0
 15 16  2  0  0  0
 16 17  1  0  0  0
 17 18  2  0  0  0
 18 19  1  0  0  0
 19 20  1  0  0  0
  9  1  1  0  0  0
 26 21  1  0  0  0
 20 11  2  0  0  0
  9  4  1  0  0  0
 19 15  1  0  0  0
  3 10  1  0  0  0
M  END
> <minimizedAffinity>
-8.08058

> <CNNscore>
0.3015929163

> <CNNaffinity>
6.6600785255

> <CNN_VS>
2.0086324215

> <CNNaffinity_variance>
0.4356252253

$$$$
[H]c1nc2c(C([H])([H])[H])c([H])c(-c3c(C([H])(C([H])([H])[H])C([H])([H])[H])c4c([H])c(C5([H])C([H])([H])C([H])([H])N(C(=O)C([H])([H])N(C([H])([H])[H])C([H])([H])[H])C([H])([H])C5([H])[H])c([H])c([H])c4n3[H])c([H])n2n1


 35 39  0  0  0  0  0  0  0  0999 V2000
    2.5537    2.6262   10.7461 C   0  0  0  0  0  0  0  0  0  0  0  0
    2.8004    3.7206    9.9678 C   0  0  0  0  0  0  0  0  0  0  0  0
    3.2935    4.7499   10.7245 N   0  0  0  0  0  0  0  0  0  0  0  0
    3.3652    4.3408   11.9706 C   0  0  0  0  0  0  0  0  0  0  0  0
    3.8293    4.9674   13.1408 C   0  0  0  0  0  0  0  0  0  0  0  0
    3.8364    4.2779   14.3274 C   0  0  0  0  0  0  0  0  0  0  0  0
    3.4106    2.9809   14.4566 C   0  0  0  0  0  0  0  0  0  0  0  0
    2.9422    2.3683   13.2624 C   0  0  0  0  0  0  0  0  0  0  0  0
    2.9283    3.0474   12.0653 C   0  0  0  0  0  0  0  0  0  0  0  0
    3.5800    5.7176   10.3988 H   0  0  0  0  0  0  0  0  0  0  0  0
    2.6615    3.9182    8.5434 C   0  0  0  0  0  0  0  0  0  0  0  0
    3.5348    3.6381    7.5660 C   0  0  0  0  0  0  0  0  0  0  0  0
    3.2811    3.9583    6.2537 C   0  0  0  0  0  0  0  0  0  0  0  0
    4.3012    3.6231    5.2131 C   0  0  0  0  0  0  0  0  0  0  0  0
    2.1069    4.5861    5.8831 C   0  0  0  0  0  0  0  0  0  0  0  0
    1.6534    4.9802    4.6910 N   0  0  0  0  0  0  0  0  0  0  0  0
    0.4348    5.5369    4.9276 C   0  0  0  0  0  0  0  0  0  0  0  0
    0.2096    5.4527    6.2390 N   0  0  0  0  0  0  0  0  0  0  0  0
    1.2224    4.8693    6.8652 N   0  0  0  0  0  0  0  0  0  0  0  0
    1.4692    4.5577    8.1397 C   0  0  0  0  0  0  0  0  0  0  0  0
    3.4916    2.2319   15.7001 C   0  0  0  0  0  0  0  0  0  0  0  0
    2.3101    1.3922   16.0858 C   0  0  0  0  0  0  0  0  0  0  0  0
    2.7081    0.5458   17.2448 C   0  0  0  0  0  0  0  0  0  0  0  0
    3.5720    1.0963   18.2389 N   0  0  0  0  0  0  0  0  0  0  0  0
    4.4906    2.1625   17.9622 C   0  0  0  0  0  0  0  0  0  0  0  0
    3.9254    3.0719   16.8803 C   0  0  0  0  0  0  0  0  0  0  0  0
    3.5564    0.5456   19.5903 C   0  0  0  0  0  0  0  0  0  0  0  0
    2.7625   -0.3778   19.8155 O   0  0  0  0  0  0  0  0  0  0  0  0
    4.4667    1.1018   20.5848 C   0  0  0  0  0  0  0  0  0  0  0  0
    3.7858    1.9663   21.5017 N   0  0  0  0  0  0  0  0  0  0  0  0
    3.8483    1.4415   22.8570 C   0  0  0  0  0  0  0  0  0  0  0  0
    4.3405    3.2858   21.5039 C   0  0  0  0  0  0  0  0  0  0  0  0
    0.7683    0.8919   10.3216 C   0  0  0  0  0  0  0  0  0  0  0  0
    2.2367    1.2236   10.4848 C   0  0  0  0  0  0  0  0  0  0  0  0
    3.1270    0.3251    9.7518 C   0  0  0  0  0  0  0  0  0  0  0  0
 33 34  1  0  0  0
 34 35  1  0  0  0
 34  1  1  0  0  0
  1  2  2  0  0  0
  2  3  1  0  0  0
  3  4  1  0  0  0
  4  5  2  0  0  0
  5  6  1  0  0  0
  6  7  2  0  0  0
  7  8  1  0  0  0
  8  9  2  0  0  0
  7 21  1  0  0  0
 21 22  1  0  0  0
 22 23  1  0  0  0
 23 24  1  0  0  0
 24 25  1  0  0  0
 25 26  1  0  0  0
 24 27  1  0  0  0
 27 28  2  0  0  0
 27 29  1  0  0  0
 29 30  1  0  0  0
 30 31  1  0  0  0
 30 32  1  0  0  0
  2 11  1  0  0  0
 11 12  1  0  0  0
 12 13  2  0  0  0
 13 14  1  0  0  0
 13 15  1  0  0  0
 15 16  2  0  0  0
 16 17  1  0  0  0
 17 18  2  0  0  0
 18 19  1  0  0  0
 19 20  1  0  0  0
  9  1  1  0  0  0
 26 21  1  0  0  0
 20 11  2  0  0  0
  9  4  1  0  0  0
 19 15  1  0  0  0
  3 10  1  0  0  0
M  END
> <minimizedAffinity>
-7.11671

> <CNNscore>
0.2795735598

> <CNNaffinity>
6.5565977097

> <CNN_VS>
1.8330513239

> <CNNaffinity_variance>
0.3467942476

$$$$
[H]c1nc2c(C([H])([H])[H])c([H])c(-c3c(C([H])(C([H])([H])[H])C([H])([H])[H])c4c([H])c(C5([H])C([H])([H])C([H])([H])N(C(=O)C([H])([H])N(C([H])([H])[H])C([H])([H])[H])C([H])([H])C5([H])[H])c([H])c([H])c4n3[H])c([H])n2n1


 35 39  0  0  0  0  0  0  0  0999 V2000
    3.7793    3.0476   16.6231 C   0  0  0  0  0  0  0  0  0  0  0  0
    4.2069    3.8725   17.6234 C   0  0  0  0  0  0  0  0  0  0  0  0
    4.3059    5.1629   17.1759 N   0  0  0  0  0  0  0  0  0  0  0  0
    3.9546    5.1828   15.9104 C   0  0  0  0  0  0  0  0  0  0  0  0
    3.8371    6.2338   14.9836 C   0  0  0  0  0  0  0  0  0  0  0  0
    3.3920    5.9752   13.7113 C   0  0  0  0  0  0  0  0  0  0  0  0
    3.0420    4.7263   13.2665 C   0  0  0  0  0  0  0  0  0  0  0  0
    3.1719    3.6785   14.2184 C   0  0  0  0  0  0  0  0  0  0  0  0
    3.6177    3.9224   15.4976 C   0  0  0  0  0  0  0  0  0  0  0  0
    4.6062    6.0201   17.7233 H   0  0  0  0  0  0  0  0  0  0  0  0
    4.5105    3.5991   19.0092 C   0  0  0  0  0  0  0  0  0  0  0  0
    5.2163    2.5868   19.5321 C   0  0  0  0  0  0  0  0  0  0  0  0
    5.3532    2.4241   20.8900 C   0  0  0  0  0  0  0  0  0  0  0  0
    6.1495    1.2690   21.4072 C   0  0  0  0  0  0  0  0  0  0  0  0
    4.7659    3.3032   21.7801 C   0  0  0  0  0  0  0  0  0  0  0  0
    4.7687    3.3437   23.1145 N   0  0  0  0  0  0  0  0  0  0  0  0
    4.0280    4.4342   23.4502 C   0  0  0  0  0  0  0  0  0  0  0  0
    3.6170    4.9980   22.3141 N   0  0  0  0  0  0  0  0  0  0  0  0
    4.0542    4.3267   21.2575 N   0  0  0  0  0  0  0  0  0  0  0  0
    3.9219    4.4844   19.9384 C   0  0  0  0  0  0  0  0  0  0  0  0
    2.4995    4.4713   11.9419 C   0  0  0  0  0  0  0  0  0  0  0  0
    2.0307    5.6506   11.1424 C   0  0  0  0  0  0  0  0  0  0  0  0
    1.7487    5.1821    9.7570 C   0  0  0  0  0  0  0  0  0  0  0  0
    1.1694    3.8913    9.5679 N   0  0  0  0  0  0  0  0  0  0  0  0
    1.3260    2.8259   10.5153 C   0  0  0  0  0  0  0  0  0  0  0  0
    1.4411    3.3915   11.9237 C   0  0  0  0  0  0  0  0  0  0  0  0
    0.4085    3.6151    8.3536 C   0  0  0  0  0  0  0  0  0  0  0  0
    0.2845    4.5415    7.5411 O   0  0  0  0  0  0  0  0  0  0  0  0
   -0.1513    2.2817    8.1647 C   0  0  0  0  0  0  0  0  0  0  0  0
    0.5316    1.5616    7.1318 N   0  0  0  0  0  0  0  0  0  0  0  0
    1.1511    0.3558    7.6595 C   0  0  0  0  0  0  0  0  0  0  0  0
   -0.3510    1.1863    6.0693 C   0  0  0  0  0  0  0  0  0  0  0  0
    4.2999    0.5987   16.9508 C   0  0  0  0  0  0  0  0  0  0  0  0
    3.3028    1.6675   16.5554 C   0  0  0  0  0  0  0  0  0  0  0  0
    1.9108    1.2890   16.7924 C   0  0  0  0  0  0  0  0  0  0  0  0
 33 34  1  0  0  0
 34 35  1  0  0  0
 34  1  1  0  0  0
  1  2  2  0  0  0
  2  3  1  0  0  0
  3  4  1  0  0  0
  4  5  2  0  0  0
  5  6  1  0  0  0
  6  7  2  0  0  0
  7  8  1  0  0  0
  8  9  2  0  0  0
  7 21  1  0  0  0
 21 22  1  0  0  0
 22 23  1  0  0  0
 23 24  1  0  0  0
 24 25  1  0  0  0
 25 26  1  0  0  0
 24 27  1  0  0  0
 27 28  2  0  0  0
 27 29  1  0  0  0
 29 30  1  0  0  0
 30 31  1  0  0  0
 30 32  1  0  0  0
  2 11  1  0  0  0
 11 12  1  0  0  0
 12 13  2  0  0  0
 13 14  1  0  0  0
 13 15  1  0  0  0
 15 16  2  0  0  0
 16 17  1  0  0  0
 17 18  2  0  0  0
 18 19  1  0  0  0
 19 20  1  0  0  0
  9  1  1  0  0  0
 26 21  1  0  0  0
 20 11  2  0  0  0
  9  4  1  0  0  0
 19 15  1  0  0  0
  3 10  1  0  0  0
M  END
> <minimizedAffinity>
-6.96646

> <CNNscore>
0.2356297076

> <CNNaffinity>
6.4102158546

> <CNN_VS>
1.5104372501

> <CNNaffinity_variance>
0.2932801843

$$$$
[H]c1nc2c(C([H])([H])[H])c([H])c(-c3c(C([H])(C([H])([H])[H])C([H])([H])[H])c4c([H])c(C5([H])C([H])([H])C([H])([H])N(C(=O)C([H])([H])N(C([H])([H])[H])C([H])([H])[H])C([H])([H])C5([H])[H])c([H])c([H])c4n3[H])c([H])n2n1


 35 39  0  0  0  0  0  0  0  0999 V2000
    3.8869    2.1768   17.0601 C   0  0  0  0  0  0  0  0  0  0  0  0
    4.4006    3.0897   17.9359 C   0  0  0  0  0  0  0  0  0  0  0  0
    4.5554    4.3073   17.3287 N   0  0  0  0  0  0  0  0  0  0  0  0
    4.1556    4.1943   16.0825 C   0  0  0  0  0  0  0  0  0  0  0  0
    4.0617    5.1295   15.0367 C   0  0  0  0  0  0  0  0  0  0  0  0
    3.5521    4.7457   13.8215 C   0  0  0  0  0  0  0  0  0  0  0  0
    3.1138    3.4758   13.5469 C   0  0  0  0  0  0  0  0  0  0  0  0
    3.2213    2.5460   14.6168 C   0  0  0  0  0  0  0  0  0  0  0  0
    3.7310    2.9161   15.8406 C   0  0  0  0  0  0  0  0  0  0  0  0
    4.9259    5.2047   17.7553 H   0  0  0  0  0  0  0  0  0  0  0  0
    4.7430    2.9692   19.3343 C   0  0  0  0  0  0  0  0  0  0  0  0
    5.6144    2.1350   19.9183 C   0  0  0  0  0  0  0  0  0  0  0  0
    5.7734    2.0919   21.2828 C   0  0  0  0  0  0  0  0  0  0  0  0
    6.7590    1.1330   21.8702 C   0  0  0  0  0  0  0  0  0  0  0  0
    5.0375    2.9127   22.1165 C   0  0  0  0  0  0  0  0  0  0  0  0
    5.0287    3.0439   23.4450 N   0  0  0  0  0  0  0  0  0  0  0  0
    4.1063    4.0074   23.7125 C   0  0  0  0  0  0  0  0  0  0  0  0
    3.6062    4.4112   22.5445 N   0  0  0  0  0  0  0  0  0  0  0  0
    4.1583    3.7568   21.5320 N   0  0  0  0  0  0  0  0  0  0  0  0
    4.0047    3.7984   20.2065 C   0  0  0  0  0  0  0  0  0  0  0  0
    2.5051    3.0951   12.2825 C   0  0  0  0  0  0  0  0  0  0  0  0
    2.7053    1.6859   11.8095 C   0  0  0  0  0  0  0  0  0  0  0  0
    1.8085    1.4628   10.6415 C   0  0  0  0  0  0  0  0  0  0  0  0
    1.6066    2.5265    9.7114 N   0  0  0  0  0  0  0  0  0  0  0  0
    1.7509    3.9075   10.0710 C   0  0  0  0  0  0  0  0  0  0  0  0
    2.8077    4.0575   11.1561 C   0  0  0  0  0  0  0  0  0  0  0  0
    1.2075    2.2186    8.3418 C   0  0  0  0  0  0  0  0  0  0  0  0
    1.0816    1.0229    8.0449 O   0  0  0  0  0  0  0  0  0  0  0  0
    0.9778    3.3200    7.4138 C   0  0  0  0  0  0  0  0  0  0  0  0
   -0.3624    3.3160    6.9080 N   0  0  0  0  0  0  0  0  0  0  0  0
   -1.2225    4.1771    7.7048 C   0  0  0  0  0  0  0  0  0  0  0  0
   -0.4209    3.7563    5.5472 C   0  0  0  0  0  0  0  0  0  0  0  0
    2.9713    0.3808   18.5805 C   0  0  0  0  0  0  0  0  0  0  0  0
    3.3299    0.8309   17.1799 C   0  0  0  0  0  0  0  0  0  0  0  0
    2.5209    0.2039   16.1361 C   0  0  0  0  0  0  0  0  0  0  0  0
 33 34  1  0  0  0
 34 35  1  0  0  0
 34  1  1  0  0  0
  1  2  2  0  0  0
  2  3  1  0  0  0
  3  4  1  0  0  0
  4  5  2  0  0  0
  5  6  1  0  0  0
  6  7  2  0  0  0
  7  8  1  0  0  0
  8  9  2  0  0  0
  7 21  1  0  0  0
 21 22  1  0  0  0
 22 23  1  0  0  0
 23 24  1  0  0  0
 24 25  1  0  0  0
 25 26  1  0  0  0
 24 27  1  0  0  0
 27 28  2  0  0  0
 27 29  1  0  0  0
 29 30  1  0  0  0
 30 31  1  0  0  0
 30 32  1  0  0  0
  2 11  1  0  0  0
 11 12  1  0  0  0
 12 13  2  0  0  0
 13 14  1  0  0  0
 13 15  1  0  0  0
 15 16  2  0  0  0
 16 17  1  0  0  0
 17 18  2  0  0  0
 18 19  1  0  0  0
 19 20  1  0  0  0
  9  1  1  0  0  0
 26 21  1  0  0  0
 20 11  2  0  0  0
  9  4  1  0  0  0
 19 15  1  0  0  0
  3 10  1  0  0  0
M  END
> <minimizedAffinity>
-7.75886

> <CNNscore>
0.2340837270

> <CNNaffinity>
6.4977021217

> <CNN_VS>
1.5210063457

> <CNNaffinity_variance>
0.1654938012

$$$$
[H]c1nc2c(C([H])([H])[H])c([H])c(-c3c(C([H])(C([H])([H])[H])C([H])([H])[H])c4c([H])c(C5([H])C([H])([H])C([H])([H])N(C(=O)C([H])([H])N(C([H])([H])[H])C([H])([H])[H])C([H])([H])C5([H])[H])c([H])c([H])c4n3[H])c([H])n2n1


 35 39  0  0  0  0  0  0  0  0999 V2000
    4.2518    4.1380   17.4601 C   0  0  0  0  0  0  0  0  0  0  0  0
    4.3188    2.9186   18.0706 C   0  0  0  0  0  0  0  0  0  0  0  0
    3.9149    1.9279   17.2160 N   0  0  0  0  0  0  0  0  0  0  0  0
    3.5873    2.4853   16.0726 C   0  0  0  0  0  0  0  0  0  0  0  0
    3.1496    1.9408   14.8523 C   0  0  0  0  0  0  0  0  0  0  0  0
    2.9204    2.7660   13.7798 C   0  0  0  0  0  0  0  0  0  0  0  0
    3.0942    4.1257   13.8148 C   0  0  0  0  0  0  0  0  0  0  0  0
    3.5333    4.6551   15.0589 C   0  0  0  0  0  0  0  0  0  0  0  0
    3.7665    3.8402   16.1433 C   0  0  0  0  0  0  0  0  0  0  0  0
    3.8641    0.8857   17.4056 H   0  0  0  0  0  0  0  0  0  0  0  0
    4.7663    2.5470   19.3931 C   0  0  0  0  0  0  0  0  0  0  0  0
    5.6385    1.5938   19.7494 C   0  0  0  0  0  0  0  0  0  0  0  0
    5.9046    1.3108   21.0677 C   0  0  0  0  0  0  0  0  0  0  0  0
    6.8844    0.2301   21.3962 C   0  0  0  0  0  0  0  0  0  0  0  0
    5.2809    2.0021   22.0892 C   0  0  0  0  0  0  0  0  0  0  0  0
    5.3859    1.9031   23.4164 N   0  0  0  0  0  0  0  0  0  0  0  0
    4.5382    2.8390   23.9225 C   0  0  0  0  0  0  0  0  0  0  0  0
    3.9667    3.4556   22.8877 N   0  0  0  0  0  0  0  0  0  0  0  0
    4.4014    2.9655   21.7349 N   0  0  0  0  0  0  0  0  0  0  0  0
    4.1437    3.2401   20.4541 C   0  0  0  0  0  0  0  0  0  0  0  0
    2.9228    4.9847   12.6544 C   0  0  0  0  0  0  0  0  0  0  0  0
    2.9981    6.4674   12.8681 C   0  0  0  0  0  0  0  0  0  0  0  0
    3.0366    7.1218   11.5307 C   0  0  0  0  0  0  0  0  0  0  0  0
    2.2557    6.5729   10.4694 N   0  0  0  0  0  0  0  0  0  0  0  0
    1.8739    5.1911   10.4235 C   0  0  0  0  0  0  0  0  0  0  0  0
    1.6965    4.6506   11.8353 C   0  0  0  0  0  0  0  0  0  0  0  0
    1.8446    7.4292    9.3614 C   0  0  0  0  0  0  0  0  0  0  0  0
    2.1845    8.6191    9.4102 O   0  0  0  0  0  0  0  0  0  0  0  0
    1.0718    6.8437    8.2719 C   0  0  0  0  0  0  0  0  0  0  0  0
   -0.2609    7.3669    8.2267 N   0  0  0  0  0  0  0  0  0  0  0  0
   -0.6719    7.6282    6.8560 C   0  0  0  0  0  0  0  0  0  0  0  0
   -1.2071    6.4697    8.8172 C   0  0  0  0  0  0  0  0  0  0  0  0
    3.7582    6.3798   18.5120 C   0  0  0  0  0  0  0  0  0  0  0  0
    4.7322    5.4807   17.7799 C   0  0  0  0  0  0  0  0  0  0  0  0
    6.1349    5.7833   18.0593 C   0  0  0  0  0  0  0  0  0  0  0  0
 33 34  1  0  0  0
 34 35  1  0  0  0
 34  1  1  0  0  0
  1  2  2  0  0  0
  2  3  1  0  0  0
  3  4  1  0  0  0
  4  5  2  0  0  0
  5  6  1  0  0  0
  6  7  2  0  0  0
  7  8  1  0  0  0
  8  9  2  0  0  0
  7 21  1  0  0  0
 21 22  1  0  0  0
 22 23  1  0  0  0
 23 24  1  0  0  0
 24 25  1  0  0  0
 25 26  1  0  0  0
 24 27  1  0  0  0
 27 28  2  0  0  0
 27 29  1  0  0  0
 29 30  1  0  0  0
 30 31  1  0  0  0
 30 32  1  0  0  0
  2 11  1  0  0  0
 11 12  1  0  0  0
 12 13  2  0  0  0
 13 14  1  0  0  0
 13 15  1  0  0  0
 15 16  2  0  0  0
 16 17  1  0  0  0
 17 18  2  0  0  0
 18 19  1  0  0  0
 19 20  1  0  0  0
  9  1  1  0  0  0
 26 21  1  0  0  0
 20 11  2  0  0  0
  9  4  1  0  0  0
 19 15  1  0  0  0
  3 10  1  0  0  0
M  END
> <minimizedAffinity>
-8.64137

> <CNNscore>
0.2203195691

> <CNNaffinity>
6.3475337029

> <CNN_VS>
1.3984858990

> <CNNaffinity_variance>
0.4738191664

$$$$
[H]Oc1c([H])c(O[H])c(C(C([H])([H])[H])(C([H])([H])[H])C([H])([H])[H])c([H])c1C(=O)N1C([H])([H])c2c([H])c([H])c([H])c([H])c2C1([H])[H]


 25 27  0  0  0  0  0  0  0  0999 V2000
    4.2629    1.8511   20.9462 C   0  0  0  0  0  0  0  0  0  0  0  0
    4.2133    1.8630   19.5450 C   0  0  0  0  0  0  0  0  0  0  0  0
    3.4664    0.9706   18.8048 C   0  0  0  0  0  0  0  0  0  0  0  0
    2.7373    0.0237   19.5462 C   0  0  0  0  0  0  0  0  0  0  0  0
    1.9625   -0.9054   18.8441 O   0  0  0  0  0  0  0  0  0  0  0  0
    2.7943    0.0229   20.9150 C   0  0  0  0  0  0  0  0  0  0  0  0
    3.5405    0.9140   21.6494 C   0  0  0  0  0  0  0  0  0  0  0  0
    3.5605    0.8657   23.0437 O   0  0  0  0  0  0  0  0  0  0  0  0
    1.4296   -1.5949   19.3342 H   0  0  0  0  0  0  0  0  0  0  0  0
    3.0044    0.1497   23.4854 H   0  0  0  0  0  0  0  0  0  0  0  0
    3.3588    0.9438   17.3689 C   0  0  0  0  0  0  0  0  0  0  0  0
    3.3465   -0.2332   16.8375 O   0  0  0  0  0  0  0  0  0  0  0  0
    3.2655    1.9854   16.4371 N   0  0  0  0  0  0  0  0  0  0  0  0
    3.1433    1.7490   14.9956 C   0  0  0  0  0  0  0  0  0  0  0  0
    3.2679    3.0830   14.3777 C   0  0  0  0  0  0  0  0  0  0  0  0
    3.3035    3.3985   13.0200 C   0  0  0  0  0  0  0  0  0  0  0  0
    3.4231    4.7186   12.6453 C   0  0  0  0  0  0  0  0  0  0  0  0
    3.5081    5.7334   13.5748 C   0  0  0  0  0  0  0  0  0  0  0  0
    3.4680    5.3652   14.9027 C   0  0  0  0  0  0  0  0  0  0  0  0
    3.3497    4.0603   15.3092 C   0  0  0  0  0  0  0  0  0  0  0  0
    3.2878    3.3973   16.6493 C   0  0  0  0  0  0  0  0  0  0  0  0
    5.5245    3.9329   20.7041 C   0  0  0  0  0  0  0  0  0  0  0  0
    5.0862    2.8365   21.6705 C   0  0  0  0  0  0  0  0  0  0  0  0
    6.3226    2.1859   22.2045 C   0  0  0  0  0  0  0  0  0  0  0  0
    4.2985    3.5393   22.7624 C   0  0  0  0  0  0  0  0  0  0  0  0
 22 23  1  0  0  0
 23 24  1  0  0  0
 23 25  1  0  0  0
 23  1  1  0  0  0
  1  2  2  0  0  0
  2  3  1  0  0  0
  3 11  1  0  0  0
 11 12  2  0  0  0
 11 13  1  0  0  0
 13 14  1  0  0  0
 14 15  1  0  0  0
 15 16  2  0  0  0
 16 17  1  0  0  0
 17 18  2  0  0  0
 18 19  1  0  0  0
 19 20  2  0  0  0
 20 21  1  0  0  0
  3  4  2  0  0  0
  4  5  1  0  0  0
  4  6  1  0  0  0
  6  7  2  0  0  0
  7  8  1  0  0  0
  7  1  1  0  0  0
 21 13  1  0  0  0
 20 15  1  0  0  0
  5  9  1  0  0  0
  8 10  1  0  0  0
M  END
> <minimizedAffinity>
-9.02781

> <CNNscore>
0.8369325995

> <CNNaffinity>
5.9073386192

> <CNN_VS>
4.9440441132

> <CNNaffinity_variance>
0.1165882796

$$$$
[H]Oc1c([H])c(O[H])c(C(C([H])([H])[H])(C([H])([H])[H])C([H])([H])[H])c([H])c1C(=O)N1C([H])([H])c2c([H])c([H])c([H])c([H])c2C1([H])[H]


 25 27  0  0  0  0  0  0  0  0999 V2000
    4.5494    3.1545   21.7654 C   0  0  0  0  0  0  0  0  0  0  0  0
    4.7550    3.3710   20.3954 C   0  0  0  0  0  0  0  0  0  0  0  0
    4.4375    4.5522   19.7582 C   0  0  0  0  0  0  0  0  0  0  0  0
    3.8833    5.5551   20.5736 C   0  0  0  0  0  0  0  0  0  0  0  0
    3.5431    6.7736   19.9771 O   0  0  0  0  0  0  0  0  0  0  0  0
    3.6877    5.3308   21.9109 C   0  0  0  0  0  0  0  0  0  0  0  0
    4.0051    4.1517   22.5426 C   0  0  0  0  0  0  0  0  0  0  0  0
    3.7833    3.9795   23.9093 O   0  0  0  0  0  0  0  0  0  0  0  0
    3.1466    7.5120   20.5223 H   0  0  0  0  0  0  0  0  0  0  0  0
    3.3810    4.7572   24.4098 H   0  0  0  0  0  0  0  0  0  0  0  0
    4.6421    4.8422   18.3624 C   0  0  0  0  0  0  0  0  0  0  0  0
    5.3202    5.9129   18.1140 O   0  0  0  0  0  0  0  0  0  0  0  0
    4.2270    4.1571   17.2135 N   0  0  0  0  0  0  0  0  0  0  0  0
    4.5566    4.6108   15.8591 C   0  0  0  0  0  0  0  0  0  0  0  0
    3.7797    3.7337   14.9625 C   0  0  0  0  0  0  0  0  0  0  0  0
    3.6749    3.8045   13.5739 C   0  0  0  0  0  0  0  0  0  0  0  0
    2.8927    2.8807   12.9165 C   0  0  0  0  0  0  0  0  0  0  0  0
    2.2128    1.8905   13.5933 C   0  0  0  0  0  0  0  0  0  0  0  0
    2.3517    1.8668   14.9647 C   0  0  0  0  0  0  0  0  0  0  0  0
    3.1224    2.7717   15.6497 C   0  0  0  0  0  0  0  0  0  0  0  0
    3.4367    2.9732   17.0988 C   0  0  0  0  0  0  0  0  0  0  0  0
    5.8381    1.1017   21.4341 C   0  0  0  0  0  0  0  0  0  0  0  0
    4.9120    1.8634   22.3778 C   0  0  0  0  0  0  0  0  0  0  0  0
    3.6898    1.0259   22.5829 C   0  0  0  0  0  0  0  0  0  0  0  0
    5.6956    2.0477   23.6656 C   0  0  0  0  0  0  0  0  0  0  0  0
 22 23  1  0  0  0
 23 24  1  0  0  0
 23 25  1  0  0  0
 23  1  1  0  0  0
  1  2  2  0  0  0
  2  3  1  0  0  0
  3 11  1  0  0  0
 11 12  2  0  0  0
 11 13  1  0  0  0
 13 14  1  0  0  0
 14 15  1  0  0  0
 15 16  2  0  0  0
 16 17  1  0  0  0
 17 18  2  0  0  0
 18 19  1  0  0  0
 19 20  2  0  0  0
 20 21  1  0  0  0
  3  4  2  0  0  0
  4  5  1  0  0  0
  4  6  1  0  0  0
  6  7  2  0  0  0
  7  8  1  0  0  0
  7  1  1  0  0  0
 21 13  1  0  0  0
 20 15  1  0  0  0
  5  9  1  0  0  0
  8 10  1  0  0  0
M  END
> <minimizedAffinity>
-8.96858

> <CNNscore>
0.5575804710

> <CNNaffinity>
5.6783995628

> <CNN_VS>
3.1661646366

> <CNNaffinity_variance>
0.1385969371

$$$$
[H]Oc1c([H])c(O[H])c(C(C([H])([H])[H])(C([H])([H])[H])C([H])([H])[H])c([H])c1C(=O)N1C([H])([H])c2c([H])c([H])c([H])c([H])c2C1([H])[H]


 25 27  0  0  0  0  0  0  0  0999 V2000
    4.5389    3.4904   20.9552 C   0  0  0  0  0  0  0  0  0  0  0  0
    4.0797    3.7940   19.6657 C   0  0  0  0  0  0  0  0  0  0  0  0
    3.7470    5.0694   19.2597 C   0  0  0  0  0  0  0  0  0  0  0  0
    3.8963    6.0765   20.2300 C   0  0  0  0  0  0  0  0  0  0  0  0
    3.5724    7.3888   19.8701 O   0  0  0  0  0  0  0  0  0  0  0  0
    4.3461    5.7666   21.4863 C   0  0  0  0  0  0  0  0  0  0  0  0
    4.6763    4.4937   21.8875 C   0  0  0  0  0  0  0  0  0  0  0  0
    5.1297    4.2369   23.1819 O   0  0  0  0  0  0  0  0  0  0  0  0
    3.6647    8.1334   20.5310 H   0  0  0  0  0  0  0  0  0  0  0  0
    5.2034    5.0252   23.8064 H   0  0  0  0  0  0  0  0  0  0  0  0
    3.2897    5.4475   17.9474 C   0  0  0  0  0  0  0  0  0  0  0  0
    2.1955    4.8819   17.5593 O   0  0  0  0  0  0  0  0  0  0  0  0
    3.8330    6.3318   17.0070 N   0  0  0  0  0  0  0  0  0  0  0  0
    3.1978    6.5998   15.7134 C   0  0  0  0  0  0  0  0  0  0  0  0
    4.1751    7.4177   14.9698 C   0  0  0  0  0  0  0  0  0  0  0  0
    4.0901    7.8676   13.6528 C   0  0  0  0  0  0  0  0  0  0  0  0
    5.1177    8.6289   13.1409 C   0  0  0  0  0  0  0  0  0  0  0  0
    6.2248    8.9568   13.8943 C   0  0  0  0  0  0  0  0  0  0  0  0
    6.2572    8.4858   15.1895 C   0  0  0  0  0  0  0  0  0  0  0  0
    5.2509    7.7257   15.7296 C   0  0  0  0  0  0  0  0  0  0  0  0
    5.0376    7.0963   17.0704 C   0  0  0  0  0  0  0  0  0  0  0  0
    4.7465    1.2141   20.0837 C   0  0  0  0  0  0  0  0  0  0  0  0
    4.8741    2.1014   21.3185 C   0  0  0  0  0  0  0  0  0  0  0  0
    3.9136    1.5880   22.3436 C   0  0  0  0  0  0  0  0  0  0  0  0
    6.3162    1.9679   21.7755 C   0  0  0  0  0  0  0  0  0  0  0  0
 22 23  1  0  0  0
 23 24  1  0  0  0
 23 25  1  0  0  0
 23  1  1  0  0  0
  1  2  2  0  0  0
  2  3  1  0  0  0
  3 11  1  0  0  0
 11 12  2  0  0  0
 11 13  1  0  0  0
 13 14  1  0  0  0
 14 15  1  0  0  0
 15 16  2  0  0  0
 16 17  1  0  0  0
 17 18  2  0  0  0
 18 19  1  0  0  0
 19 20  2  0  0  0
 20 21  1  0  0  0
  3  4  2  0  0  0
  4  5  1  0  0  0
  4  6  1  0  0  0
  6  7  2  0  0  0
  7  8  1  0  0  0
  7  1  1  0  0  0
 21 13  1  0  0  0
 20 15  1  0  0  0
  5  9  1  0  0  0
  8 10  1  0  0  0
M  END
> <minimizedAffinity>
-7.93834

> <CNNscore>
0.5188929439

> <CNNaffinity>
5.3796772957

> <CNN_VS>
2.7914764881

> <CNNaffinity_variance>
0.1375432462

$$$$
[H]Oc1c([H])c(O[H])c(C(C([H])([H])[H])(C([H])([H])[H])C([H])([H])[H])c([H])c1C(=O)N1C([H])([H])c2c([H])c([H])c([H])c([H])c2C1([H])[H]


 25 27  0  0  0  0  0  0  0  0999 V2000
    4.2951    3.1412   21.0693 C   0  0  0  0  0  0  0  0  0  0  0  0
    4.5181    3.6267   19.7730 C   0  0  0  0  0  0  0  0  0  0  0  0
    4.4602    2.8341   18.6458 C   0  0  0  0  0  0  0  0  0  0  0  0
    4.1573    1.4789   18.8684 C   0  0  0  0  0  0  0  0  0  0  0  0
    4.0861    0.6306   17.7585 O   0  0  0  0  0  0  0  0  0  0  0  0
    3.9414    1.0173   20.1400 C   0  0  0  0  0  0  0  0  0  0  0  0
    4.0005    1.8104   21.2614 C   0  0  0  0  0  0  0  0  0  0  0  0
    3.7713    1.2848   22.5334 O   0  0  0  0  0  0  0  0  0  0  0  0
    3.8735   -0.3394   17.8743 H   0  0  0  0  0  0  0  0  0  0  0  0
    3.5613    0.3001   22.5913 H   0  0  0  0  0  0  0  0  0  0  0  0
    4.6595    3.2758   17.2896 C   0  0  0  0  0  0  0  0  0  0  0  0
    5.6532    4.0810   17.1110 O   0  0  0  0  0  0  0  0  0  0  0  0
    3.9531    2.9812   16.1165 N   0  0  0  0  0  0  0  0  0  0  0  0
    4.3296    3.5250   14.8084 C   0  0  0  0  0  0  0  0  0  0  0  0
    3.2349    3.1309   13.9012 C   0  0  0  0  0  0  0  0  0  0  0  0
    3.0686    3.4728   12.5597 C   0  0  0  0  0  0  0  0  0  0  0  0
    1.9685    2.9957   11.8816 C   0  0  0  0  0  0  0  0  0  0  0  0
    1.0303    2.1913   12.4926 C   0  0  0  0  0  0  0  0  0  0  0  0
    1.2438    1.8845   13.8196 C   0  0  0  0  0  0  0  0  0  0  0  0
    2.3284    2.3430   14.5235 C   0  0  0  0  0  0  0  0  0  0  0  0
    2.7903    2.1720   15.9365 C   0  0  0  0  0  0  0  0  0  0  0  0
    4.3732    5.4933   21.7371 C   0  0  0  0  0  0  0  0  0  0  0  0
    4.3758    4.0487   22.2285 C   0  0  0  0  0  0  0  0  0  0  0  0
    5.6551    3.8277   22.9712 C   0  0  0  0  0  0  0  0  0  0  0  0
    3.1642    3.9188   23.1349 C   0  0  0  0  0  0  0  0  0  0  0  0
 22 23  1  0  0  0
 23 24  1  0  0  0
 23 25  1  0  0  0
 23  1  1  0  0  0
  1  2  2  0  0  0
  2  3  1  0  0  0
  3 11  1  0  0  0
 11 12  2  0  0  0
 11 13  1  0  0  0
 13 14  1  0  0  0
 14 15  1  0  0  0
 15 16  2  0  0  0
 16 17  1  0  0  0
 17 18  2  0  0  0
 18 19  1  0  0  0
 19 20  2  0  0  0
 20 21  1  0  0  0
  3  4  2  0  0  0
  4  5  1  0  0  0
  4  6  1  0  0  0
  6  7  2  0  0  0
  7  8  1  0  0  0
  7  1  1  0  0  0
 21 13  1  0  0  0
 20 15  1  0  0  0
  5  9  1  0  0  0
  8 10  1  0  0  0
M  END
> <minimizedAffinity>
-7.74521

> <CNNscore>
0.5110167861

> <CNNaffinity>
5.3943996429

> <CNN_VS>
2.7566287518

> <CNNaffinity_variance>
0.3773705065

$$$$
[H]Oc1c([H])c(O[H])c(C(C([H])([H])[H])(C([H])([H])[H])C([H])([H])[H])c([H])c1C(=O)N1C([H])([H])c2c([H])c([H])c([H])c([H])c2C1([H])[H]


 25 27  0  0  0  0  0  0  0  0999 V2000
    4.5057    2.4119   21.4004 C   0  0  0  0  0  0  0  0  0  0  0  0
    4.2366    3.3353   20.3801 C   0  0  0  0  0  0  0  0  0  0  0  0
    4.0751    4.6866   20.6033 C   0  0  0  0  0  0  0  0  0  0  0  0
    4.1980    5.1026   21.9411 C   0  0  0  0  0  0  0  0  0  0  0  0
    4.0430    6.4639   22.2228 O   0  0  0  0  0  0  0  0  0  0  0  0
    4.4612    4.1904   22.9286 C   0  0  0  0  0  0  0  0  0  0  0  0
    4.6212    2.8437   22.7023 C   0  0  0  0  0  0  0  0  0  0  0  0
    4.8883    1.9600   23.7485 O   0  0  0  0  0  0  0  0  0  0  0  0
    4.1229    6.7999   23.1611 H   0  0  0  0  0  0  0  0  0  0  0  0
    4.9582    2.3537   24.6743 H   0  0  0  0  0  0  0  0  0  0  0  0
    3.8175    5.6855   19.5982 C   0  0  0  0  0  0  0  0  0  0  0  0
    2.6205    5.6858   19.1135 O   0  0  0  0  0  0  0  0  0  0  0  0
    4.6504    6.6676   19.0475 N   0  0  0  0  0  0  0  0  0  0  0  0
    4.1888    7.6175   18.0309 C   0  0  0  0  0  0  0  0  0  0  0  0
    5.4042    8.3314   17.5950 C   0  0  0  0  0  0  0  0  0  0  0  0
    5.5227    9.2820   16.5818 C   0  0  0  0  0  0  0  0  0  0  0  0
    6.7579    9.8374   16.3301 C   0  0  0  0  0  0  0  0  0  0  0  0
    7.8769    9.4793   17.0515 C   0  0  0  0  0  0  0  0  0  0  0  0
    7.7029    8.5354   18.0410 C   0  0  0  0  0  0  0  0  0  0  0  0
    6.4871    7.9630   18.3171 C   0  0  0  0  0  0  0  0  0  0  0  0
    6.0286    6.9379   19.3061 C   0  0  0  0  0  0  0  0  0  0  0  0
    4.4185    0.7623   19.5962 C   0  0  0  0  0  0  0  0  0  0  0  0
    4.6644    0.9803   21.0863 C   0  0  0  0  0  0  0  0  0  0  0  0
    3.6524    0.1708   21.8331 C   0  0  0  0  0  0  0  0  0  0  0  0
    6.0805    0.4970   21.3460 C   0  0  0  0  0  0  0  0  0  0  0  0
 22 23  1  0  0  0
 23 24  1  0  0  0
 23 25  1  0  0  0
 23  1  1  0  0  0
  1  2  2  0  0  0
  2  3  1  0  0  0
  3 11  1  0  0  0
 11 12  2  0  0  0
 11 13  1  0  0  0
 13 14  1  0  0  0
 14 15  1  0  0  0
 15 16  2  0  0  0
 16 17  1  0  0  0
 17 18  2  0  0  0
 18 19  1  0  0  0
 19 20  2  0  0  0
 20 21  1  0  0  0
  3  4  2  0  0  0
  4  5  1  0  0  0
  4  6  1  0  0  0
  6  7  2  0  0  0
  7  8  1  0  0  0
  7  1  1  0  0  0
 21 13  1  0  0  0
 20 15  1  0  0  0
  5  9  1  0  0  0
  8 10  1  0  0  0
M  END
> <minimizedAffinity>
-7.83614

> <CNNscore>
0.4932335615

> <CNNaffinity>
5.4832677841

> <CNN_VS>
2.7045316696

> <CNNaffinity_variance>
0.0492169745

$$$$
[H]Oc1c([H])c(O[H])c(C(C([H])([H])[H])(C([H])([H])[H])C([H])([H])[H])c([H])c1C(=O)N1C([H])([H])c2c([H])c([H])c([H])c([H])c2C1([H])[H]


 25 27  0  0  0  0  0  0  0  0999 V2000
    3.5555    1.2149   18.7333 C   0  0  0  0  0  0  0  0  0  0  0  0
    4.4528    2.1070   19.3375 C   0  0  0  0  0  0  0  0  0  0  0  0
    4.6929    2.1380   20.6952 C   0  0  0  0  0  0  0  0  0  0  0  0
    3.9740    1.2044   21.4630 C   0  0  0  0  0  0  0  0  0  0  0  0
    4.1804    1.1934   22.8464 O   0  0  0  0  0  0  0  0  0  0  0  0
    3.1004    0.3382   20.8604 C   0  0  0  0  0  0  0  0  0  0  0  0
    2.8632    0.3106   19.5064 C   0  0  0  0  0  0  0  0  0  0  0  0
    1.9610   -0.5951   18.9473 O   0  0  0  0  0  0  0  0  0  0  0  0
    3.6885    0.5451   23.4274 H   0  0  0  0  0  0  0  0  0  0  0  0
    1.4931   -1.2256   19.5802 H   0  0  0  0  0  0  0  0  0  0  0  0
    5.6141    3.0142   21.3719 C   0  0  0  0  0  0  0  0  0  0  0  0
    6.5259    2.4243   22.0708 O   0  0  0  0  0  0  0  0  0  0  0  0
    5.6929    4.4122   21.4050 N   0  0  0  0  0  0  0  0  0  0  0  0
    6.7323    5.1288   22.1500 C   0  0  0  0  0  0  0  0  0  0  0  0
    6.3418    6.5499   22.0801 C   0  0  0  0  0  0  0  0  0  0  0  0
    6.9535    7.6382   22.7008 C   0  0  0  0  0  0  0  0  0  0  0  0
    6.4310    8.8976   22.5050 C   0  0  0  0  0  0  0  0  0  0  0  0
    5.3221    9.1098   21.7137 C   0  0  0  0  0  0  0  0  0  0  0  0
    4.7571    7.9990   21.1243 C   0  0  0  0  0  0  0  0  0  0  0  0
    5.2526    6.7316   21.2988 C   0  0  0  0  0  0  0  0  0  0  0  0
    4.8429    5.3837   20.7943 C   0  0  0  0  0  0  0  0  0  0  0  0
    4.3972    2.1460   16.6335 C   0  0  0  0  0  0  0  0  0  0  0  0
    3.3485    1.2412   17.2738 C   0  0  0  0  0  0  0  0  0  0  0  0
    2.0040    1.8118   16.9516 C   0  0  0  0  0  0  0  0  0  0  0  0
    3.5478   -0.1284   16.6488 C   0  0  0  0  0  0  0  0  0  0  0  0
 22 23  1  0  0  0
 23 24  1  0  0  0
 23 25  1  0  0  0
 23  1  1  0  0  0
  1  2  2  0  0  0
  2  3  1  0  0  0
  3 11  1  0  0  0
 11 12  2  0  0  0
 11 13  1  0  0  0
 13 14  1  0  0  0
 14 15  1  0  0  0
 15 16  2  0  0  0
 16 17  1  0  0  0
 17 18  2  0  0  0
 18 19  1  0  0  0
 19 20  2  0  0  0
 20 21  1  0  0  0
  3  4  2  0  0  0
  4  5  1  0  0  0
  4  6  1  0  0  0
  6  7  2  0  0  0
  7  8  1  0  0  0
  7  1  1  0  0  0
 21 13  1  0  0  0
 20 15  1  0  0  0
  5  9  1  0  0  0
  8 10  1  0  0  0
M  END
> <minimizedAffinity>
-8.38888

> <CNNscore>
0.4731609821

> <CNNaffinity>
5.4130754471

> <CNN_VS>
2.5612561703

> <CNNaffinity_variance>
0.1403856725

$$$$
[H]Oc1c([H])c(O[H])c(C(C([H])([H])[H])(C([H])([H])[H])C([H])([H])[H])c([H])c1C(=O)N1C([H])([H])c2c([H])c([H])c([H])c([H])c2C1([H])[H]


 25 27  0  0  0  0  0  0  0  0999 V2000
    4.2128    1.3203   20.0261 C   0  0  0  0  0  0  0  0  0  0  0  0
    4.2336    1.9141   18.7561 C   0  0  0  0  0  0  0  0  0  0  0  0
    3.4949    1.4481   17.6888 C   0  0  0  0  0  0  0  0  0  0  0  0
    2.6982    0.3180   17.9458 C   0  0  0  0  0  0  0  0  0  0  0  0
    1.9284   -0.1956   16.8969 O   0  0  0  0  0  0  0  0  0  0  0  0
    2.6867   -0.2525   19.1912 C   0  0  0  0  0  0  0  0  0  0  0  0
    3.4249    0.2146   20.2528 C   0  0  0  0  0  0  0  0  0  0  0  0
    3.3737   -0.4078   21.5005 O   0  0  0  0  0  0  0  0  0  0  0  0
    1.3487   -0.9978   17.0388 H   0  0  0  0  0  0  0  0  0  0  0  0
    2.7724   -1.2128   21.5867 H   0  0  0  0  0  0  0  0  0  0  0  0
    3.4583    2.0240   16.3692 C   0  0  0  0  0  0  0  0  0  0  0  0
    3.4409    1.1751   15.3961 O   0  0  0  0  0  0  0  0  0  0  0  0
    3.4394    3.3612   15.9530 N   0  0  0  0  0  0  0  0  0  0  0  0
    3.3828    3.7496   14.5406 C   0  0  0  0  0  0  0  0  0  0  0  0
    3.5737    5.2126   14.5386 C   0  0  0  0  0  0  0  0  0  0  0  0
    3.6853    6.0607   13.4376 C   0  0  0  0  0  0  0  0  0  0  0  0
    3.8587    7.4106   13.6508 C   0  0  0  0  0  0  0  0  0  0  0  0
    3.9244    7.9436   14.9205 C   0  0  0  0  0  0  0  0  0  0  0  0
    3.8084    7.0602   15.9725 C   0  0  0  0  0  0  0  0  0  0  0  0
    3.6351    5.7109   15.7947 C   0  0  0  0  0  0  0  0  0  0  0  0
    3.4889    4.5555   16.7342 C   0  0  0  0  0  0  0  0  0  0  0  0
    5.5222    3.2640   20.7276 C   0  0  0  0  0  0  0  0  0  0  0  0
    5.0317    1.8735   21.1202 C   0  0  0  0  0  0  0  0  0  0  0  0
    6.2373    1.0181   21.3482 C   0  0  0  0  0  0  0  0  0  0  0  0
    4.2235    2.0646   22.3917 C   0  0  0  0  0  0  0  0  0  0  0  0
 22 23  1  0  0  0
 23 24  1  0  0  0
 23 25  1  0  0  0
 23  1  1  0  0  0
  1  2  2  0  0  0
  2  3  1  0  0  0
  3 11  1  0  0  0
 11 12  2  0  0  0
 11 13  1  0  0  0
 13 14  1  0  0  0
 14 15  1  0  0  0
 15 16  2  0  0  0
 16 17  1  0  0  0
 17 18  2  0  0  0
 18 19  1  0  0  0
 19 20  2  0  0  0
 20 21  1  0  0  0
  3  4  2  0  0  0
  4  5  1  0  0  0
  4  6  1  0  0  0
  6  7  2  0  0  0
  7  8  1  0  0  0
  7  1  1  0  0  0
 21 13  1  0  0  0
 20 15  1  0  0  0
  5  9  1  0  0  0
  8 10  1  0  0  0
M  END
> <minimizedAffinity>
-8.23272

> <CNNscore>
0.4679506719

> <CNNaffinity>
5.4381713867

> <CNN_VS>
2.5447959900

> <CNNaffinity_variance>
0.1673551649

$$$$
[H]Oc1c([H])c(O[H])c(C(C([H])([H])[H])(C([H])([H])[H])C([H])([H])[H])c([H])c1C(=O)N1C([H])([H])c2c([H])c([H])c([H])c([H])c2C1([H])[H]


 25 27  0  0  0  0  0  0  0  0999 V2000
    4.3145    2.3566   21.2141 C   0  0  0  0  0  0  0  0  0  0  0  0
    4.1406    3.5622   20.5197 C   0  0  0  0  0  0  0  0  0  0  0  0
    4.0280    3.6376   19.1472 C   0  0  0  0  0  0  0  0  0  0  0  0
    4.0975    2.4116   18.4616 C   0  0  0  0  0  0  0  0  0  0  0  0
    3.9887    2.4315   17.0672 O   0  0  0  0  0  0  0  0  0  0  0  0
    4.2675    1.2407   19.1519 C   0  0  0  0  0  0  0  0  0  0  0  0
    4.3798    1.1696   20.5203 C   0  0  0  0  0  0  0  0  0  0  0  0
    4.5520   -0.0529   21.1705 O   0  0  0  0  0  0  0  0  0  0  0  0
    4.0333    1.5813   16.5428 H   0  0  0  0  0  0  0  0  0  0  0  0
    4.5900   -0.8782   20.5922 H   0  0  0  0  0  0  0  0  0  0  0  0
    3.8288    4.8395   18.3792 C   0  0  0  0  0  0  0  0  0  0  0  0
    2.7198    4.8966   17.7199 O   0  0  0  0  0  0  0  0  0  0  0  0
    4.6396    5.9705   18.2201 N   0  0  0  0  0  0  0  0  0  0  0  0
    4.2456    7.1171   17.3962 C   0  0  0  0  0  0  0  0  0  0  0  0
    5.4410    7.9803   17.3459 C   0  0  0  0  0  0  0  0  0  0  0  0
    5.6180    9.1576   16.6200 C   0  0  0  0  0  0  0  0  0  0  0  0
    6.8206    9.8229   16.7117 C   0  0  0  0  0  0  0  0  0  0  0  0
    7.8511    9.3568   17.5001 C   0  0  0  0  0  0  0  0  0  0  0  0
    7.6224    8.1889   18.1960 C   0  0  0  0  0  0  0  0  0  0  0  0
    6.4368    7.5022   18.1266 C   0  0  0  0  0  0  0  0  0  0  0  0
    5.9352    6.2408   18.7564 C   0  0  0  0  0  0  0  0  0  0  0  0
    3.6003    1.2048   23.2507 C   0  0  0  0  0  0  0  0  0  0  0  0
    4.4292    2.3538   22.6840 C   0  0  0  0  0  0  0  0  0  0  0  0
    3.8815    3.6258   23.2487 C   0  0  0  0  0  0  0  0  0  0  0  0
    5.8551    2.0985   23.1402 C   0  0  0  0  0  0  0  0  0  0  0  0
 22 23  1  0  0  0
 23 24  1  0  0  0
 23 25  1  0  0  0
 23  1  1  0  0  0
  1  2  2  0  0  0
  2  3  1  0  0  0
  3 11  1  0  0  0
 11 12  2  0  0  0
 11 13  1  0  0  0
 13 14  1  0  0  0
 14 15  1  0  0  0
 15 16  2  0  0  0
 16 17  1  0  0  0
 17 18  2  0  0  0
 18 19  1  0  0  0
 19 20  2  0  0  0
 20 21  1  0  0  0
  3  4  2  0  0  0
  4  5  1  0  0  0
  4  6  1  0  0  0
  6  7  2  0  0  0
  7  8  1  0  0  0
  7  1  1  0  0  0
 21 13  1  0  0  0
 20 15  1  0  0  0
  5  9  1  0  0  0
  8 10  1  0  0  0
M  END
> <minimizedAffinity>
-7.33647

> <CNNscore>
0.4593744576

> <CNNaffinity>
5.1336350441

> <CNN_VS>
2.3582608700

> <CNNaffinity_variance>
0.1392197907

$$$$
[H]Oc1c([H])c(O[H])c(C(C([H])([H])[H])(C([H])([H])[H])C([H])([H])[H])c([H])c1C(=O)N1C([H])([H])c2c([H])c([H])c([H])c([H])c2C1([H])[H]


 25 27  0  0  0  0  0  0  0  0999 V2000
    4.0424    1.2785   19.7659 C   0  0  0  0  0  0  0  0  0  0  0  0
    4.7385    2.4790   19.5656 C   0  0  0  0  0  0  0  0  0  0  0  0
    4.7771    3.1407   18.3561 C   0  0  0  0  0  0  0  0  0  0  0  0
    4.0635    2.5347   17.3066 C   0  0  0  0  0  0  0  0  0  0  0  0
    4.0698    3.1650   16.0579 O   0  0  0  0  0  0  0  0  0  0  0  0
    3.3873    1.3618   17.5155 C   0  0  0  0  0  0  0  0  0  0  0  0
    3.3515    0.7048   18.7227 C   0  0  0  0  0  0  0  0  0  0  0  0
    2.6453   -0.4887   18.8772 O   0  0  0  0  0  0  0  0  0  0  0  0
    3.5748    2.7664   15.2861 H   0  0  0  0  0  0  0  0  0  0  0  0
    2.1646   -0.8450   18.0655 H   0  0  0  0  0  0  0  0  0  0  0  0
    5.4558    4.3833   18.0926 C   0  0  0  0  0  0  0  0  0  0  0  0
    6.2483    4.3748   17.0730 O   0  0  0  0  0  0  0  0  0  0  0  0
    5.4060    5.6141   18.7592 N   0  0  0  0  0  0  0  0  0  0  0  0
    6.1705    6.7845   18.3181 C   0  0  0  0  0  0  0  0  0  0  0  0
    5.9861    7.7861   19.3857 C   0  0  0  0  0  0  0  0  0  0  0  0
    6.5756    9.0453   19.4904 C   0  0  0  0  0  0  0  0  0  0  0  0
    6.2674    9.8375   20.5744 C   0  0  0  0  0  0  0  0  0  0  0  0
    5.3937    9.4194   21.5555 C   0  0  0  0  0  0  0  0  0  0  0  0
    4.8399    8.1663   21.4021 C   0  0  0  0  0  0  0  0  0  0  0  0
    5.1256    7.3527   20.3352 C   0  0  0  0  0  0  0  0  0  0  0  0
    4.6814    5.9813   19.9337 C   0  0  0  0  0  0  0  0  0  0  0  0
    4.6727    1.5699   22.1115 C   0  0  0  0  0  0  0  0  0  0  0  0
    4.0476    0.6264   21.0881 C   0  0  0  0  0  0  0  0  0  0  0  0
    4.8821   -0.6143   21.0505 C   0  0  0  0  0  0  0  0  0  0  0  0
    2.6407    0.3485   21.5881 C   0  0  0  0  0  0  0  0  0  0  0  0
 22 23  1  0  0  0
 23 24  1  0  0  0
 23 25  1  0  0  0
 23  1  1  0  0  0
  1  2  2  0  0  0
  2  3  1  0  0  0
  3 11  1  0  0  0
 11 12  2  0  0  0
 11 13  1  0  0  0
 13 14  1  0  0  0
 14 15  1  0  0  0
 15 16  2  0  0  0
 16 17  1  0  0  0
 17 18  2  0  0  0
 18 19  1  0  0  0
 19 20  2  0  0  0
 20 21  1  0  0  0
  3  4  2  0  0  0
  4  5  1  0  0  0
  4  6  1  0  0  0
  6  7  2  0  0  0
  7  8  1  0  0  0
  7  1  1  0  0  0
 21 13  1  0  0  0
 20 15  1  0  0  0
  5  9  1  0  0  0
  8 10  1  0  0  0
M  END
> <minimizedAffinity>
-7.86333

> <CNNscore>
0.4567743242

> <CNNaffinity>
5.2121610641

> <CNN_VS>
2.3807814121

> <CNNaffinity_variance>
0.1601620615

$$$$
[H]C1=C2C([H])([H])C([H])([H])C3([H])C4([H])C([H])([H])C([H])([H])C(=O)[C@@]4(C([H])([H])[H])C([H])([H])C([H])([H])C3([H])[C@@]2(C([H])([H])[H])C([H])([H])C([H])([H])C1=O


 21 24  0  0  0  0  0  0  0  0999 V2000
   -0.7573    7.6026    4.4385 C   0  0  0  0  0  0  0  0  0  0  0  0
    0.2996    8.0205    5.4723 C   0  0  0  0  0  0  0  0  0  0  0  0
    1.0601    9.1545    4.8676 C   0  0  0  0  0  0  0  0  0  0  0  0
    2.3571    9.4632    5.5111 C   0  0  0  0  0  0  0  0  0  0  0  0
    3.2041    8.2843    5.8503 C   0  0  0  0  0  0  0  0  0  0  0  0
    2.5771    6.9617    5.5981 C   0  0  0  0  0  0  0  0  0  0  0  0
    3.2918    5.9580    6.5182 C   0  0  0  0  0  0  0  0  0  0  0  0
    4.6901    5.8371    6.0157 C   0  0  0  0  0  0  0  0  0  0  0  0
    5.3158    7.1213    5.6168 C   0  0  0  0  0  0  0  0  0  0  0  0
    6.6606    7.1383    5.6717 C   0  0  0  0  0  0  0  0  0  0  0  0
    7.4207    8.3158    5.3143 C   0  0  0  0  0  0  0  0  0  0  0  0
    8.6691    8.3268    5.2990 O   0  0  0  0  0  0  0  0  0  0  0  0
    6.6895    9.5499    4.9544 C   0  0  0  0  0  0  0  0  0  0  0  0
    5.3511    9.5301    5.6490 C   0  0  0  0  0  0  0  0  0  0  0  0
    4.5626    8.3254    5.1812 C   0  0  0  0  0  0  0  0  0  0  0  0
    4.3822    8.3375    3.6777 C   0  0  0  0  0  0  0  0  0  0  0  0
    1.1297    6.8631    5.8925 C   0  0  0  0  0  0  0  0  0  0  0  0
    0.9096    6.6506    7.3772 C   0  0  0  0  0  0  0  0  0  0  0  0
   -0.5148    7.1795    7.5322 C   0  0  0  0  0  0  0  0  0  0  0  0
   -0.4487    8.4003    6.6933 C   0  0  0  0  0  0  0  0  0  0  0  0
   -0.9272    9.4698    6.9920 O   0  0  0  0  0  0  0  0  0  0  0  0
  2  1  1  0  0  0
  2  3  1  0  0  0
  3  4  1  0  0  0
  4  5  1  0  0  0
  5  6  1  0  0  0
  6  7  1  0  0  0
  7  8  1  0  0  0
  8  9  1  0  0  0
  9 10  2  0  0  0
 10 11  1  0  0  0
 11 12  2  0  0  0
 11 13  1  0  0  0
 13 14  1  0  0  0
 14 15  1  0  0  0
 15 16  1  0  0  0
  6 17  1  0  0  0
 17 18  1  0  0  0
 18 19  1  0  0  0
 19 20  1  0  0  0
 20 21  2  0  0  0
 17  2  1  0  0  0
 20  2  1  0  0  0
 15  5  1  0  0  0
 15  9  1  0  0  0
M  END
> <minimizedAffinity>
-4.65848

> <CNNscore>
0.5640168190

> <CNNaffinity>
4.6416182518

> <CNN_VS>
2.6179506779

> <CNNaffinity_variance>
0.0511143431

$$$$
[H]C1=C2C([H])([H])C([H])([H])C3([H])C4([H])C([H])([H])C([H])([H])C(=O)[C@@]4(C([H])([H])[H])C([H])([H])C([H])([H])C3([H])[C@@]2(C([H])([H])[H])C([H])([H])C([H])([H])C1=O


 21 24  0  0  0  0  0  0  0  0999 V2000
    4.0183    4.4667   22.7339 C   0  0  0  0  0  0  0  0  0  0  0  0
    4.8863    4.0572   21.5342 C   0  0  0  0  0  0  0  0  0  0  0  0
    4.7801    5.1628   20.5360 C   0  0  0  0  0  0  0  0  0  0  0  0
    5.2157    4.8217   19.1628 C   0  0  0  0  0  0  0  0  0  0  0  0
    4.7510    3.5016   18.6495 C   0  0  0  0  0  0  0  0  0  0  0  0
    4.0120    2.6662   19.6304 C   0  0  0  0  0  0  0  0  0  0  0  0
    4.1521    1.2102   19.1559 C   0  0  0  0  0  0  0  0  0  0  0  0
    3.3854    1.0993   17.8822 C   0  0  0  0  0  0  0  0  0  0  0  0
    3.5546    2.2470   16.9581 C   0  0  0  0  0  0  0  0  0  0  0  0
    3.3386    1.9663   15.6594 C   0  0  0  0  0  0  0  0  0  0  0  0
    3.4632    2.9773   14.6327 C   0  0  0  0  0  0  0  0  0  0  0  0
    3.2041    2.7478   13.4331 O   0  0  0  0  0  0  0  0  0  0  0  0
    3.9142    4.3311   15.0213 C   0  0  0  0  0  0  0  0  0  0  0  0
    4.7620    4.2125   16.2628 C   0  0  0  0  0  0  0  0  0  0  0  0
    3.9312    3.6203   17.3812 C   0  0  0  0  0  0  0  0  0  0  0  0
    2.7009    4.4598   17.6547 C   0  0  0  0  0  0  0  0  0  0  0  0
    4.5042    2.7154   21.0256 C   0  0  0  0  0  0  0  0  0  0  0  0
    5.7005    1.7994   21.1924 C   0  0  0  0  0  0  0  0  0  0  0  0
    6.3795    2.4359   22.4035 C   0  0  0  0  0  0  0  0  0  0  0  0
    6.2577    3.8741   22.0639 C   0  0  0  0  0  0  0  0  0  0  0  0
    7.1342    4.6943   22.2096 O   0  0  0  0  0  0  0  0  0  0  0  0
  2  1  1  0  0  0
  2  3  1  0  0  0
  3  4  1  0  0  0
  4  5  1  0  0  0
  5  6  1  0  0  0
  6  7  1  0  0  0
  7  8  1  0  0  0
  8  9  1  0  0  0
  9 10  2  0  0  0
 10 11  1  0  0  0
 11 12  2  0  0  0
 11 13  1  0  0  0
 13 14  1  0  0  0
 14 15  1  0  0  0
 15 16  1  0  0  0
  6 17  1  0  0  0
 17 18  1  0  0  0
 18 19  1  0  0  0
 19 20  1  0  0  0
 20 21  2  0  0  0
 17  2  1  0  0  0
 20  2  1  0  0  0
 15  5  1  0  0  0
 15  9  1  0  0  0
M  END
> <minimizedAffinity>
-8.98113

> <CNNscore>
0.5565735698

> <CNNaffinity>
6.0352134705

> <CNN_VS>
3.3590402603

> <CNNaffinity_variance>
0.1229775324

$$$$
[H]C1=C2C([H])([H])C([H])([H])C3([H])C4([H])C([H])([H])C([H])([H])C(=O)[C@@]4(C([H])([H])[H])C([H])([H])C([H])([H])C3([H])[C@@]2(C([H])([H])[H])C([H])([H])C([H])([H])C1=O


 21 24  0  0  0  0  0  0  0  0999 V2000
    4.0526   -0.8066   16.8740 C   0  0  0  0  0  0  0  0  0  0  0  0
    3.3664    0.4796   17.3590 C   0  0  0  0  0  0  0  0  0  0  0  0
    2.5405    0.9765   16.2183 C   0  0  0  0  0  0  0  0  0  0  0  0
    2.0999    2.3860   16.3208 C   0  0  0  0  0  0  0  0  0  0  0  0
    3.1381    3.3533   16.7776 C   0  0  0  0  0  0  0  0  0  0  0  0
    4.4353    2.7483   17.1741 C   0  0  0  0  0  0  0  0  0  0  0  0
    5.1073    3.7466   18.1315 C   0  0  0  0  0  0  0  0  0  0  0  0
    5.4601    4.9465   17.3204 C   0  0  0  0  0  0  0  0  0  0  0  0
    4.4172    5.3658   16.3527 C   0  0  0  0  0  0  0  0  0  0  0  0
    4.4507    6.6673   16.0110 C   0  0  0  0  0  0  0  0  0  0  0  0
    3.5010    7.2324   15.0778 C   0  0  0  0  0  0  0  0  0  0  0  0
    3.5589    8.4218   14.7026 O   0  0  0  0  0  0  0  0  0  0  0  0
    2.4237    6.3672   14.5507 C   0  0  0  0  0  0  0  0  0  0  0  0
    2.1420    5.2866   15.5643 C   0  0  0  0  0  0  0  0  0  0  0  0
    3.3923    4.4593   15.7741 C   0  0  0  0  0  0  0  0  0  0  0  0
    3.8757    3.8554   14.4723 C   0  0  0  0  0  0  0  0  0  0  0  0
    4.3563    1.4528   17.8861 C   0  0  0  0  0  0  0  0  0  0  0  0
    4.0476    1.6784   19.3530 C   0  0  0  0  0  0  0  0  0  0  0  0
    3.4261    0.3332   19.7230 C   0  0  0  0  0  0  0  0  0  0  0  0
    2.5620    0.0942   18.5420 C   0  0  0  0  0  0  0  0  0  0  0  0
    1.4315   -0.3322   18.5888 O   0  0  0  0  0  0  0  0  0  0  0  0
  2  1  1  0  0  0
  2  3  1  0  0  0
  3  4  1  0  0  0
  4  5  1  0  0  0
  5  6  1  0  0  0
  6  7  1  0  0  0
  7  8  1  0  0  0
  8  9  1  0  0  0
  9 10  2  0  0  0
 10 11  1  0  0  0
 11 12  2  0  0  0
 11 13  1  0  0  0
 13 14  1  0  0  0
 14 15  1  0  0  0
 15 16  1  0  0  0
  6 17  1  0  0  0
 17 18  1  0  0  0
 18 19  1  0  0  0
 19 20  1  0  0  0
 20 21  2  0  0  0
 17  2  1  0  0  0
 20  2  1  0  0  0
 15  5  1  0  0  0
 15  9  1  0  0  0
M  END
> <minimizedAffinity>
-6.69853

> <CNNscore>
0.4923655093

> <CNNaffinity>
5.5546712875

> <CNN_VS>
2.7349286079

> <CNNaffinity_variance>
0.1627667397

$$$$
[H]C1=C2C([H])([H])C([H])([H])C3([H])C4([H])C([H])([H])C([H])([H])C(=O)[C@@]4(C([H])([H])[H])C([H])([H])C([H])([H])C3([H])[C@@]2(C([H])([H])[H])C([H])([H])C([H])([H])C1=O


 21 24  0  0  0  0  0  0  0  0999 V2000
    6.4081    1.6772   22.1447 C   0  0  0  0  0  0  0  0  0  0  0  0
    5.1573    2.2257   21.4411 C   0  0  0  0  0  0  0  0  0  0  0  0
    4.6096    1.1080   20.6159 C   0  0  0  0  0  0  0  0  0  0  0  0
    3.6435    1.5076   19.5678 C   0  0  0  0  0  0  0  0  0  0  0  0
    4.0163    2.7137   18.7749 C   0  0  0  0  0  0  0  0  0  0  0  0
    5.2488    3.4100   19.2246 C   0  0  0  0  0  0  0  0  0  0  0  0
    5.1348    4.8613   18.7293 C   0  0  0  0  0  0  0  0  0  0  0  0
    5.2251    4.8146   17.2421 C   0  0  0  0  0  0  0  0  0  0  0  0
    4.4657    3.7072   16.6122 C   0  0  0  0  0  0  0  0  0  0  0  0
    4.0919    3.9284   15.3381 C   0  0  0  0  0  0  0  0  0  0  0  0
    3.3449    2.9458   14.5840 C   0  0  0  0  0  0  0  0  0  0  0  0
    3.0467    3.1099   13.3828 O   0  0  0  0  0  0  0  0  0  0  0  0
    2.9206    1.7027   15.2635 C   0  0  0  0  0  0  0  0  0  0  0  0
    2.7808    1.9896   16.7374 C   0  0  0  0  0  0  0  0  0  0  0  0
    4.1191    2.4315   17.2901 C   0  0  0  0  0  0  0  0  0  0  0  0
    5.1852    1.3832   17.0504 C   0  0  0  0  0  0  0  0  0  0  0  0
    5.4638    3.4683   20.6880 C   0  0  0  0  0  0  0  0  0  0  0  0
    4.6448    4.5907   21.2943 C   0  0  0  0  0  0  0  0  0  0  0  0
    4.5189    4.1040   22.7365 C   0  0  0  0  0  0  0  0  0  0  0  0
    4.2398    2.6641   22.5185 C   0  0  0  0  0  0  0  0  0  0  0  0
    3.4158    2.0210   23.1265 O   0  0  0  0  0  0  0  0  0  0  0  0
  2  1  1  0  0  0
  2  3  1  0  0  0
  3  4  1  0  0  0
  4  5  1  0  0  0
  5  6  1  0  0  0
  6  7  1  0  0  0
  7  8  1  0  0  0
  8  9  1  0  0  0
  9 10  2  0  0  0
 10 11  1  0  0  0
 11 12  2  0  0  0
 11 13  1  0  0  0
 13 14  1  0  0  0
 14 15  1  0  0  0
 15 16  1  0  0  0
  6 17  1  0  0  0
 17 18  1  0  0  0
 18 19  1  0  0  0
 19 20  1  0  0  0
 20 21  2  0  0  0
 17  2  1  0  0  0
 20  2  1  0  0  0
 15  5  1  0  0  0
 15  9  1  0  0  0
M  END
> <minimizedAffinity>
-8.00518

> <CNNscore>
0.4807648659

> <CNNaffinity>
6.0971689224

> <CNN_VS>
2.9313046932

> <CNNaffinity_variance>
0.2199234664

$$$$
[H]C1=C2C([H])([H])C([H])([H])C3([H])C4([H])C([H])([H])C([H])([H])C(=O)[C@@]4(C([H])([H])[H])C([H])([H])C([H])([H])C3([H])[C@@]2(C([H])([H])[H])C([H])([H])C([H])([H])C1=O


 21 24  0  0  0  0  0  0  0  0999 V2000
    2.7217    7.7143   10.4739 C   0  0  0  0  0  0  0  0  0  0  0  0
    3.5717    6.9895    9.4192 C   0  0  0  0  0  0  0  0  0  0  0  0
    4.9028    7.6664    9.4081 C   0  0  0  0  0  0  0  0  0  0  0  0
    5.7434    7.3933    8.2205 C   0  0  0  0  0  0  0  0  0  0  0  0
    5.0369    7.4348    6.9085 C   0  0  0  0  0  0  0  0  0  0  0  0
    3.5669    7.6318    6.9879 C   0  0  0  0  0  0  0  0  0  0  0  0
    2.9800    7.0639    5.6849 C   0  0  0  0  0  0  0  0  0  0  0  0
    3.4414    7.9558    4.5831 C   0  0  0  0  0  0  0  0  0  0  0  0
    4.8581    8.3825    4.6867 C   0  0  0  0  0  0  0  0  0  0  0  0
    5.4378    8.7139    3.5179 C   0  0  0  0  0  0  0  0  0  0  0  0
    6.8149    9.1507    3.4499 C   0  0  0  0  0  0  0  0  0  0  0  0
    7.3468    9.5220    2.3830 O   0  0  0  0  0  0  0  0  0  0  0  0
    7.6195    9.1565    4.6907 C   0  0  0  0  0  0  0  0  0  0  0  0
    7.0605    8.1133    5.6255 C   0  0  0  0  0  0  0  0  0  0  0  0
    5.6242    8.4572    5.9574 C   0  0  0  0  0  0  0  0  0  0  0  0
    5.5183    9.8362    6.5740 C   0  0  0  0  0  0  0  0  0  0  0  0
    2.8798    6.9467    8.1059 C   0  0  0  0  0  0  0  0  0  0  0  0
    2.6357    5.4914    7.7587 C   0  0  0  0  0  0  0  0  0  0  0  0
    2.5241    4.8809    9.1542 C   0  0  0  0  0  0  0  0  0  0  0  0
    3.6370    5.5729    9.8480 C   0  0  0  0  0  0  0  0  0  0  0  0
    4.4160    5.0407   10.6043 O   0  0  0  0  0  0  0  0  0  0  0  0
  2  1  1  0  0  0
  2  3  1  0  0  0
  3  4  1  0  0  0
  4  5  1  0  0  0
  5  6  1  0  0  0
  6  7  1  0  0  0
  7  8  1  0  0  0
  8  9  1  0  0  0
  9 10  2  0  0  0
 10 11  1  0  0  0
 11 12  2  0  0  0
 11 13  1  0  0  0
 13 14  1  0  0  0
 14 15  1  0  0  0
 15 16  1  0  0  0
  6 17  1  0  0  0
 17 18  1  0  0  0
 18 19  1  0  0  0
 19 20  1  0  0  0
 20 21  2  0  0  0
 17  2  1  0  0  0
 20  2  1  0  0  0
 15  5  1  0  0  0
 15  9  1  0  0  0
M  END
> <minimizedAffinity>
-4.67023

> <CNNscore>
0.4760268629

> <CNNaffinity>
4.4512243271

> <CNN_VS>
2.1189024448

> <CNNaffinity_variance>
0.0685813501

$$$$
[H]C1=C2C([H])([H])C([H])([H])C3([H])C4([H])C([H])([H])C([H])([H])C(=O)[C@@]4(C([H])([H])[H])C([H])([H])C([H])([H])C3([H])[C@@]2(C([H])([H])[H])C([H])([H])C([H])([H])C1=O


 21 24  0  0  0  0  0  0  0  0999 V2000
    4.7510    5.5095   16.0045 C   0  0  0  0  0  0  0  0  0  0  0  0
    3.8666    4.8086   17.0470 C   0  0  0  0  0  0  0  0  0  0  0  0
    3.8322    5.7011   18.2438 C   0  0  0  0  0  0  0  0  0  0  0  0
    3.3644    5.0651   19.4961 C   0  0  0  0  0  0  0  0  0  0  0  0
    3.9155    3.7081   19.7737 C   0  0  0  0  0  0  0  0  0  0  0  0
    4.7673    3.1394   18.6981 C   0  0  0  0  0  0  0  0  0  0  0  0
    4.7299    1.6122   18.8741 C   0  0  0  0  0  0  0  0  0  0  0  0
    5.4437    1.3103   20.1476 C   0  0  0  0  0  0  0  0  0  0  0  0
    5.1350    2.2379   21.2629 C   0  0  0  0  0  0  0  0  0  0  0  0
    5.3140    1.7242   22.4942 C   0  0  0  0  0  0  0  0  0  0  0  0
    5.0566    2.5014   23.6865 C   0  0  0  0  0  0  0  0  0  0  0  0
    5.2787    2.0604   24.8333 O   0  0  0  0  0  0  0  0  0  0  0  0
    4.5105    3.8678   23.5384 C   0  0  0  0  0  0  0  0  0  0  0  0
    3.7340    3.9329   22.2473 C   0  0  0  0  0  0  0  0  0  0  0  0
    4.6628    3.6358   21.0894 C   0  0  0  0  0  0  0  0  0  0  0  0
    5.8286    4.6018   21.0590 C   0  0  0  0  0  0  0  0  0  0  0  0
    4.3376    3.4252   17.3107 C   0  0  0  0  0  0  0  0  0  0  0  0
    3.2325    2.4734   16.8972 C   0  0  0  0  0  0  0  0  0  0  0  0
    2.5584    3.2833   15.7915 C   0  0  0  0  0  0  0  0  0  0  0  0
    2.5416    4.6317   16.4083 C   0  0  0  0  0  0  0  0  0  0  0  0
    1.6062    5.3969   16.3691 O   0  0  0  0  0  0  0  0  0  0  0  0
  2  1  1  0  0  0
  2  3  1  0  0  0
  3  4  1  0  0  0
  4  5  1  0  0  0
  5  6  1  0  0  0
  6  7  1  0  0  0
  7  8  1  0  0  0
  8  9  1  0  0  0
  9 10  2  0  0  0
 10 11  1  0  0  0
 11 12  2  0  0  0
 11 13  1  0  0  0
 13 14  1  0  0  0
 14 15  1  0  0  0
 15 16  1  0  0  0
  6 17  1  0  0  0
 17 18  1  0  0  0
 18 19  1  0  0  0
 19 20  1  0  0  0
 20 21  2  0  0  0
 17  2  1  0  0  0
 20  2  1  0  0  0
 15  5  1  0  0  0
 15  9  1  0  0  0
M  END
> <minimizedAffinity>
-7.99492

> <CNNscore>
0.4682837129

> <CNNaffinity>
6.0199255943

> <CNN_VS>
2.8190331459

> <CNNaffinity_variance>
0.0689372048

$$$$
[H]C1=C2C([H])([H])C([H])([H])C3([H])C4([H])C([H])([H])C([H])([H])C(=O)[C@@]4(C([H])([H])[H])C([H])([H])C([H])([H])C3([H])[C@@]2(C([H])([H])[H])C([H])([H])C([H])([H])C1=O


 21 24  0  0  0  0  0  0  0  0999 V2000
    4.7620    0.3170   16.9235 C   0  0  0  0  0  0  0  0  0  0  0  0
    3.8960    1.2344   17.8003 C   0  0  0  0  0  0  0  0  0  0  0  0
    3.6732    2.4853   17.0156 C   0  0  0  0  0  0  0  0  0  0  0  0
    3.1976    3.6487   17.7979 C   0  0  0  0  0  0  0  0  0  0  0  0
    3.8844    3.8714   19.1021 C   0  0  0  0  0  0  0  0  0  0  0  0
    4.8703    2.8282   19.4839 C   0  0  0  0  0  0  0  0  0  0  0  0
    5.0012    2.8917   21.0148 C   0  0  0  0  0  0  0  0  0  0  0  0
    5.6552    4.1925   21.3350 C   0  0  0  0  0  0  0  0  0  0  0  0
    5.1622    5.3434   20.5398 C   0  0  0  0  0  0  0  0  0  0  0  0
    5.3145    6.5452   21.1266 C   0  0  0  0  0  0  0  0  0  0  0  0
    4.8847    7.7659   20.4808 C   0  0  0  0  0  0  0  0  0  0  0  0
    5.0769    8.8923   20.9840 O   0  0  0  0  0  0  0  0  0  0  0  0
    4.1928    7.6730   19.1770 C   0  0  0  0  0  0  0  0  0  0  0  0
    3.5058    6.3328   19.0970 C   0  0  0  0  0  0  0  0  0  0  0  0
    4.5416    5.2332   19.1945 C   0  0  0  0  0  0  0  0  0  0  0  0
    5.5844    5.3630   18.1042 C   0  0  0  0  0  0  0  0  0  0  0  0
    4.5075    1.4352   19.1386 C   0  0  0  0  0  0  0  0  0  0  0  0
    3.5540    0.8697   20.1725 C   0  0  0  0  0  0  0  0  0  0  0  0
    2.8677   -0.2250   19.3581 C   0  0  0  0  0  0  0  0  0  0  0  0
    2.6489    0.4828   18.0736 C   0  0  0  0  0  0  0  0  0  0  0  0
    1.6347    0.4250   17.4177 O   0  0  0  0  0  0  0  0  0  0  0  0
  2  1  1  0  0  0
  2  3  1  0  0  0
  3  4  1  0  0  0
  4  5  1  0  0  0
  5  6  1  0  0  0
  6  7  1  0  0  0
  7  8  1  0  0  0
  8  9  1  0  0  0
  9 10  2  0  0  0
 10 11  1  0  0  0
 11 12  2  0  0  0
 11 13  1  0  0  0
 13 14  1  0  0  0
 14 15  1  0  0  0
 15 16  1  0  0  0
  6 17  1  0  0  0
 17 18  1  0  0  0
 18 19  1  0  0  0
 19 20  1  0  0  0
 20 21  2  0  0  0
 17  2  1  0  0  0
 20  2  1  0  0  0
 15  5  1  0  0  0
 15  9  1  0  0  0
M  END
> <minimizedAffinity>
-7.14345

> <CNNscore>
0.4284768701

> <CNNaffinity>
5.7654962540

> <CNN_VS>
2.4703817368

> <CNNaffinity_variance>
0.1590848565

$$$$
[H]C1=C2C([H])([H])C([H])([H])C3([H])C4([H])C([H])([H])C([H])([H])C(=O)[C@@]4(C([H])([H])[H])C([H])([H])C([H])([H])C3([H])[C@@]2(C([H])([H])[H])C([H])([H])C([H])([H])C1=O


 21 24  0  0  0  0  0  0  0  0999 V2000
   -0.6275   -4.2553   10.0817 C   0  0  0  0  0  0  0  0  0  0  0  0
   -0.0729   -3.3194    8.9969 C   0  0  0  0  0  0  0  0  0  0  0  0
    1.2632   -3.8626    8.6097 C   0  0  0  0  0  0  0  0  0  0  0  0
    2.1387   -2.9258    7.8697 C   0  0  0  0  0  0  0  0  0  0  0  0
    2.1866   -1.5338    8.4009 C   0  0  0  0  0  0  0  0  0  0  0  0
    1.2613   -1.2552    9.5289 C   0  0  0  0  0  0  0  0  0  0  0  0
    1.0165    0.2629    9.5270 C   0  0  0  0  0  0  0  0  0  0  0  0
    2.3077    0.9053    9.9045 C   0  0  0  0  0  0  0  0  0  0  0  0
    3.5055    0.3015    9.2718 C   0  0  0  0  0  0  0  0  0  0  0  0
    4.5624    1.1269    9.1550 C   0  0  0  0  0  0  0  0  0  0  0  0
    5.8059    0.6894    8.5598 C   0  0  0  0  0  0  0  0  0  0  0  0
    6.8146    1.4231    8.5026 O   0  0  0  0  0  0  0  0  0  0  0  0
    5.8822   -0.6772    7.9997 C   0  0  0  0  0  0  0  0  0  0  0  0
    4.4963   -1.0972    7.5787 C   0  0  0  0  0  0  0  0  0  0  0  0
    3.5857   -1.1008    8.7879 C   0  0  0  0  0  0  0  0  0  0  0  0
    4.1143   -2.0184    9.8704 C   0  0  0  0  0  0  0  0  0  0  0  0
   -0.0658   -1.9071    9.4557 C   0  0  0  0  0  0  0  0  0  0  0  0
   -0.9873   -1.1201    8.5450 C   0  0  0  0  0  0  0  0  0  0  0  0
   -1.9796   -2.2068    8.1364 C   0  0  0  0  0  0  0  0  0  0  0  0
   -1.0590   -3.3431    7.8915 C   0  0  0  0  0  0  0  0  0  0  0  0
   -1.1402   -4.1086    6.9590 O   0  0  0  0  0  0  0  0  0  0  0  0
  2  1  1  0  0  0
  2  3  1  0  0  0
  3  4  1  0  0  0
  4  5  1  0  0  0
  5  6  1  0  0  0
  6  7  1  0  0  0
  7  8  1  0  0  0
  8  9  1  0  0  0
  9 10  2  0  0  0
 10 11  1  0  0  0
 11 12  2  0  0  0
 11 13  1  0  0  0
 13 14  1  0  0  0
 14 15  1  0  0  0
 15 16  1  0  0  0
  6 17  1  0  0  0
 17 18  1  0  0  0
 18 19  1  0  0  0
 19 20  1  0  0  0
 20 21  2  0  0  0
 17  2  1  0  0  0
 20  2  1  0  0  0
 15  5  1  0  0  0
 15  9  1  0  0  0
M  END
> <minimizedAffinity>
-4.70045

> <CNNscore>
0.3932809234

> <CNNaffinity>
4.2627897263

> <CNN_VS>
1.6764738560

> <CNNaffinity_variance>
0.0888817534

$$$$
[H]C1=C2C([H])([H])C([H])([H])C3([H])C4([H])C([H])([H])C([H])([H])C(=O)[C@@]4(C([H])([H])[H])C([H])([H])C([H])([H])C3([H])[C@@]2(C([H])([H])[H])C([H])([H])C([H])([H])C1=O


 21 24  0  0  0  0  0  0  0  0999 V2000
    6.9854    4.1618   22.1930 C   0  0  0  0  0  0  0  0  0  0  0  0
    5.6091    3.6577   21.7325 C   0  0  0  0  0  0  0  0  0  0  0  0
    5.8634    2.5088   20.8130 C   0  0  0  0  0  0  0  0  0  0  0  0
    4.7204    2.1152   19.9585 C   0  0  0  0  0  0  0  0  0  0  0  0
    3.9738    3.2389   19.3244 C   0  0  0  0  0  0  0  0  0  0  0  0
    4.4123    4.5985   19.7309 C   0  0  0  0  0  0  0  0  0  0  0  0
    3.2173    5.5341   19.4832 C   0  0  0  0  0  0  0  0  0  0  0  0
    3.0266    5.6032   18.0063 C   0  0  0  0  0  0  0  0  0  0  0  0
    3.1664    4.3041   17.3046 C   0  0  0  0  0  0  0  0  0  0  0  0
    2.5106    4.2191   16.1321 C   0  0  0  0  0  0  0  0  0  0  0  0
    2.5472    3.0185   15.3264 C   0  0  0  0  0  0  0  0  0  0  0  0
    1.9972    2.9467   14.2078 O   0  0  0  0  0  0  0  0  0  0  0  0
    3.2628    1.8347   15.8495 C   0  0  0  0  0  0  0  0  0  0  0  0
    3.2481    1.8968   17.3562 C   0  0  0  0  0  0  0  0  0  0  0  0
    3.9578    3.1538   17.8121 C   0  0  0  0  0  0  0  0  0  0  0  0
    5.3788    3.2015   17.2910 C   0  0  0  0  0  0  0  0  0  0  0  0
    4.7991    4.7581   21.1509 C   0  0  0  0  0  0  0  0  0  0  0  0
    3.5652    4.9308   22.0144 C   0  0  0  0  0  0  0  0  0  0  0  0
    4.0986    4.4675   23.3685 C   0  0  0  0  0  0  0  0  0  0  0  0
    4.8799    3.2740   22.9638 C   0  0  0  0  0  0  0  0  0  0  0  0
    4.8861    2.2198   23.5559 O   0  0  0  0  0  0  0  0  0  0  0  0
  2  1  1  0  0  0
  2  3  1  0  0  0
  3  4  1  0  0  0
  4  5  1  0  0  0
  5  6  1  0  0  0
  6  7  1  0  0  0
  7  8  1  0  0  0
  8  9  1  0  0  0
  9 10  2  0  0  0
 10 11  1  0  0  0
 11 12  2  0  0  0
 11 13  1  0  0  0
 13 14  1  0  0  0
 14 15  1  0  0  0
 15 16  1  0  0  0
  6 17  1  0  0  0
 17 18  1  0  0  0
 18 19  1  0  0  0
 19 20  1  0  0  0
 20 21  2  0  0  0
 17  2  1  0  0  0
 20  2  1  0  0  0
 15  5  1  0  0  0
 15  9  1  0  0  0
M  END
> <minimizedAffinity>
-8.62891

> <CNNscore>
0.3861597180

> <CNNaffinity>
5.7188119888

> <CNN_VS>
2.2083747387

> <CNNaffinity_variance>
0.1518935114

$$$$
[H]OC(=O)C([H])([H])[C@@]([H])(C(=O)N1C([H])([H])C([H])([H])C([H])([H])[C@@]1([H])C(=O)N([H])[C@]([H])(C(=O)O[H])C([H])(C([H])([H])[H])C([H])([H])[H])N([H])C(=O)[C@@]([H])(N([H])C(=O)[C@@]([H])(N([H])C(=O)c1c(O[H])c2c([H])c([H])c([H])c([H])c2n1[H])C([H])([H])c1c([H])c([H])c([H])c([H])c1[H])C([H])([H])C([H])(C([H])([H])[H])C([H])([H])[H]


 62 65  0  0  0  0  0  0  0  0999 V2000
    3.1351    4.6692   15.2176 C   0  0  0  0  0  0  0  0  0  0  0  0
    2.1316    5.4806   14.5579 C   0  0  0  0  0  0  0  0  0  0  0  0
    0.9071    5.5152   15.0359 O   0  0  0  0  0  0  0  0  0  0  0  0
    2.3323    6.2614   13.4411 N   0  0  0  0  0  0  0  0  0  0  0  0
    3.2708    6.2632   12.9961 H   0  0  0  0  0  0  0  0  0  0  0  0
    1.3068    7.1140   12.8308 C   0  0  0  0  0  0  0  0  0  0  0  0
    0.8330    6.5153   11.5983 C   0  0  0  0  0  0  0  0  0  0  0  0
   -0.3048    5.9086   11.5966 O   0  0  0  0  0  0  0  0  0  0  0  0
    1.5839    6.5861   10.3964 N   0  0  0  0  0  0  0  0  0  0  0  0
    2.8730    7.2074   10.2181 C   0  0  0  0  0  0  0  0  0  0  0  0
    2.8180    7.7451    8.7948 C   0  0  0  0  0  0  0  0  0  0  0  0
    1.8574    6.8383    8.0928 C   0  0  0  0  0  0  0  0  0  0  0  0
    1.1233    6.0655    9.1236 C   0  0  0  0  0  0  0  0  0  0  0  0
    1.2077    4.6065    9.0257 C   0  0  0  0  0  0  0  0  0  0  0  0
    2.0005    4.1310    8.1369 O   0  0  0  0  0  0  0  0  0  0  0  0
    0.4660    3.7267    9.8551 N   0  0  0  0  0  0  0  0  0  0  0  0
   -0.2063    4.0894   10.5454 H   0  0  0  0  0  0  0  0  0  0  0  0
    0.6717    2.2782    9.7094 C   0  0  0  0  0  0  0  0  0  0  0  0
   -0.6404    1.6221    9.4033 C   0  0  0  0  0  0  0  0  0  0  0  0
   -0.7355    0.2544    9.8003 O   0  0  0  0  0  0  0  0  0  0  0  0
   -1.5944    2.1422    8.8646 O   0  0  0  0  0  0  0  0  0  0  0  0
   -0.0600   -0.3862    9.3722 H   0  0  0  0  0  0  0  0  0  0  0  0
    1.3315    1.7242   10.9232 C   0  0  0  0  0  0  0  0  0  0  0  0
    2.8060    1.3989   10.6504 C   0  0  0  0  0  0  0  0  0  0  0  0
    1.2306    2.6129   12.1244 C   0  0  0  0  0  0  0  0  0  0  0  0
    1.8012    8.5104   12.6696 C   0  0  0  0  0  0  0  0  0  0  0  0
    2.8319    8.9049   13.6258 C   0  0  0  0  0  0  0  0  0  0  0  0
    4.1486    9.1066   13.1405 O   0  0  0  0  0  0  0  0  0  0  0  0
    2.6903    9.0932   14.8412 O   0  0  0  0  0  0  0  0  0  0  0  0
    4.6692    9.9232   13.4748 H   0  0  0  0  0  0  0  0  0  0  0  0
    4.2733    5.4902   15.6829 N   0  0  0  0  0  0  0  0  0  0  0  0
    4.1113    6.2709   16.8565 C   0  0  0  0  0  0  0  0  0  0  0  0
    3.0764    6.3024   17.5128 O   0  0  0  0  0  0  0  0  0  0  0  0
    5.1204    5.4439   15.1573 H   0  0  0  0  0  0  0  0  0  0  0  0
    5.3008    7.1012   17.3258 C   0  0  0  0  0  0  0  0  0  0  0  0
    5.0247    8.0474   18.2183 N   0  0  0  0  0  0  0  0  0  0  0  0
    4.5366    9.1067   19.0487 C   0  0  0  0  0  0  0  0  0  0  0  0
    3.4779    9.7001   18.8526 O   0  0  0  0  0  0  0  0  0  0  0  0
    3.7062    8.0977   17.6817 H   0  0  0  0  0  0  0  0  0  0  0  0
    5.3261    9.5323   20.2098 C   0  0  0  0  0  0  0  0  0  0  0  0
    6.2681   10.4916   20.1593 N   0  0  0  0  0  0  0  0  0  0  0  0
    6.8389   10.6961   21.3409 C   0  0  0  0  0  0  0  0  0  0  0  0
    7.8620   11.5417   21.7990 C   0  0  0  0  0  0  0  0  0  0  0  0
    8.2243   11.4602   23.1388 C   0  0  0  0  0  0  0  0  0  0  0  0
    7.6687   10.6280   24.0390 C   0  0  0  0  0  0  0  0  0  0  0  0
    6.6219    9.7648   23.5748 C   0  0  0  0  0  0  0  0  0  0  0  0
    6.2672    9.8489   22.2465 C   0  0  0  0  0  0  0  0  0  0  0  0
    5.2946    9.1043   21.5124 C   0  0  0  0  0  0  0  0  0  0  0  0
    4.5404    8.1633   22.1198 O   0  0  0  0  0  0  0  0  0  0  0  0
    6.5171   11.0438   19.2784 H   0  0  0  0  0  0  0  0  0  0  0  0
    3.8520    7.5619   21.8133 H   0  0  0  0  0  0  0  0  0  0  0  0
    6.3743    6.1498   17.7172 C   0  0  0  0  0  0  0  0  0  0  0  0
    6.9911    6.3808   19.0341 C   0  0  0  0  0  0  0  0  0  0  0  0
    6.4468    5.7760   20.1230 C   0  0  0  0  0  0  0  0  0  0  0  0
    7.0164    5.9372   21.4017 C   0  0  0  0  0  0  0  0  0  0  0  0
    8.1475    6.7235   21.5528 C   0  0  0  0  0  0  0  0  0  0  0  0
    8.6790    7.3297   20.4079 C   0  0  0  0  0  0  0  0  0  0  0  0
    8.1060    7.1629   19.1512 C   0  0  0  0  0  0  0  0  0  0  0  0
    2.8236    3.5936   16.1377 C   0  0  0  0  0  0  0  0  0  0  0  0
    2.8438    1.1667   16.0587 C   0  0  0  0  0  0  0  0  0  0  0  0
    3.7188    2.4164   16.2273 C   0  0  0  0  0  0  0  0  0  0  0  0
    4.5700    2.2408   17.4214 C   0  0  0  0  0  0  0  0  0  0  0  0
 60 61  1  0  0  0
 61 62  1  0  0  0
 61 59  1  0  0  0
 59  1  1  0  0  0
  1 31  1  0  0  0
 31 32  1  0  0  0
 32 33  2  0  0  0
 32 35  1  0  0  0
 35 52  1  0  0  0
 52 53  1  0  0  0
 53 54  2  0  0  0
 54 55  1  0  0  0
 55 56  2  0  0  0
 56 57  1  0  0  0
 57 58  2  0  0  0
 35 36  1  0  0  0
 36 37  1  0  0  0
 37 38  2  0  0  0
 37 40  1  0  0  0
 40 41  1  0  0  0
 41 42  1  0  0  0
 42 43  2  0  0  0
 43 44  1  0  0  0
 44 45  2  0  0  0
 45 46  1  0  0  0
 46 47  2  0  0  0
 47 48  1  0  0  0
 48 49  1  0  0  0
  1  2  1  0  0  0
  2  3  2  0  0  0
  2  4  1  0  0  0
  4  6  1  0  0  0
  6 26  1  0  0  0
 26 27  1  0  0  0
 27 28  1  0  0  0
 27 29  2  0  0  0
  6  7  1  0  0  0
  7  8  2  0  0  0
  7  9  1  0  0  0
  9 10  1  0  0  0
 10 11  1  0  0  0
 11 12  1  0  0  0
 12 13  1  0  0  0
 13 14  1  0  0  0
 14 15  2  0  0  0
 14 16  1  0  0  0
 16 18  1  0  0  0
 18 23  1  0  0  0
 23 24  1  0  0  0
 23 25  1  0  0  0
 18 19  1  0  0  0
 19 20  1  0  0  0
 19 21  2  0  0  0
 58 53  1  0  0  0
 48 40  2  0  0  0
 13  9  1  0  0  0
 47 42  1  0  0  0
 31 34  1  0  0  0
 36 39  1  0  0  0
 41 50  1  0  0  0
 49 51  1  0  0  0
  4  5  1  0  0  0
 28 30  1  0  0  0
 16 17  1  0  0  0
 20 22  1  0  0  0
M  END
> <minimizedAffinity>
-8.02651

> <CNNscore>
0.1786459982

> <CNNaffinity>
6.5188918114

> <CNN_VS>
1.1645739079

> <CNNaffinity_variance>
0.3724461794

$$$$
[H]OC(=O)C([H])([H])[C@@]([H])(C(=O)N1C([H])([H])C([H])([H])C([H])([H])[C@@]1([H])C(=O)N([H])[C@]([H])(C(=O)O[H])C([H])(C([H])([H])[H])C([H])([H])[H])N([H])C(=O)[C@@]([H])(N([H])C(=O)[C@@]([H])(N([H])C(=O)c1c(O[H])c2c([H])c([H])c([H])c([H])c2n1[H])C([H])([H])c1c([H])c([H])c([H])c([H])c1[H])C([H])([H])C([H])(C([H])([H])[H])C([H])([H])[H]


 62 65  0  0  0  0  0  0  0  0999 V2000
    3.8474    5.5644   16.1905 C   0  0  0  0  0  0  0  0  0  0  0  0
    4.4267    6.6671   16.9316 C   0  0  0  0  0  0  0  0  0  0  0  0
    5.5555    7.2030   16.5224 O   0  0  0  0  0  0  0  0  0  0  0  0
    3.8948    7.2464   18.0624 N   0  0  0  0  0  0  0  0  0  0  0  0
    3.0156    6.8576   18.4555 H   0  0  0  0  0  0  0  0  0  0  0  0
    4.4798    8.3983   18.7568 C   0  0  0  0  0  0  0  0  0  0  0  0
    4.7611    8.0550   20.1370 C   0  0  0  0  0  0  0  0  0  0  0  0
    4.5026    8.9180   21.0596 O   0  0  0  0  0  0  0  0  0  0  0  0
    5.3052    6.7950   20.4975 N   0  0  0  0  0  0  0  0  0  0  0  0
    5.6667    5.7223   19.6042 C   0  0  0  0  0  0  0  0  0  0  0  0
    5.3635    4.4668   20.4103 C   0  0  0  0  0  0  0  0  0  0  0  0
    5.5178    4.8950   21.8353 C   0  0  0  0  0  0  0  0  0  0  0  0
    5.5391    6.3773   21.8664 C   0  0  0  0  0  0  0  0  0  0  0  0
    6.7194    6.9985   22.4717 C   0  0  0  0  0  0  0  0  0  0  0  0
    7.8269    6.3603   22.3674 O   0  0  0  0  0  0  0  0  0  0  0  0
    6.6823    8.2444   23.1486 N   0  0  0  0  0  0  0  0  0  0  0  0
    5.7954    8.7510   23.2788 H   0  0  0  0  0  0  0  0  0  0  0  0
    7.9392    8.8029   23.6683 C   0  0  0  0  0  0  0  0  0  0  0  0
    7.7986    9.0482   25.1400 C   0  0  0  0  0  0  0  0  0  0  0  0
    6.4739    8.8989   25.6503 O   0  0  0  0  0  0  0  0  0  0  0  0
    8.6889    9.3524   25.9051 O   0  0  0  0  0  0  0  0  0  0  0  0
    5.7653    9.5221   25.2510 H   0  0  0  0  0  0  0  0  0  0  0  0
    8.3167   10.0249   22.9069 C   0  0  0  0  0  0  0  0  0  0  0  0
    9.1777    9.6715   21.6870 C   0  0  0  0  0  0  0  0  0  0  0  0
    7.1458   10.8497   22.4692 C   0  0  0  0  0  0  0  0  0  0  0  0
    3.6224    9.6069   18.6006 C   0  0  0  0  0  0  0  0  0  0  0  0
    3.6061   10.1711   17.2538 C   0  0  0  0  0  0  0  0  0  0  0  0
    4.7080    9.8987   16.4043 O   0  0  0  0  0  0  0  0  0  0  0  0
    2.7208   10.8742   16.7493 O   0  0  0  0  0  0  0  0  0  0  0  0
    4.5187    9.6517   15.4281 H   0  0  0  0  0  0  0  0  0  0  0  0
    3.2750    6.0188   14.9052 N   0  0  0  0  0  0  0  0  0  0  0  0
    1.8687    5.9539   14.7283 C   0  0  0  0  0  0  0  0  0  0  0  0
    1.0955    5.5424   15.5859 O   0  0  0  0  0  0  0  0  0  0  0  0
    3.9069    6.3732   14.2188 H   0  0  0  0  0  0  0  0  0  0  0  0
    1.2978    6.4381   13.4002 C   0  0  0  0  0  0  0  0  0  0  0  0
    2.1929    6.8339   12.5001 N   0  0  0  0  0  0  0  0  0  0  0  0
    2.9762    7.2630   11.3810 C   0  0  0  0  0  0  0  0  0  0  0  0
    2.5111    7.4972   10.2674 O   0  0  0  0  0  0  0  0  0  0  0  0
    1.1063    7.2049   11.6573 H   0  0  0  0  0  0  0  0  0  0  0  0
    4.4235    7.4413   11.5422 C   0  0  0  0  0  0  0  0  0  0  0  0
    5.3418    6.7653   10.8281 N   0  0  0  0  0  0  0  0  0  0  0  0
    6.5826    7.1064   11.1566 C   0  0  0  0  0  0  0  0  0  0  0  0
    7.8552    6.6870   10.7370 C   0  0  0  0  0  0  0  0  0  0  0  0
    8.9649    7.2665   11.3417 C   0  0  0  0  0  0  0  0  0  0  0  0
    8.9164    8.2045   12.3056 C   0  0  0  0  0  0  0  0  0  0  0  0
    7.6181    8.6367   12.7348 C   0  0  0  0  0  0  0  0  0  0  0  0
    6.5219    8.0589   12.1331 C   0  0  0  0  0  0  0  0  0  0  0  0
    5.1305    8.2702   12.3753 C   0  0  0  0  0  0  0  0  0  0  0  0
    4.7167    9.1627   13.3002 O   0  0  0  0  0  0  0  0  0  0  0  0
    5.1059    6.0516   10.0679 H   0  0  0  0  0  0  0  0  0  0  0  0
    3.8490    9.4435   13.6129 H   0  0  0  0  0  0  0  0  0  0  0  0
    0.3370    5.4046   12.9315 C   0  0  0  0  0  0  0  0  0  0  0  0
   -1.0725    5.8233   12.8543 C   0  0  0  0  0  0  0  0  0  0  0  0
   -1.8735    5.2444   11.9209 C   0  0  0  0  0  0  0  0  0  0  0  0
   -3.2374    5.5849   11.8251 C   0  0  0  0  0  0  0  0  0  0  0  0
   -3.7712    6.5233   12.6940 C   0  0  0  0  0  0  0  0  0  0  0  0
   -2.9149    7.0972   13.6416 C   0  0  0  0  0  0  0  0  0  0  0  0
   -1.5696    6.7526   13.7247 C   0  0  0  0  0  0  0  0  0  0  0  0
    4.4602    4.2552   16.0844 C   0  0  0  0  0  0  0  0  0  0  0  0
    4.4539    2.1777   17.3416 C   0  0  0  0  0  0  0  0  0  0  0  0
    3.6564    3.0400   16.3537 C   0  0  0  0  0  0  0  0  0  0  0  0
    3.2245    2.1906   15.2253 C   0  0  0  0  0  0  0  0  0  0  0  0
 60 61  1  0  0  0
 61 62  1  0  0  0
 61 59  1  0  0  0
 59  1  1  0  0  0
  1 31  1  0  0  0
 31 32  1  0  0  0
 32 33  2  0  0  0
 32 35  1  0  0  0
 35 52  1  0  0  0
 52 53  1  0  0  0
 53 54  2  0  0  0
 54 55  1  0  0  0
 55 56  2  0  0  0
 56 57  1  0  0  0
 57 58  2  0  0  0
 35 36  1  0  0  0
 36 37  1  0  0  0
 37 38  2  0  0  0
 37 40  1  0  0  0
 40 41  1  0  0  0
 41 42  1  0  0  0
 42 43  2  0  0  0
 43 44  1  0  0  0
 44 45  2  0  0  0
 45 46  1  0  0  0
 46 47  2  0  0  0
 47 48  1  0  0  0
 48 49  1  0  0  0
  1  2  1  0  0  0
  2  3  2  0  0  0
  2  4  1  0  0  0
  4  6  1  0  0  0
  6 26  1  0  0  0
 26 27  1  0  0  0
 27 28  1  0  0  0
 27 29  2  0  0  0
  6  7  1  0  0  0
  7  8  2  0  0  0
  7  9  1  0  0  0
  9 10  1  0  0  0
 10 11  1  0  0  0
 11 12  1  0  0  0
 12 13  1  0  0  0
 13 14  1  0  0  0
 14 15  2  0  0  0
 14 16  1  0  0  0
 16 18  1  0  0  0
 18 23  1  0  0  0
 23 24  1  0  0  0
 23 25  1  0  0  0
 18 19  1  0  0  0
 19 20  1  0  0  0
 19 21  2  0  0  0
 58 53  1  0  0  0
 48 40  2  0  0  0
 13  9  1  0  0  0
 47 42  1  0  0  0
 31 34  1  0  0  0
 36 39  1  0  0  0
 41 50  1  0  0  0
 49 51  1  0  0  0
  4  5  1  0  0  0
 28 30  1  0  0  0
 16 17  1  0  0  0
 20 22  1  0  0  0
M  END
> <minimizedAffinity>
-9.76457

> <CNNscore>
0.1691073477

> <CNNaffinity>
6.7304458618

> <CNN_VS>
1.1381678581

> <CNNaffinity_variance>
0.2452125847

$$$$
[H]OC(=O)C([H])([H])[C@@]([H])(C(=O)N1C([H])([H])C([H])([H])C([H])([H])[C@@]1([H])C(=O)N([H])[C@]([H])(C(=O)O[H])C([H])(C([H])([H])[H])C([H])([H])[H])N([H])C(=O)[C@@]([H])(N([H])C(=O)[C@@]([H])(N([H])C(=O)c1c(O[H])c2c([H])c([H])c([H])c([H])c2n1[H])C([H])([H])c1c([H])c([H])c([H])c([H])c1[H])C([H])([H])C([H])(C([H])([H])[H])C([H])([H])[H]


 62 65  0  0  0  0  0  0  0  0999 V2000
    4.0802    5.8981   16.3860 C   0  0  0  0  0  0  0  0  0  0  0  0
    2.9419    5.8293   15.4915 C   0  0  0  0  0  0  0  0  0  0  0  0
    1.7825    5.4079   15.9467 O   0  0  0  0  0  0  0  0  0  0  0  0
    2.9400    6.1821   14.1601 N   0  0  0  0  0  0  0  0  0  0  0  0
    3.8287    6.5016   13.7276 H   0  0  0  0  0  0  0  0  0  0  0  0
    1.7550    6.1520   13.2965 C   0  0  0  0  0  0  0  0  0  0  0  0
    1.9730    5.2452   12.1864 C   0  0  0  0  0  0  0  0  0  0  0  0
    2.5112    5.6994   11.1063 O   0  0  0  0  0  0  0  0  0  0  0  0
    1.6165    3.8738   12.2610 N   0  0  0  0  0  0  0  0  0  0  0  0
    0.9967    3.2013   13.3760 C   0  0  0  0  0  0  0  0  0  0  0  0
    1.5888    1.7997   13.3235 C   0  0  0  0  0  0  0  0  0  0  0  0
    1.9225    1.5920   11.8802 C   0  0  0  0  0  0  0  0  0  0  0  0
    1.8770    2.9124   11.2070 C   0  0  0  0  0  0  0  0  0  0  0  0
    0.9613    3.0318   10.0700 C   0  0  0  0  0  0  0  0  0  0  0  0
    1.4282    3.5730    9.0053 O   0  0  0  0  0  0  0  0  0  0  0  0
   -0.3837    2.5826   10.1035 N   0  0  0  0  0  0  0  0  0  0  0  0
   -0.7884    2.1838   10.9622 H   0  0  0  0  0  0  0  0  0  0  0  0
   -1.1975    2.6998    8.8845 C   0  0  0  0  0  0  0  0  0  0  0  0
   -2.4848    3.3919    9.2156 C   0  0  0  0  0  0  0  0  0  0  0  0
   -2.7946    3.4509   10.6077 O   0  0  0  0  0  0  0  0  0  0  0  0
   -3.2569    3.8886    8.4234 O   0  0  0  0  0  0  0  0  0  0  0  0
   -2.8963    2.5495   11.0844 H   0  0  0  0  0  0  0  0  0  0  0  0
   -1.3976    1.3613    8.2649 C   0  0  0  0  0  0  0  0  0  0  0  0
   -0.4698    1.1670    7.0583 C   0  0  0  0  0  0  0  0  0  0  0  0
   -1.2201    0.2211    9.2194 C   0  0  0  0  0  0  0  0  0  0  0  0
    1.3631    7.5282   12.8806 C   0  0  0  0  0  0  0  0  0  0  0  0
    2.2852    8.5777   13.3057 C   0  0  0  0  0  0  0  0  0  0  0  0
    3.4568    8.7870   12.5353 O   0  0  0  0  0  0  0  0  0  0  0  0
    2.1622    9.3295   14.2815 O   0  0  0  0  0  0  0  0  0  0  0  0
    3.7343    9.7508   12.3260 H   0  0  0  0  0  0  0  0  0  0  0  0
    3.8079    6.7813   17.5401 N   0  0  0  0  0  0  0  0  0  0  0  0
    4.1951    8.1438   17.4576 C   0  0  0  0  0  0  0  0  0  0  0  0
    4.7436    8.6350   16.4775 O   0  0  0  0  0  0  0  0  0  0  0  0
    3.3415    6.3815   18.3266 H   0  0  0  0  0  0  0  0  0  0  0  0
    3.8947    9.0401   18.6538 C   0  0  0  0  0  0  0  0  0  0  0  0
    4.3512    8.6072   19.8251 N   0  0  0  0  0  0  0  0  0  0  0  0
    4.8805    8.3679   21.1339 C   0  0  0  0  0  0  0  0  0  0  0  0
    5.2278    9.2583   21.9070 O   0  0  0  0  0  0  0  0  0  0  0  0
    4.2719    9.9496   20.2948 H   0  0  0  0  0  0  0  0  0  0  0  0
    5.0304    6.9874   21.6076 C   0  0  0  0  0  0  0  0  0  0  0  0
    4.0397    6.2877   22.1900 N   0  0  0  0  0  0  0  0  0  0  0  0
    4.4232    5.0616   22.5270 C   0  0  0  0  0  0  0  0  0  0  0  0
    3.7931    3.9809   23.1646 C   0  0  0  0  0  0  0  0  0  0  0  0
    4.5376    2.8267   23.3798 C   0  0  0  0  0  0  0  0  0  0  0  0
    5.8250    2.6613   23.0236 C   0  0  0  0  0  0  0  0  0  0  0  0
    6.4708    3.7624   22.3701 C   0  0  0  0  0  0  0  0  0  0  0  0
    5.7289    4.9039   22.1599 C   0  0  0  0  0  0  0  0  0  0  0  0
    6.1126    6.1459   21.5684 C   0  0  0  0  0  0  0  0  0  0  0  0
    7.3633    6.3293   21.0937 O   0  0  0  0  0  0  0  0  0  0  0  0
    3.0506    6.6621   22.3460 H   0  0  0  0  0  0  0  0  0  0  0  0
    7.8142    7.0714   20.6749 H   0  0  0  0  0  0  0  0  0  0  0  0
    4.3022   10.4209   18.2820 C   0  0  0  0  0  0  0  0  0  0  0  0
    5.4421   10.9792   19.0285 C   0  0  0  0  0  0  0  0  0  0  0  0
    6.6836   10.4795   18.7907 C   0  0  0  0  0  0  0  0  0  0  0  0
    7.8130   10.9993   19.4537 C   0  0  0  0  0  0  0  0  0  0  0  0
    7.6573   12.0347   20.3616 C   0  0  0  0  0  0  0  0  0  0  0  0
    6.3631   12.5228   20.5795 C   0  0  0  0  0  0  0  0  0  0  0  0
    5.2563   11.9997   19.9187 C   0  0  0  0  0  0  0  0  0  0  0  0
    4.8866    4.7510   16.7528 C   0  0  0  0  0  0  0  0  0  0  0  0
    5.0866    3.3892   18.7533 C   0  0  0  0  0  0  0  0  0  0  0  0
    4.2681    3.6144   17.4746 C   0  0  0  0  0  0  0  0  0  0  0  0
    4.1028    2.3194   16.7841 C   0  0  0  0  0  0  0  0  0  0  0  0
 60 61  1  0  0  0
 61 62  1  0  0  0
 61 59  1  0  0  0
 59  1  1  0  0  0
  1 31  1  0  0  0
 31 32  1  0  0  0
 32 33  2  0  0  0
 32 35  1  0  0  0
 35 52  1  0  0  0
 52 53  1  0  0  0
 53 54  2  0  0  0
 54 55  1  0  0  0
 55 56  2  0  0  0
 56 57  1  0  0  0
 57 58  2  0  0  0
 35 36  1  0  0  0
 36 37  1  0  0  0
 37 38  2  0  0  0
 37 40  1  0  0  0
 40 41  1  0  0  0
 41 42  1  0  0  0
 42 43  2  0  0  0
 43 44  1  0  0  0
 44 45  2  0  0  0
 45 46  1  0  0  0
 46 47  2  0  0  0
 47 48  1  0  0  0
 48 49  1  0  0  0
  1  2  1  0  0  0
  2  3  2  0  0  0
  2  4  1  0  0  0
  4  6  1  0  0  0
  6 26  1  0  0  0
 26 27  1  0  0  0
 27 28  1  0  0  0
 27 29  2  0  0  0
  6  7  1  0  0  0
  7  8  2  0  0  0
  7  9  1  0  0  0
  9 10  1  0  0  0
 10 11  1  0  0  0
 11 12  1  0  0  0
 12 13  1  0  0  0
 13 14  1  0  0  0
 14 15  2  0  0  0
 14 16  1  0  0  0
 16 18  1  0  0  0
 18 23  1  0  0  0
 23 24  1  0  0  0
 23 25  1  0  0  0
 18 19  1  0  0  0
 19 20  1  0  0  0
 19 21  2  0  0  0
 58 53  1  0  0  0
 48 40  2  0  0  0
 13  9  1  0  0  0
 47 42  1  0  0  0
 31 34  1  0  0  0
 36 39  1  0  0  0
 41 50  1  0  0  0
 49 51  1  0  0  0
  4  5  1  0  0  0
 28 30  1  0  0  0
 16 17  1  0  0  0
 20 22  1  0  0  0
M  END
> <minimizedAffinity>
-8.97780

> <CNNscore>
0.1327832490

> <CNNaffinity>
6.5962076187

> <CNN_VS>
0.8758658767

> <CNNaffinity_variance>
0.2256089896

$$$$
[H]OC(=O)C([H])([H])[C@@]([H])(C(=O)N1C([H])([H])C([H])([H])C([H])([H])[C@@]1([H])C(=O)N([H])[C@]([H])(C(=O)O[H])C([H])(C([H])([H])[H])C([H])([H])[H])N([H])C(=O)[C@@]([H])(N([H])C(=O)[C@@]([H])(N([H])C(=O)c1c(O[H])c2c([H])c([H])c([H])c([H])c2n1[H])C([H])([H])c1c([H])c([H])c([H])c([H])c1[H])C([H])([H])C([H])(C([H])([H])[H])C([H])([H])[H]


 62 65  0  0  0  0  0  0  0  0999 V2000
    3.6091    4.8946   14.7316 C   0  0  0  0  0  0  0  0  0  0  0  0
    3.7689    5.1582   16.1478 C   0  0  0  0  0  0  0  0  0  0  0  0
    2.7045    5.3255   16.9016 O   0  0  0  0  0  0  0  0  0  0  0  0
    4.9670    5.2469   16.8214 N   0  0  0  0  0  0  0  0  0  0  0  0
    5.8500    5.1485   16.2835 H   0  0  0  0  0  0  0  0  0  0  0  0
    5.0911    5.4607   18.2671 C   0  0  0  0  0  0  0  0  0  0  0  0
    5.9045    6.6323   18.5274 C   0  0  0  0  0  0  0  0  0  0  0  0
    7.1694    6.5806   18.2820 O   0  0  0  0  0  0  0  0  0  0  0  0
    5.3445    7.8324   19.0369 N   0  0  0  0  0  0  0  0  0  0  0  0
    3.9631    8.0640   19.3799 C   0  0  0  0  0  0  0  0  0  0  0  0
    3.7503    9.5324   19.0385 C   0  0  0  0  0  0  0  0  0  0  0  0
    5.1049   10.1484   19.1904 C   0  0  0  0  0  0  0  0  0  0  0  0
    6.1010    9.0515   19.2480 C   0  0  0  0  0  0  0  0  0  0  0  0
    6.9542    9.0093   20.4378 C   0  0  0  0  0  0  0  0  0  0  0  0
    8.1068    8.4631   20.3043 O   0  0  0  0  0  0  0  0  0  0  0  0
    6.5629    9.5363   21.6952 N   0  0  0  0  0  0  0  0  0  0  0  0
    5.6260    9.9408   21.8323 H   0  0  0  0  0  0  0  0  0  0  0  0
    7.5222    9.4919   22.8085 C   0  0  0  0  0  0  0  0  0  0  0  0
    6.9405    8.6844   23.9289 C   0  0  0  0  0  0  0  0  0  0  0  0
    6.6715    7.3195   23.6093 O   0  0  0  0  0  0  0  0  0  0  0  0
    6.6893    9.0836   25.0461 O   0  0  0  0  0  0  0  0  0  0  0  0
    6.0046    7.1589   22.8482 H   0  0  0  0  0  0  0  0  0  0  0  0
    7.9023   10.8710   23.2199 C   0  0  0  0  0  0  0  0  0  0  0  0
    9.4264   11.0484   23.2155 C   0  0  0  0  0  0  0  0  0  0  0  0
    7.2726   11.9448   22.3873 C   0  0  0  0  0  0  0  0  0  0  0  0
    5.5770    4.2280   18.9487 C   0  0  0  0  0  0  0  0  0  0  0  0
    4.5279    3.2775   19.3071 C   0  0  0  0  0  0  0  0  0  0  0  0
    3.7008    2.7763   18.2705 O   0  0  0  0  0  0  0  0  0  0  0  0
    4.2690    2.8418   20.4366 O   0  0  0  0  0  0  0  0  0  0  0  0
    3.4826    1.7753   18.2649 H   0  0  0  0  0  0  0  0  0  0  0  0
    4.2709    5.9313   13.9111 N   0  0  0  0  0  0  0  0  0  0  0  0
    3.4651    6.7683   13.0966 C   0  0  0  0  0  0  0  0  0  0  0  0
    2.2438    6.6828   13.0353 O   0  0  0  0  0  0  0  0  0  0  0  0
    5.2632    6.0110   13.9814 H   0  0  0  0  0  0  0  0  0  0  0  0
    4.1661    7.8384   12.2673 C   0  0  0  0  0  0  0  0  0  0  0  0
    5.3492    8.2368   12.7250 N   0  0  0  0  0  0  0  0  0  0  0  0
    6.4993    8.7939   13.3708 C   0  0  0  0  0  0  0  0  0  0  0  0
    6.4439    9.5532   14.3361 O   0  0  0  0  0  0  0  0  0  0  0  0
    4.6773    8.7424   13.8747 H   0  0  0  0  0  0  0  0  0  0  0  0
    7.8375    8.4577   12.8721 C   0  0  0  0  0  0  0  0  0  0  0  0
    8.0585    7.7577   11.7445 N   0  0  0  0  0  0  0  0  0  0  0  0
    9.3539    7.5868   11.5065 C   0  0  0  0  0  0  0  0  0  0  0  0
   10.0851    6.9262   10.5063 C   0  0  0  0  0  0  0  0  0  0  0  0
   11.4723    6.9349   10.5993 C   0  0  0  0  0  0  0  0  0  0  0  0
   12.1760    7.5303   11.5800 C   0  0  0  0  0  0  0  0  0  0  0  0
   11.4322    8.2079   12.6018 C   0  0  0  0  0  0  0  0  0  0  0  0
   10.0581    8.1956   12.5054 C   0  0  0  0  0  0  0  0  0  0  0  0
    9.0766    8.7544   13.3794 C   0  0  0  0  0  0  0  0  0  0  0  0
    9.4430    9.4338   14.4874 O   0  0  0  0  0  0  0  0  0  0  0  0
    7.2858    7.3976   11.0993 H   0  0  0  0  0  0  0  0  0  0  0  0
    8.9525    9.8721   15.1922 H   0  0  0  0  0  0  0  0  0  0  0  0
    4.1519    7.3786   10.8533 C   0  0  0  0  0  0  0  0  0  0  0  0
    4.5673    5.9845   10.6252 C   0  0  0  0  0  0  0  0  0  0  0  0
    3.6165    5.0647   10.3125 C   0  0  0  0  0  0  0  0  0  0  0  0
    3.9632    3.7239   10.0528 C   0  0  0  0  0  0  0  0  0  0  0  0
    5.2921    3.3359   10.1169 C   0  0  0  0  0  0  0  0  0  0  0  0
    6.2423    4.3118   10.4417 C   0  0  0  0  0  0  0  0  0  0  0  0
    5.8861    5.6322   10.6968 C   0  0  0  0  0  0  0  0  0  0  0  0
    3.7190    3.5758   14.1405 C   0  0  0  0  0  0  0  0  0  0  0  0
    2.8263    1.5348   15.1068 C   0  0  0  0  0  0  0  0  0  0  0  0
    2.5423    2.6757   14.1201 C   0  0  0  0  0  0  0  0  0  0  0  0
    2.0961    2.0931   12.8384 C   0  0  0  0  0  0  0  0  0  0  0  0
 60 61  1  0  0  0
 61 62  1  0  0  0
 61 59  1  0  0  0
 59  1  1  0  0  0
  1 31  1  0  0  0
 31 32  1  0  0  0
 32 33  2  0  0  0
 32 35  1  0  0  0
 35 52  1  0  0  0
 52 53  1  0  0  0
 53 54  2  0  0  0
 54 55  1  0  0  0
 55 56  2  0  0  0
 56 57  1  0  0  0
 57 58  2  0  0  0
 35 36  1  0  0  0
 36 37  1  0  0  0
 37 38  2  0  0  0
 37 40  1  0  0  0
 40 41  1  0  0  0
 41 42  1  0  0  0
 42 43  2  0  0  0
 43 44  1  0  0  0
 44 45  2  0  0  0
 45 46  1  0  0  0
 46 47  2  0  0  0
 47 48  1  0  0  0
 48 49  1  0  0  0
  1  2  1  0  0  0
  2  3  2  0  0  0
  2  4  1  0  0  0
  4  6  1  0  0  0
  6 26  1  0  0  0
 26 27  1  0  0  0
 27 28  1  0  0  0
 27 29  2  0  0  0
  6  7  1  0  0  0
  7  8  2  0  0  0
  7  9  1  0  0  0
  9 10  1  0  0  0
 10 11  1  0  0  0
 11 12  1  0  0  0
 12 13  1  0  0  0
 13 14  1  0  0  0
 14 15  2  0  0  0
 14 16  1  0  0  0
 16 18  1  0  0  0
 18 23  1  0  0  0
 23 24  1  0  0  0
 23 25  1  0  0  0
 18 19  1  0  0  0
 19 20  1  0  0  0
 19 21  2  0  0  0
 58 53  1  0  0  0
 48 40  2  0  0  0
 13  9  1  0  0  0
 47 42  1  0  0  0
 31 34  1  0  0  0
 36 39  1  0  0  0
 41 50  1  0  0  0
 49 51  1  0  0  0
  4  5  1  0  0  0
 28 30  1  0  0  0
 16 17  1  0  0  0
 20 22  1  0  0  0
M  END
> <minimizedAffinity>
-8.72394

> <CNNscore>
0.1218952611

> <CNNaffinity>
6.4205284119

> <CNN_VS>
0.7826319933

> <CNNaffinity_variance>
0.7767137289

$$$$
[H]OC(=O)C([H])([H])[C@@]([H])(C(=O)N1C([H])([H])C([H])([H])C([H])([H])[C@@]1([H])C(=O)N([H])[C@]([H])(C(=O)O[H])C([H])(C([H])([H])[H])C([H])([H])[H])N([H])C(=O)[C@@]([H])(N([H])C(=O)[C@@]([H])(N([H])C(=O)c1c(O[H])c2c([H])c([H])c([H])c([H])c2n1[H])C([H])([H])c1c([H])c([H])c([H])c([H])c1[H])C([H])([H])C([H])(C([H])([H])[H])C([H])([H])[H]


 62 65  0  0  0  0  0  0  0  0999 V2000
    3.7204    9.5469   18.3330 C   0  0  0  0  0  0  0  0  0  0  0  0
    3.7862    9.2664   16.9125 C   0  0  0  0  0  0  0  0  0  0  0  0
    3.8518   10.2619   16.0561 O   0  0  0  0  0  0  0  0  0  0  0  0
    3.7976    8.0148   16.3374 N   0  0  0  0  0  0  0  0  0  0  0  0
    3.7242    7.1821   16.9538 H   0  0  0  0  0  0  0  0  0  0  0  0
    3.9203    7.7658   14.8972 C   0  0  0  0  0  0  0  0  0  0  0  0
    3.3038    6.4979   14.5588 C   0  0  0  0  0  0  0  0  0  0  0  0
    3.7975    5.4131   15.0509 O   0  0  0  0  0  0  0  0  0  0  0  0
    2.1706    6.4218   13.7082 N   0  0  0  0  0  0  0  0  0  0  0  0
    1.4995    7.5225   13.0619 C   0  0  0  0  0  0  0  0  0  0  0  0
    0.0405    7.0882   13.0373 C   0  0  0  0  0  0  0  0  0  0  0  0
    0.0988    5.5935   13.0252 C   0  0  0  0  0  0  0  0  0  0  0  0
    1.4760    5.1877   13.3956 C   0  0  0  0  0  0  0  0  0  0  0  0
    2.1880    4.3464   12.4309 C   0  0  0  0  0  0  0  0  0  0  0  0
    2.7863    3.3118   12.8960 O   0  0  0  0  0  0  0  0  0  0  0  0
    2.2373    4.6266   11.0413 N   0  0  0  0  0  0  0  0  0  0  0  0
    1.7986    5.4744   10.6554 H   0  0  0  0  0  0  0  0  0  0  0  0
    2.9330    3.6819   10.1551 C   0  0  0  0  0  0  0  0  0  0  0  0
    4.1232    4.3605    9.5478 C   0  0  0  0  0  0  0  0  0  0  0  0
    4.3197    5.7126    9.9610 O   0  0  0  0  0  0  0  0  0  0  0  0
    4.9052    3.8700    8.7615 O   0  0  0  0  0  0  0  0  0  0  0  0
    3.5578    6.3635    9.7470 H   0  0  0  0  0  0  0  0  0  0  0  0
    1.9919    3.1358    9.1394 C   0  0  0  0  0  0  0  0  0  0  0  0
    1.5207    1.7271    9.5241 C   0  0  0  0  0  0  0  0  0  0  0  0
    0.8014    4.0088    8.8878 C   0  0  0  0  0  0  0  0  0  0  0  0
    5.3385    7.8817   14.4550 C   0  0  0  0  0  0  0  0  0  0  0  0
    5.6198    9.0402   13.6117 C   0  0  0  0  0  0  0  0  0  0  0  0
    4.5977   10.0090   13.4484 O   0  0  0  0  0  0  0  0  0  0  0  0
    6.6726    9.2871   13.0089 O   0  0  0  0  0  0  0  0  0  0  0  0
    4.8555   10.9994   13.4976 H   0  0  0  0  0  0  0  0  0  0  0  0
    4.7664    8.8136   19.0775 N   0  0  0  0  0  0  0  0  0  0  0  0
    4.5079    7.4744   19.4685 C   0  0  0  0  0  0  0  0  0  0  0  0
    3.4617    6.8854   19.2210 O   0  0  0  0  0  0  0  0  0  0  0  0
    5.6244    9.2905   19.2572 H   0  0  0  0  0  0  0  0  0  0  0  0
    5.6039    6.7323   20.2250 C   0  0  0  0  0  0  0  0  0  0  0  0
    5.4811    5.4088   20.2627 N   0  0  0  0  0  0  0  0  0  0  0  0
    5.4797    3.9964   20.4978 C   0  0  0  0  0  0  0  0  0  0  0  0
    6.0135    3.4617   21.4675 O   0  0  0  0  0  0  0  0  0  0  0  0
    5.9556    5.4538   21.6050 H   0  0  0  0  0  0  0  0  0  0  0  0
    4.8103    3.1087   19.5405 C   0  0  0  0  0  0  0  0  0  0  0  0
    4.6902    3.3822   18.2286 N   0  0  0  0  0  0  0  0  0  0  0  0
    4.0472    2.4225   17.5734 C   0  0  0  0  0  0  0  0  0  0  0  0
    3.6535    2.2458   16.2373 C   0  0  0  0  0  0  0  0  0  0  0  0
    2.9510    1.0910   15.9118 C   0  0  0  0  0  0  0  0  0  0  0  0
    2.6147    0.1213   16.7825 C   0  0  0  0  0  0  0  0  0  0  0  0
    3.0174    0.2977   18.1475 C   0  0  0  0  0  0  0  0  0  0  0  0
    3.7124    1.4439   18.4649 C   0  0  0  0  0  0  0  0  0  0  0  0
    4.2072    1.8913   19.7276 C   0  0  0  0  0  0  0  0  0  0  0  0
    4.0383    1.1458   20.8407 O   0  0  0  0  0  0  0  0  0  0  0  0
    5.0840    4.2580   17.7587 H   0  0  0  0  0  0  0  0  0  0  0  0
    4.2834    1.2652   21.7654 H   0  0  0  0  0  0  0  0  0  0  0  0
    6.9074    7.2371   19.7182 C   0  0  0  0  0  0  0  0  0  0  0  0
    8.0919    6.8753   20.5145 C   0  0  0  0  0  0  0  0  0  0  0  0
    7.9234    6.5607   21.8261 C   0  0  0  0  0  0  0  0  0  0  0  0
    9.0183    6.1765   22.6255 C   0  0  0  0  0  0  0  0  0  0  0  0
   10.2857    6.1182   22.0679 C   0  0  0  0  0  0  0  0  0  0  0  0
   10.4191    6.4492   20.7138 C   0  0  0  0  0  0  0  0  0  0  0  0
    9.3295    6.8280   19.9361 C   0  0  0  0  0  0  0  0  0  0  0  0
    3.4800   10.8661   18.8830 C   0  0  0  0  0  0  0  0  0  0  0  0
    4.0428   13.0248   19.8421 C   0  0  0  0  0  0  0  0  0  0  0  0
    4.6205   11.6950   19.3385 C   0  0  0  0  0  0  0  0  0  0  0  0
    5.7273   11.9832   18.4041 C   0  0  0  0  0  0  0  0  0  0  0  0
 60 61  1  0  0  0
 61 62  1  0  0  0
 61 59  1  0  0  0
 59  1  1  0  0  0
  1 31  1  0  0  0
 31 32  1  0  0  0
 32 33  2  0  0  0
 32 35  1  0  0  0
 35 52  1  0  0  0
 52 53  1  0  0  0
 53 54  2  0  0  0
 54 55  1  0  0  0
 55 56  2  0  0  0
 56 57  1  0  0  0
 57 58  2  0  0  0
 35 36  1  0  0  0
 36 37  1  0  0  0
 37 38  2  0  0  0
 37 40  1  0  0  0
 40 41  1  0  0  0
 41 42  1  0  0  0
 42 43  2  0  0  0
 43 44  1  0  0  0
 44 45  2  0  0  0
 45 46  1  0  0  0
 46 47  2  0  0  0
 47 48  1  0  0  0
 48 49  1  0  0  0
  1  2  1  0  0  0
  2  3  2  0  0  0
  2  4  1  0  0  0
  4  6  1  0  0  0
  6 26  1  0  0  0
 26 27  1  0  0  0
 27 28  1  0  0  0
 27 29  2  0  0  0
  6  7  1  0  0  0
  7  8  2  0  0  0
  7  9  1  0  0  0
  9 10  1  0  0  0
 10 11  1  0  0  0
 11 12  1  0  0  0
 12 13  1  0  0  0
 13 14  1  0  0  0
 14 15  2  0  0  0
 14 16  1  0  0  0
 16 18  1  0  0  0
 18 23  1  0  0  0
 23 24  1  0  0  0
 23 25  1  0  0  0
 18 19  1  0  0  0
 19 20  1  0  0  0
 19 21  2  0  0  0
 58 53  1  0  0  0
 48 40  2  0  0  0
 13  9  1  0  0  0
 47 42  1  0  0  0
 31 34  1  0  0  0
 36 39  1  0  0  0
 41 50  1  0  0  0
 49 51  1  0  0  0
  4  5  1  0  0  0
 28 30  1  0  0  0
 16 17  1  0  0  0
 20 22  1  0  0  0
M  END
> <minimizedAffinity>
-8.55944

> <CNNscore>
0.1100345477

> <CNNaffinity>
6.7891936302

> <CNN_VS>
0.7470458746

> <CNNaffinity_variance>
0.3956854045

$$$$
[H]OC(=O)C([H])([H])[C@@]([H])(C(=O)N1C([H])([H])C([H])([H])C([H])([H])[C@@]1([H])C(=O)N([H])[C@]([H])(C(=O)O[H])C([H])(C([H])([H])[H])C([H])([H])[H])N([H])C(=O)[C@@]([H])(N([H])C(=O)[C@@]([H])(N([H])C(=O)c1c(O[H])c2c([H])c([H])c([H])c([H])c2n1[H])C([H])([H])c1c([H])c([H])c([H])c([H])c1[H])C([H])([H])C([H])(C([H])([H])[H])C([H])([H])[H]


 62 65  0  0  0  0  0  0  0  0999 V2000
    3.4262    5.5360   16.2740 C   0  0  0  0  0  0  0  0  0  0  0  0
    2.7196    5.9122   15.0658 C   0  0  0  0  0  0  0  0  0  0  0  0
    1.4447    5.6162   14.9400 O   0  0  0  0  0  0  0  0  0  0  0  0
    3.2599    6.5841   13.9916 N   0  0  0  0  0  0  0  0  0  0  0  0
    4.2691    6.8288   14.0129 H   0  0  0  0  0  0  0  0  0  0  0  0
    2.5015    6.9980   12.8064 C   0  0  0  0  0  0  0  0  0  0  0  0
    3.0776    6.4034   11.6162 C   0  0  0  0  0  0  0  0  0  0  0  0
    2.3340    5.6642   10.8656 O   0  0  0  0  0  0  0  0  0  0  0  0
    4.4325    6.6193   11.2542 N   0  0  0  0  0  0  0  0  0  0  0  0
    5.4064    7.3994   11.9770 C   0  0  0  0  0  0  0  0  0  0  0  0
    6.2787    7.9910   10.8784 C   0  0  0  0  0  0  0  0  0  0  0  0
    6.1783    7.0078    9.7554 C   0  0  0  0  0  0  0  0  0  0  0  0
    5.0365    6.1056   10.0399 C   0  0  0  0  0  0  0  0  0  0  0  0
    5.3380    4.6735   10.0996 C   0  0  0  0  0  0  0  0  0  0  0  0
    6.2049    4.3004   10.9679 O   0  0  0  0  0  0  0  0  0  0  0  0
    4.7229    3.7129    9.2566 N   0  0  0  0  0  0  0  0  0  0  0  0
    4.0560    3.9982    8.5258 H   0  0  0  0  0  0  0  0  0  0  0  0
    5.0581    2.2934    9.4421 C   0  0  0  0  0  0  0  0  0  0  0  0
    6.3109    1.9791    8.6823 C   0  0  0  0  0  0  0  0  0  0  0  0
    7.5218    2.1773    9.4116 O   0  0  0  0  0  0  0  0  0  0  0  0
    6.3759    1.5835    7.5378 O   0  0  0  0  0  0  0  0  0  0  0  0
    7.6954    3.1307    9.7445 H   0  0  0  0  0  0  0  0  0  0  0  0
    3.9075    1.4341    9.0504 C   0  0  0  0  0  0  0  0  0  0  0  0
    3.1342    0.9505   10.2843 C   0  0  0  0  0  0  0  0  0  0  0  0
    2.9607    2.0915    8.0942 C   0  0  0  0  0  0  0  0  0  0  0  0
    2.3834    8.4819   12.7403 C   0  0  0  0  0  0  0  0  0  0  0  0
    3.0246    9.1928   13.8429 C   0  0  0  0  0  0  0  0  0  0  0  0
    2.3313    9.2718   15.0771 O   0  0  0  0  0  0  0  0  0  0  0  0
    4.1318    9.7464   13.8312 O   0  0  0  0  0  0  0  0  0  0  0  0
    2.8589    9.1135   15.9410 H   0  0  0  0  0  0  0  0  0  0  0  0
    3.4189    6.6311   17.2673 N   0  0  0  0  0  0  0  0  0  0  0  0
    4.4210    7.6318   17.1810 C   0  0  0  0  0  0  0  0  0  0  0  0
    5.2969    7.6425   16.3233 O   0  0  0  0  0  0  0  0  0  0  0  0
    2.6909    6.6295   17.9499 H   0  0  0  0  0  0  0  0  0  0  0  0
    4.3887    8.7584   18.2077 C   0  0  0  0  0  0  0  0  0  0  0  0
    4.6055    8.3938   19.4678 N   0  0  0  0  0  0  0  0  0  0  0  0
    4.8486    8.2314   20.8695 C   0  0  0  0  0  0  0  0  0  0  0  0
    4.9509    9.1665   21.6610 O   0  0  0  0  0  0  0  0  0  0  0  0
    4.3270    9.7371   19.8511 H   0  0  0  0  0  0  0  0  0  0  0  0
    4.9901    6.8801   21.4230 C   0  0  0  0  0  0  0  0  0  0  0  0
    4.0278    6.2596   22.1296 N   0  0  0  0  0  0  0  0  0  0  0  0
    4.3959    5.0441   22.5178 C   0  0  0  0  0  0  0  0  0  0  0  0
    3.7843    4.0331   23.2764 C   0  0  0  0  0  0  0  0  0  0  0  0
    4.5043    2.8670   23.5097 C   0  0  0  0  0  0  0  0  0  0  0  0
    5.7514    2.6280   23.0635 C   0  0  0  0  0  0  0  0  0  0  0  0
    6.3781    3.6575   22.2865 C   0  0  0  0  0  0  0  0  0  0  0  0
    5.6607    4.8113   22.0588 C   0  0  0  0  0  0  0  0  0  0  0  0
    6.0361    5.9957   21.3548 C   0  0  0  0  0  0  0  0  0  0  0  0
    7.2488    6.0982   20.7700 O   0  0  0  0  0  0  0  0  0  0  0  0
    3.0682    6.6822   22.3384 H   0  0  0  0  0  0  0  0  0  0  0  0
    7.6885    6.7929   20.2666 H   0  0  0  0  0  0  0  0  0  0  0  0
    5.2684    9.8434   17.6980 C   0  0  0  0  0  0  0  0  0  0  0  0
    5.5396   10.9465   18.6349 C   0  0  0  0  0  0  0  0  0  0  0  0
    4.5272   11.7973   18.9494 C   0  0  0  0  0  0  0  0  0  0  0  0
    4.7238   12.8502   19.8650 C   0  0  0  0  0  0  0  0  0  0  0  0
    5.9665   13.0220   20.4538 C   0  0  0  0  0  0  0  0  0  0  0  0
    6.9839   12.1255   20.1049 C   0  0  0  0  0  0  0  0  0  0  0  0
    6.7766   11.0906   19.1985 C   0  0  0  0  0  0  0  0  0  0  0  0
    3.3191    4.2315   16.8965 C   0  0  0  0  0  0  0  0  0  0  0  0
    4.2676    1.9981   16.9897 C   0  0  0  0  0  0  0  0  0  0  0  0
    4.5458    3.4834   17.2584 C   0  0  0  0  0  0  0  0  0  0  0  0
    5.1061    3.6218   18.6178 C   0  0  0  0  0  0  0  0  0  0  0  0
 60 61  1  0  0  0
 61 62  1  0  0  0
 61 59  1  0  0  0
 59  1  1  0  0  0
  1 31  1  0  0  0
 31 32  1  0  0  0
 32 33  2  0  0  0
 32 35  1  0  0  0
 35 52  1  0  0  0
 52 53  1  0  0  0
 53 54  2  0  0  0
 54 55  1  0  0  0
 55 56  2  0  0  0
 56 57  1  0  0  0
 57 58  2  0  0  0
 35 36  1  0  0  0
 36 37  1  0  0  0
 37 38  2  0  0  0
 37 40  1  0  0  0
 40 41  1  0  0  0
 41 42  1  0  0  0
 42 43  2  0  0  0
 43 44  1  0  0  0
 44 45  2  0  0  0
 45 46  1  0  0  0
 46 47  2  0  0  0
 47 48  1  0  0  0
 48 49  1  0  0  0
  1  2  1  0  0  0
  2  3  2  0  0  0
  2  4  1  0  0  0
  4  6  1  0  0  0
  6 26  1  0  0  0
 26 27  1  0  0  0
 27 28  1  0  0  0
 27 29  2  0  0  0
  6  7  1  0  0  0
  7  8  2  0  0  0
  7  9  1  0  0  0
  9 10  1  0  0  0
 10 11  1  0  0  0
 11 12  1  0  0  0
 12 13  1  0  0  0
 13 14  1  0  0  0
 14 15  2  0  0  0
 14 16  1  0  0  0
 16 18  1  0  0  0
 18 23  1  0  0  0
 23 24  1  0  0  0
 23 25  1  0  0  0
 18 19  1  0  0  0
 19 20  1  0  0  0
 19 21  2  0  0  0
 58 53  1  0  0  0
 48 40  2  0  0  0
 13  9  1  0  0  0
 47 42  1  0  0  0
 31 34  1  0  0  0
 36 39  1  0  0  0
 41 50  1  0  0  0
 49 51  1  0  0  0
  4  5  1  0  0  0
 28 30  1  0  0  0
 16 17  1  0  0  0
 20 22  1  0  0  0
M  END
> <minimizedAffinity>
-8.98894

> <CNNscore>
0.1093756109

> <CNNaffinity>
6.5888948441

> <CNN_VS>
0.7206643820

> <CNNaffinity_variance>
0.2270783484

$$$$
[H]OC(=O)C([H])([H])[C@@]([H])(C(=O)N1C([H])([H])C([H])([H])C([H])([H])[C@@]1([H])C(=O)N([H])[C@]([H])(C(=O)O[H])C([H])(C([H])([H])[H])C([H])([H])[H])N([H])C(=O)[C@@]([H])(N([H])C(=O)[C@@]([H])(N([H])C(=O)c1c(O[H])c2c([H])c([H])c([H])c([H])c2n1[H])C([H])([H])c1c([H])c([H])c([H])c([H])c1[H])C([H])([H])C([H])(C([H])([H])[H])C([H])([H])[H]


 62 65  0  0  0  0  0  0  0  0999 V2000
    3.5621    5.0962   15.7450 C   0  0  0  0  0  0  0  0  0  0  0  0
    2.6619    5.6831   14.7725 C   0  0  0  0  0  0  0  0  0  0  0  0
    1.3628    5.5501   14.9266 O   0  0  0  0  0  0  0  0  0  0  0  0
    3.0354    6.4051   13.6605 N   0  0  0  0  0  0  0  0  0  0  0  0
    4.0476    6.5294   13.4636 H   0  0  0  0  0  0  0  0  0  0  0  0
    2.0955    7.0325   12.7256 C   0  0  0  0  0  0  0  0  0  0  0  0
    2.4728    6.7231   11.3604 C   0  0  0  0  0  0  0  0  0  0  0  0
    3.3091    7.4950   10.7541 O   0  0  0  0  0  0  0  0  0  0  0  0
    1.9520    5.5924   10.6794 N   0  0  0  0  0  0  0  0  0  0  0  0
    1.0033    4.6355   11.1930 C   0  0  0  0  0  0  0  0  0  0  0  0
    1.4230    3.3272   10.5372 C   0  0  0  0  0  0  0  0  0  0  0  0
    2.0748    3.7462    9.2577 C   0  0  0  0  0  0  0  0  0  0  0  0
    2.3501    5.2008    9.3410 C   0  0  0  0  0  0  0  0  0  0  0  0
    1.7623    6.0353    8.2905 C   0  0  0  0  0  0  0  0  0  0  0  0
    0.5382    5.8048    7.9854 O   0  0  0  0  0  0  0  0  0  0  0  0
    2.4777    7.0596    7.6190 N   0  0  0  0  0  0  0  0  0  0  0  0
    3.4726    7.2314    7.8208 H   0  0  0  0  0  0  0  0  0  0  0  0
    1.7713    7.8755    6.6203 C   0  0  0  0  0  0  0  0  0  0  0  0
    1.8187    7.1810    5.2933 C   0  0  0  0  0  0  0  0  0  0  0  0
    0.6538    6.4221    4.9702 O   0  0  0  0  0  0  0  0  0  0  0  0
    2.7353    7.2115    4.4998 O   0  0  0  0  0  0  0  0  0  0  0  0
    0.4213    5.6592    5.6136 H   0  0  0  0  0  0  0  0  0  0  0  0
    2.3395    9.2507    6.5795 C   0  0  0  0  0  0  0  0  0  0  0  0
    1.2329   10.3087    6.6817 C   0  0  0  0  0  0  0  0  0  0  0  0
    3.3745    9.5080    7.6309 C   0  0  0  0  0  0  0  0  0  0  0  0
    1.9668    8.4919   12.9978 C   0  0  0  0  0  0  0  0  0  0  0  0
    3.0233    9.0494   13.8375 C   0  0  0  0  0  0  0  0  0  0  0  0
    4.3155    9.1957   13.2728 O   0  0  0  0  0  0  0  0  0  0  0  0
    2.9235    9.4234   15.0135 O   0  0  0  0  0  0  0  0  0  0  0  0
    4.8288   10.0636   13.4538 H   0  0  0  0  0  0  0  0  0  0  0  0
    3.3246    5.6411   17.0988 N   0  0  0  0  0  0  0  0  0  0  0  0
    4.0497    6.7915   17.5037 C   0  0  0  0  0  0  0  0  0  0  0  0
    4.8651    7.3652   16.7906 O   0  0  0  0  0  0  0  0  0  0  0  0
    2.6438    5.1832   17.6670 H   0  0  0  0  0  0  0  0  0  0  0  0
    3.7815    7.3441   18.8991 C   0  0  0  0  0  0  0  0  0  0  0  0
    4.0801    6.5297   19.9068 N   0  0  0  0  0  0  0  0  0  0  0  0
    4.4957    5.8430   21.0925 C   0  0  0  0  0  0  0  0  0  0  0  0
    5.0422    6.3915   22.0474 O   0  0  0  0  0  0  0  0  0  0  0  0
    4.3396    7.6858   20.6975 H   0  0  0  0  0  0  0  0  0  0  0  0
    4.2704    4.3974   21.2027 C   0  0  0  0  0  0  0  0  0  0  0  0
    4.2647    3.5616   20.1483 N   0  0  0  0  0  0  0  0  0  0  0  0
    4.0422    2.3027   20.5081 C   0  0  0  0  0  0  0  0  0  0  0  0
    3.9176    1.0929   19.8062 C   0  0  0  0  0  0  0  0  0  0  0  0
    3.6501   -0.0597   20.5361 C   0  0  0  0  0  0  0  0  0  0  0  0
    3.4990   -0.1090   21.8726 C   0  0  0  0  0  0  0  0  0  0  0  0
    3.6280    1.1245   22.5926 C   0  0  0  0  0  0  0  0  0  0  0  0
    3.8923    2.2637   21.8647 C   0  0  0  0  0  0  0  0  0  0  0  0
    4.0413    3.6141   22.3048 C   0  0  0  0  0  0  0  0  0  0  0  0
    3.9455    3.9299   23.6142 O   0  0  0  0  0  0  0  0  0  0  0  0
    4.4402    3.8663   19.1387 H   0  0  0  0  0  0  0  0  0  0  0  0
    4.0068    4.7570   24.1057 H   0  0  0  0  0  0  0  0  0  0  0  0
    4.4027    8.6934   18.9647 C   0  0  0  0  0  0  0  0  0  0  0  0
    5.4443    8.8739   19.9897 C   0  0  0  0  0  0  0  0  0  0  0  0
    6.7094    8.4613   19.7122 C   0  0  0  0  0  0  0  0  0  0  0  0
    7.7505    8.6393   20.6448 C   0  0  0  0  0  0  0  0  0  0  0  0
    7.4823    9.2434   21.8629 C   0  0  0  0  0  0  0  0  0  0  0  0
    6.1673    9.6550   22.1120 C   0  0  0  0  0  0  0  0  0  0  0  0
    5.1484    9.4722   21.1826 C   0  0  0  0  0  0  0  0  0  0  0  0
    3.9100    3.6896   15.7743 C   0  0  0  0  0  0  0  0  0  0  0  0
    3.0980    1.4378   16.1828 C   0  0  0  0  0  0  0  0  0  0  0  0
    2.9388    2.6789   15.2939 C   0  0  0  0  0  0  0  0  0  0  0  0
    2.9714    2.2555   13.8794 C   0  0  0  0  0  0  0  0  0  0  0  0
 60 61  1  0  0  0
 61 62  1  0  0  0
 61 59  1  0  0  0
 59  1  1  0  0  0
  1 31  1  0  0  0
 31 32  1  0  0  0
 32 33  2  0  0  0
 32 35  1  0  0  0
 35 52  1  0  0  0
 52 53  1  0  0  0
 53 54  2  0  0  0
 54 55  1  0  0  0
 55 56  2  0  0  0
 56 57  1  0  0  0
 57 58  2  0  0  0
 35 36  1  0  0  0
 36 37  1  0  0  0
 37 38  2  0  0  0
 37 40  1  0  0  0
 40 41  1  0  0  0
 41 42  1  0  0  0
 42 43  2  0  0  0
 43 44  1  0  0  0
 44 45  2  0  0  0
 45 46  1  0  0  0
 46 47  2  0  0  0
 47 48  1  0  0  0
 48 49  1  0  0  0
  1  2  1  0  0  0
  2  3  2  0  0  0
  2  4  1  0  0  0
  4  6  1  0  0  0
  6 26  1  0  0  0
 26 27  1  0  0  0
 27 28  1  0  0  0
 27 29  2  0  0  0
  6  7  1  0  0  0
  7  8  2  0  0  0
  7  9  1  0  0  0
  9 10  1  0  0  0
 10 11  1  0  0  0
 11 12  1  0  0  0
 12 13  1  0  0  0
 13 14  1  0  0  0
 14 15  2  0  0  0
 14 16  1  0  0  0
 16 18  1  0  0  0
 18 23  1  0  0  0
 23 24  1  0  0  0
 23 25  1  0  0  0
 18 19  1  0  0  0
 19 20  1  0  0  0
 19 21  2  0  0  0
 58 53  1  0  0  0
 48 40  2  0  0  0
 13  9  1  0  0  0
 47 42  1  0  0  0
 31 34  1  0  0  0
 36 39  1  0  0  0
 41 50  1  0  0  0
 49 51  1  0  0  0
  4  5  1  0  0  0
 28 30  1  0  0  0
 16 17  1  0  0  0
 20 22  1  0  0  0
M  END
> <minimizedAffinity>
-8.74732

> <CNNscore>
0.1035673171

> <CNNaffinity>
6.7074899673

> <CNN_VS>
0.6946767569

> <CNNaffinity_variance>
0.1895136982

$$$$
[H]OC(=O)C([H])([H])[C@@]([H])(C(=O)N1C([H])([H])C([H])([H])C([H])([H])[C@@]1([H])C(=O)N([H])[C@]([H])(C(=O)O[H])C([H])(C([H])([H])[H])C([H])([H])[H])N([H])C(=O)[C@@]([H])(N([H])C(=O)[C@@]([H])(N([H])C(=O)c1c(O[H])c2c([H])c([H])c([H])c([H])c2n1[H])C([H])([H])c1c([H])c([H])c([H])c([H])c1[H])C([H])([H])C([H])(C([H])([H])[H])C([H])([H])[H]


 62 65  0  0  0  0  0  0  0  0999 V2000
    3.3782    4.6849   14.7049 C   0  0  0  0  0  0  0  0  0  0  0  0
    3.5357    5.1023   16.0839 C   0  0  0  0  0  0  0  0  0  0  0  0
    2.4895    5.5275   16.7573 O   0  0  0  0  0  0  0  0  0  0  0  0
    4.7121    5.0925   16.8001 N   0  0  0  0  0  0  0  0  0  0  0  0
    5.5839    4.7907   16.3230 H   0  0  0  0  0  0  0  0  0  0  0  0
    4.8255    5.4705   18.2127 C   0  0  0  0  0  0  0  0  0  0  0  0
    5.6901    6.6264   18.3491 C   0  0  0  0  0  0  0  0  0  0  0  0
    6.9429    6.5048   18.0690 O   0  0  0  0  0  0  0  0  0  0  0  0
    5.1927    7.8852   18.7750 N   0  0  0  0  0  0  0  0  0  0  0  0
    3.8335    8.1985   19.1410 C   0  0  0  0  0  0  0  0  0  0  0  0
    3.6632    9.6414   18.6861 C   0  0  0  0  0  0  0  0  0  0  0  0
    5.0441   10.2137   18.7436 C   0  0  0  0  0  0  0  0  0  0  0  0
    6.0004    9.0866   18.8604 C   0  0  0  0  0  0  0  0  0  0  0  0
    6.8924    9.1079   20.0220 C   0  0  0  0  0  0  0  0  0  0  0  0
    7.0608   10.2394   20.6016 O   0  0  0  0  0  0  0  0  0  0  0  0
    7.5564    7.9553   20.5145 N   0  0  0  0  0  0  0  0  0  0  0  0
    7.4664    7.0472   20.0377 H   0  0  0  0  0  0  0  0  0  0  0  0
    8.3838    8.0800   21.7235 C   0  0  0  0  0  0  0  0  0  0  0  0
    9.8009    7.7244   21.3900 C   0  0  0  0  0  0  0  0  0  0  0  0
    9.9512    6.8041   20.3094 O   0  0  0  0  0  0  0  0  0  0  0  0
   10.7951    8.1416   21.9451 O   0  0  0  0  0  0  0  0  0  0  0  0
    9.5142    5.8860   20.4365 H   0  0  0  0  0  0  0  0  0  0  0  0
    7.8190    7.2537   22.8251 C   0  0  0  0  0  0  0  0  0  0  0  0
    7.6880    8.0709   24.1172 C   0  0  0  0  0  0  0  0  0  0  0  0
    6.4993    6.6275   22.4949 C   0  0  0  0  0  0  0  0  0  0  0  0
    5.2422    4.3065   19.0444 C   0  0  0  0  0  0  0  0  0  0  0  0
    4.3456    4.0009   20.1556 C   0  0  0  0  0  0  0  0  0  0  0  0
    3.7015    5.0822   20.8084 O   0  0  0  0  0  0  0  0  0  0  0  0
    4.0694    2.8814   20.6063 O   0  0  0  0  0  0  0  0  0  0  0  0
    2.7084    4.9865   21.0411 H   0  0  0  0  0  0  0  0  0  0  0  0
    4.0905    5.5931   13.7808 N   0  0  0  0  0  0  0  0  0  0  0  0
    3.3510    6.6127   13.1276 C   0  0  0  0  0  0  0  0  0  0  0  0
    2.1482    6.7869   13.2879 O   0  0  0  0  0  0  0  0  0  0  0  0
    5.0736    5.4606   13.6708 H   0  0  0  0  0  0  0  0  0  0  0  0
    4.1065    7.5457   12.1879 C   0  0  0  0  0  0  0  0  0  0  0  0
    5.2345    8.0578   12.6710 N   0  0  0  0  0  0  0  0  0  0  0  0
    6.3090    8.7401   13.3266 C   0  0  0  0  0  0  0  0  0  0  0  0
    6.1516    9.5668   14.2228 O   0  0  0  0  0  0  0  0  0  0  0  0
    4.4687    8.6047   13.7402 H   0  0  0  0  0  0  0  0  0  0  0  0
    7.6916    8.4575   12.9254 C   0  0  0  0  0  0  0  0  0  0  0  0
    8.0202    7.7743   11.8138 N   0  0  0  0  0  0  0  0  0  0  0  0
    9.3349    7.6535   11.6701 C   0  0  0  0  0  0  0  0  0  0  0  0
   10.1613    7.0277   10.7230 C   0  0  0  0  0  0  0  0  0  0  0  0
   11.5367    7.0874   10.9170 C   0  0  0  0  0  0  0  0  0  0  0  0
   12.1444    7.7015   11.9490 C   0  0  0  0  0  0  0  0  0  0  0  0
   11.3032    8.3436   12.9168 C   0  0  0  0  0  0  0  0  0  0  0  0
    9.9413    8.2809   12.7204 C   0  0  0  0  0  0  0  0  0  0  0  0
    8.8785    8.7965   13.5230 C   0  0  0  0  0  0  0  0  0  0  0  0
    9.1376    9.4811   14.6577 O   0  0  0  0  0  0  0  0  0  0  0  0
    7.3105    7.3903   11.1124 H   0  0  0  0  0  0  0  0  0  0  0  0
    8.5809    9.8958   15.3268 H   0  0  0  0  0  0  0  0  0  0  0  0
    4.2322    6.8468   10.8814 C   0  0  0  0  0  0  0  0  0  0  0  0
    4.1225    7.6959    9.6835 C   0  0  0  0  0  0  0  0  0  0  0  0
    5.2637    8.1021    9.0667 C   0  0  0  0  0  0  0  0  0  0  0  0
    5.2153    8.8888    7.8987 C   0  0  0  0  0  0  0  0  0  0  0  0
    3.9875    9.2547    7.3704 C   0  0  0  0  0  0  0  0  0  0  0  0
    2.8347    8.8170    8.0337 C   0  0  0  0  0  0  0  0  0  0  0  0
    2.8967    8.0412    9.1869 C   0  0  0  0  0  0  0  0  0  0  0  0
    3.4384    3.3038   14.2696 C   0  0  0  0  0  0  0  0  0  0  0  0
    2.8064    1.2852   15.4624 C   0  0  0  0  0  0  0  0  0  0  0  0
    2.2974    2.3962   14.5338 C   0  0  0  0  0  0  0  0  0  0  0  0
    1.5857    1.7753   13.3985 C   0  0  0  0  0  0  0  0  0  0  0  0
 60 61  1  0  0  0
 61 62  1  0  0  0
 61 59  1  0  0  0
 59  1  1  0  0  0
  1 31  1  0  0  0
 31 32  1  0  0  0
 32 33  2  0  0  0
 32 35  1  0  0  0
 35 52  1  0  0  0
 52 53  1  0  0  0
 53 54  2  0  0  0
 54 55  1  0  0  0
 55 56  2  0  0  0
 56 57  1  0  0  0
 57 58  2  0  0  0
 35 36  1  0  0  0
 36 37  1  0  0  0
 37 38  2  0  0  0
 37 40  1  0  0  0
 40 41  1  0  0  0
 41 42  1  0  0  0
 42 43  2  0  0  0
 43 44  1  0  0  0
 44 45  2  0  0  0
 45 46  1  0  0  0
 46 47  2  0  0  0
 47 48  1  0  0  0
 48 49  1  0  0  0
  1  2  1  0  0  0
  2  3  2  0  0  0
  2  4  1  0  0  0
  4  6  1  0  0  0
  6 26  1  0  0  0
 26 27  1  0  0  0
 27 28  1  0  0  0
 27 29  2  0  0  0
  6  7  1  0  0  0
  7  8  2  0  0  0
  7  9  1  0  0  0
  9 10  1  0  0  0
 10 11  1  0  0  0
 11 12  1  0  0  0
 12 13  1  0  0  0
 13 14  1  0  0  0
 14 15  2  0  0  0
 14 16  1  0  0  0
 16 18  1  0  0  0
 18 23  1  0  0  0
 23 24  1  0  0  0
 23 25  1  0  0  0
 18 19  1  0  0  0
 19 20  1  0  0  0
 19 21  2  0  0  0
 58 53  1  0  0  0
 48 40  2  0  0  0
 13  9  1  0  0  0
 47 42  1  0  0  0
 31 34  1  0  0  0
 36 39  1  0  0  0
 41 50  1  0  0  0
 49 51  1  0  0  0
  4  5  1  0  0  0
 28 30  1  0  0  0
 16 17  1  0  0  0
 20 22  1  0  0  0
M  END
> <minimizedAffinity>
-8.88046

> <CNNscore>
0.0950560570

> <CNNaffinity>
6.3311114311

> <CNN_VS>
0.6018105149

> <CNNaffinity_variance>
1.0279533863

$$$$
[H]OC(=O)C([H])([H])[C@@]([H])(C(=O)N1C([H])([H])C([H])([H])C([H])([H])[C@@]1([H])C(=O)N([H])[C@]([H])(C(=O)O[H])C([H])(C([H])([H])[H])C([H])([H])[H])N([H])C(=O)[C@@]([H])(N([H])C(=O)[C@@]([H])(N([H])C(=O)c1c(O[H])c2c([H])c([H])c([H])c([H])c2n1[H])C([H])([H])c1c([H])c([H])c([H])c([H])c1[H])C([H])([H])C([H])(C([H])([H])[H])C([H])([H])[H]


 62 65  0  0  0  0  0  0  0  0999 V2000
    2.6502    5.2960   15.6598 C   0  0  0  0  0  0  0  0  0  0  0  0
    2.0848    6.2359   14.7123 C   0  0  0  0  0  0  0  0  0  0  0  0
    0.7993    6.1894   14.4397 O   0  0  0  0  0  0  0  0  0  0  0  0
    2.7763    7.2221   14.0443 N   0  0  0  0  0  0  0  0  0  0  0  0
    3.8010    7.3013   14.1939 H   0  0  0  0  0  0  0  0  0  0  0  0
    2.1618    8.1927   13.1325 C   0  0  0  0  0  0  0  0  0  0  0  0
    2.4919    7.8620   11.7600 C   0  0  0  0  0  0  0  0  0  0  0  0
    1.5561    7.8746   10.8729 O   0  0  0  0  0  0  0  0  0  0  0  0
    3.8154    7.5327   11.3685 N   0  0  0  0  0  0  0  0  0  0  0  0
    4.9752    7.4557   12.2220 C   0  0  0  0  0  0  0  0  0  0  0  0
    6.1137    7.9163   11.3222 C   0  0  0  0  0  0  0  0  0  0  0  0
    5.6610    7.5624    9.9410 C   0  0  0  0  0  0  0  0  0  0  0  0
    4.2100    7.2631    9.9993 C   0  0  0  0  0  0  0  0  0  0  0  0
    3.7990    5.9400    9.5240 C   0  0  0  0  0  0  0  0  0  0  0  0
    2.8456    5.9034    8.6670 O   0  0  0  0  0  0  0  0  0  0  0  0
    4.4007    4.7334    9.9644 N   0  0  0  0  0  0  0  0  0  0  0  0
    5.1385    4.7401   10.6826 H   0  0  0  0  0  0  0  0  0  0  0  0
    3.9480    3.4637    9.3773 C   0  0  0  0  0  0  0  0  0  0  0  0
    2.9457    2.8272   10.2916 C   0  0  0  0  0  0  0  0  0  0  0  0
    1.6842    3.4919   10.3564 O   0  0  0  0  0  0  0  0  0  0  0  0
    3.1146    1.8276   10.9571 O   0  0  0  0  0  0  0  0  0  0  0  0
    1.7033    4.4619   10.6862 H   0  0  0  0  0  0  0  0  0  0  0  0
    5.1125    2.5838    9.0856 C   0  0  0  0  0  0  0  0  0  0  0  0
    5.1063    2.1269    7.6207 C   0  0  0  0  0  0  0  0  0  0  0  0
    6.4358    3.2063    9.4084 C   0  0  0  0  0  0  0  0  0  0  0  0
    2.5197    9.5869   13.5177 C   0  0  0  0  0  0  0  0  0  0  0  0
    3.4033    9.6902   14.6756 C   0  0  0  0  0  0  0  0  0  0  0  0
    2.8316    9.5450   15.9648 O   0  0  0  0  0  0  0  0  0  0  0  0
    4.6249    9.8907   14.6672 O   0  0  0  0  0  0  0  0  0  0  0  0
    3.3283    8.9728   16.6544 H   0  0  0  0  0  0  0  0  0  0  0  0
    2.9183    5.9390   16.9639 N   0  0  0  0  0  0  0  0  0  0  0  0
    4.0767    6.7476   17.0961 C   0  0  0  0  0  0  0  0  0  0  0  0
    4.8721    6.9473   16.1849 O   0  0  0  0  0  0  0  0  0  0  0  0
    2.2562    5.7907   17.6958 H   0  0  0  0  0  0  0  0  0  0  0  0
    4.3287    7.4107   18.4456 C   0  0  0  0  0  0  0  0  0  0  0  0
    4.4724    6.5818   19.4752 N   0  0  0  0  0  0  0  0  0  0  0  0
    4.7136    5.8758   20.6973 C   0  0  0  0  0  0  0  0  0  0  0  0
    5.1518    6.4016   21.7186 O   0  0  0  0  0  0  0  0  0  0  0  0
    4.6655    7.7247   20.3031 H   0  0  0  0  0  0  0  0  0  0  0  0
    4.4318    4.4376   20.7646 C   0  0  0  0  0  0  0  0  0  0  0  0
    4.1606    3.7840   21.9090 N   0  0  0  0  0  0  0  0  0  0  0  0
    3.9378    2.4905   21.7067 C   0  0  0  0  0  0  0  0  0  0  0  0
    3.6481    1.4050   22.5489 C   0  0  0  0  0  0  0  0  0  0  0  0
    3.5008    0.1504   21.9683 C   0  0  0  0  0  0  0  0  0  0  0  0
    3.6154   -0.1092   20.6527 C   0  0  0  0  0  0  0  0  0  0  0  0
    3.9089    0.9977   19.7894 C   0  0  0  0  0  0  0  0  0  0  0  0
    4.0546    2.2385   20.3698 C   0  0  0  0  0  0  0  0  0  0  0  0
    4.3714    3.4952   19.7700 C   0  0  0  0  0  0  0  0  0  0  0  0
    4.5586    3.5982   18.4368 O   0  0  0  0  0  0  0  0  0  0  0  0
    4.1075    4.2504   22.8695 H   0  0  0  0  0  0  0  0  0  0  0  0
    4.7791    4.3309   17.8501 H   0  0  0  0  0  0  0  0  0  0  0  0
    5.4325    8.3886   18.2559 C   0  0  0  0  0  0  0  0  0  0  0  0
    6.0617    8.8966   19.4864 C   0  0  0  0  0  0  0  0  0  0  0  0
    7.3418    8.5316   19.7617 C   0  0  0  0  0  0  0  0  0  0  0  0
    8.0022    9.0147   20.9089 C   0  0  0  0  0  0  0  0  0  0  0  0
    7.3382    9.8741   21.7698 C   0  0  0  0  0  0  0  0  0  0  0  0
    6.0209   10.2272   21.4523 C   0  0  0  0  0  0  0  0  0  0  0  0
    5.3803    9.7421   20.3167 C   0  0  0  0  0  0  0  0  0  0  0  0
    2.1940    3.9283   15.8073 C   0  0  0  0  0  0  0  0  0  0  0  0
    1.7463    2.2907   14.0710 C   0  0  0  0  0  0  0  0  0  0  0  0
    2.8240    2.8500   15.0099 C   0  0  0  0  0  0  0  0  0  0  0  0
    3.4793    1.7226   15.7033 C   0  0  0  0  0  0  0  0  0  0  0  0
 60 61  1  0  0  0
 61 62  1  0  0  0
 61 59  1  0  0  0
 59  1  1  0  0  0
  1 31  1  0  0  0
 31 32  1  0  0  0
 32 33  2  0  0  0
 32 35  1  0  0  0
 35 52  1  0  0  0
 52 53  1  0  0  0
 53 54  2  0  0  0
 54 55  1  0  0  0
 55 56  2  0  0  0
 56 57  1  0  0  0
 57 58  2  0  0  0
 35 36  1  0  0  0
 36 37  1  0  0  0
 37 38  2  0  0  0
 37 40  1  0  0  0
 40 41  1  0  0  0
 41 42  1  0  0  0
 42 43  2  0  0  0
 43 44  1  0  0  0
 44 45  2  0  0  0
 45 46  1  0  0  0
 46 47  2  0  0  0
 47 48  1  0  0  0
 48 49  1  0  0  0
  1  2  1  0  0  0
  2  3  2  0  0  0
  2  4  1  0  0  0
  4  6  1  0  0  0
  6 26  1  0  0  0
 26 27  1  0  0  0
 27 28  1  0  0  0
 27 29  2  0  0  0
  6  7  1  0  0  0
  7  8  2  0  0  0
  7  9  1  0  0  0
  9 10  1  0  0  0
 10 11  1  0  0  0
 11 12  1  0  0  0
 12 13  1  0  0  0
 13 14  1  0  0  0
 14 15  2  0  0  0
 14 16  1  0  0  0
 16 18  1  0  0  0
 18 23  1  0  0  0
 23 24  1  0  0  0
 23 25  1  0  0  0
 18 19  1  0  0  0
 19 20  1  0  0  0
 19 21  2  0  0  0
 58 53  1  0  0  0
 48 40  2  0  0  0
 13  9  1  0  0  0
 47 42  1  0  0  0
 31 34  1  0  0  0
 36 39  1  0  0  0
 41 50  1  0  0  0
 49 51  1  0  0  0
  4  5  1  0  0  0
 28 30  1  0  0  0
 16 17  1  0  0  0
 20 22  1  0  0  0
M  END
> <minimizedAffinity>
-8.29939

> <CNNscore>
0.0915045217

> <CNNaffinity>
6.7424774170

> <CNN_VS>
0.6169671416

> <CNNaffinity_variance>
0.2778131366

$$$$
[H]OC(=O)C([H])([H])[C@@]([H])(C(=O)N([H])[H])N([H])C(=O)[C@@]([H])(N([H])C(=O)[C@@]([H])(N([H])C(=O)[C@@]1([H])N(C(=O)[C@@]([H])(N([H])[H])C([H])([H])c2c([H])c([H])c(O[H])c([H])c2[H])C([H])([H])C([H])([H])C1([H])[H])C([H])([H])c1c([H])c([H])c(O[H])c([H])c1[H])[C@@]([H])(C([H])([H])[H])C([H])([H])C([H])([H])[H]


 58 60  0  0  0  0  0  0  0  0999 V2000
    3.5859    5.0946   15.8557 C   0  0  0  0  0  0  0  0  0  0  0  0
    4.0742    5.8347   13.5076 N   0  0  0  0  0  0  0  0  0  0  0  0
    3.1869    5.3444   14.4611 C   0  0  0  0  0  0  0  0  0  0  0  0
    2.0146    5.1065   14.1384 O   0  0  0  0  0  0  0  0  0  0  0  0
    5.0687    6.0174   13.8649 H   0  0  0  0  0  0  0  0  0  0  0  0
    3.8886    6.1361   12.1402 C   0  0  0  0  0  0  0  0  0  0  0  0
    5.0292    5.6573   11.3458 C   0  0  0  0  0  0  0  0  0  0  0  0
    5.0220    4.4593   10.9323 O   0  0  0  0  0  0  0  0  0  0  0  0
    6.1639    6.4339   10.9954 N   0  0  0  0  0  0  0  0  0  0  0  0
    6.1948    7.4262   11.3242 H   0  0  0  0  0  0  0  0  0  0  0  0
    7.2691    5.9438   10.2192 C   0  0  0  0  0  0  0  0  0  0  0  0
    8.5485    6.6144   10.6474 C   0  0  0  0  0  0  0  0  0  0  0  0
    9.7965    6.3944   10.0347 N   0  0  0  0  0  0  0  0  0  0  0  0
    8.4905    7.4223   11.6178 O   0  0  0  0  0  0  0  0  0  0  0  0
   10.6594    6.4880   10.6131 H   0  0  0  0  0  0  0  0  0  0  0  0
    9.8472    6.1423    9.0190 H   0  0  0  0  0  0  0  0  0  0  0  0
    7.1173    6.2560    8.7618 C   0  0  0  0  0  0  0  0  0  0  0  0
    5.7649    6.6297    8.3299 C   0  0  0  0  0  0  0  0  0  0  0  0
    4.7261    5.7684    8.0606 O   0  0  0  0  0  0  0  0  0  0  0  0
    5.5492    7.8757    8.1965 O   0  0  0  0  0  0  0  0  0  0  0  0
    3.9830    6.0663    7.4323 H   0  0  0  0  0  0  0  0  0  0  0  0
    3.5987    7.5441   11.7874 C   0  0  0  0  0  0  0  0  0  0  0  0
    2.8497    7.5940   10.4720 C   0  0  0  0  0  0  0  0  0  0  0  0
    1.3784    8.1295   12.4940 C   0  0  0  0  0  0  0  0  0  0  0  0
    2.8744    8.3911   12.7624 C   0  0  0  0  0  0  0  0  0  0  0  0
    4.0148    6.2934   16.5546 N   0  0  0  0  0  0  0  0  0  0  0  0
    5.3093    6.4143   17.1270 C   0  0  0  0  0  0  0  0  0  0  0  0
    6.1578    5.5000   17.0564 O   0  0  0  0  0  0  0  0  0  0  0  0
    3.3511    7.0759   16.6346 H   0  0  0  0  0  0  0  0  0  0  0  0
    5.6518    7.6750   17.8330 C   0  0  0  0  0  0  0  0  0  0  0  0
    6.9907    8.1764   17.3568 C   0  0  0  0  0  0  0  0  0  0  0  0
    7.8533    8.1145   18.6245 C   0  0  0  0  0  0  0  0  0  0  0  0
    6.8299    8.4281   19.7006 C   0  0  0  0  0  0  0  0  0  0  0  0
    5.7290    7.5977   19.2573 N   0  0  0  0  0  0  0  0  0  0  0  0
    4.8190    6.8945   20.1169 C   0  0  0  0  0  0  0  0  0  0  0  0
    3.8091    6.2996   19.6690 O   0  0  0  0  0  0  0  0  0  0  0  0
    5.0090    6.8338   21.5779 C   0  0  0  0  0  0  0  0  0  0  0  0
    4.5729    8.1453   22.1554 N   0  0  0  0  0  0  0  0  0  0  0  0
    5.0809    8.3264   23.0413 H   0  0  0  0  0  0  0  0  0  0  0  0
    4.7519    8.8880   21.4535 H   0  0  0  0  0  0  0  0  0  0  0  0
    4.2761    5.7644   22.3065 C   0  0  0  0  0  0  0  0  0  0  0  0
    4.5987    4.3666   22.0384 C   0  0  0  0  0  0  0  0  0  0  0  0
    3.7127    3.3396   22.4187 C   0  0  0  0  0  0  0  0  0  0  0  0
    3.9543    2.0146   22.1720 C   0  0  0  0  0  0  0  0  0  0  0  0
    5.1024    1.6407   21.5274 C   0  0  0  0  0  0  0  0  0  0  0  0
    5.3873    0.3123   21.2571 O   0  0  0  0  0  0  0  0  0  0  0  0
    6.0096    2.6255   21.1323 C   0  0  0  0  0  0  0  0  0  0  0  0
    5.7364    3.9436   21.3947 C   0  0  0  0  0  0  0  0  0  0  0  0
    6.2572    0.0660   20.7722 H   0  0  0  0  0  0  0  0  0  0  0  0
    2.4567    4.4938   16.6753 C   0  0  0  0  0  0  0  0  0  0  0  0
    2.6459    3.0395   16.8630 C   0  0  0  0  0  0  0  0  0  0  0  0
    3.4664    2.6037   17.8728 C   0  0  0  0  0  0  0  0  0  0  0  0
    3.6895    1.2495   18.1107 C   0  0  0  0  0  0  0  0  0  0  0  0
    3.0465    0.3597   17.2823 C   0  0  0  0  0  0  0  0  0  0  0  0
    3.2295   -1.0051   17.4702 O   0  0  0  0  0  0  0  0  0  0  0  0
    2.2083    0.8021   16.2502 C   0  0  0  0  0  0  0  0  0  0  0  0
    2.0081    2.1530   16.0414 C   0  0  0  0  0  0  0  0  0  0  0  0
    3.9879   -1.4579   16.9786 H   0  0  0  0  0  0  0  0  0  0  0  0
 24 25  1  0  0  0
 25 22  1  0  0  0
 22 23  1  0  0  0
 22  6  1  0  0  0
  6  2  1  0  0  0
  2  3  1  0  0  0
  3  4  2  0  0  0
  3  1  1  0  0  0
  1 50  1  0  0  0
 50 51  1  0  0  0
 51 52  2  0  0  0
 52 53  1  0  0  0
 53 54  2  0  0  0
 54 55  1  0  0  0
 54 56  1  0  0  0
 56 57  2  0  0  0
  1 26  1  0  0  0
 26 27  1  0  0  0
 27 28  2  0  0  0
 27 30  1  0  0  0
 30 31  1  0  0  0
 31 32  1  0  0  0
 32 33  1  0  0  0
 33 34  1  0  0  0
 34 35  1  0  0  0
 35 36  2  0  0  0
 35 37  1  0  0  0
 37 38  1  0  0  0
 37 41  1  0  0  0
 41 42  1  0  0  0
 42 43  2  0  0  0
 43 44  1  0  0  0
 44 45  2  0  0  0
 45 46  1  0  0  0
 45 47  1  0  0  0
 47 48  2  0  0  0
  6  7  1  0  0  0
  7  8  2  0  0  0
  7  9  1  0  0  0
  9 11  1  0  0  0
 11 17  1  0  0  0
 17 18  1  0  0  0
 18 19  1  0  0  0
 18 20  2  0  0  0
 11 12  1  0  0  0
 12 13  1  0  0  0
 12 14  2  0  0  0
 57 51  1  0  0  0
 34 30  1  0  0  0
 48 42  1  0  0  0
  2  5  1  0  0  0
 55 58  1  0  0  0
 26 29  1  0  0  0
 38 39  1  0  0  0
 38 40  1  0  0  0
 46 49  1  0  0  0
  9 10  1  0  0  0
 19 21  1  0  0  0
 13 15  1  0  0  0
 13 16  1  0  0  0
M  END
> <minimizedAffinity>
-7.68894

> <CNNscore>
0.4933086634

> <CNNaffinity>
7.0197362900

> <CNN_VS>
3.4628968239

> <CNNaffinity_variance>
0.1575501561

$$$$
[H]OC(=O)C([H])([H])[C@@]([H])(C(=O)N([H])[H])N([H])C(=O)[C@@]([H])(N([H])C(=O)[C@@]([H])(N([H])C(=O)[C@@]1([H])N(C(=O)[C@@]([H])(N([H])[H])C([H])([H])c2c([H])c([H])c(O[H])c([H])c2[H])C([H])([H])C([H])([H])C1([H])[H])C([H])([H])c1c([H])c([H])c(O[H])c([H])c1[H])[C@@]([H])(C([H])([H])[H])C([H])([H])C([H])([H])[H]


 58 60  0  0  0  0  0  0  0  0999 V2000
    4.4028    6.3153   16.1157 C   0  0  0  0  0  0  0  0  0  0  0  0
    3.7966    6.6574   13.7043 N   0  0  0  0  0  0  0  0  0  0  0  0
    4.2744    7.1543   14.9132 C   0  0  0  0  0  0  0  0  0  0  0  0
    4.6093    8.3444   14.9941 O   0  0  0  0  0  0  0  0  0  0  0  0
    3.5301    5.6186   13.7144 H   0  0  0  0  0  0  0  0  0  0  0  0
    3.6015    7.2904   12.4567 C   0  0  0  0  0  0  0  0  0  0  0  0
    2.1670    7.4347   12.1690 C   0  0  0  0  0  0  0  0  0  0  0  0
    1.7960    8.3442   11.3680 O   0  0  0  0  0  0  0  0  0  0  0  0
    1.1378    6.6300   12.7227 N   0  0  0  0  0  0  0  0  0  0  0  0
    1.4170    5.8719   13.3868 H   0  0  0  0  0  0  0  0  0  0  0  0
   -0.2592    6.7907   12.4284 C   0  0  0  0  0  0  0  0  0  0  0  0
   -1.0694    6.7582   13.6982 C   0  0  0  0  0  0  0  0  0  0  0  0
   -2.4763    6.7819   13.7357 N   0  0  0  0  0  0  0  0  0  0  0  0
   -0.4407    6.7075   14.7936 O   0  0  0  0  0  0  0  0  0  0  0  0
   -2.9459    7.2135   14.5611 H   0  0  0  0  0  0  0  0  0  0  0  0
   -3.0309    6.3725   12.9468 H   0  0  0  0  0  0  0  0  0  0  0  0
   -0.7895    5.6741   11.5819 C   0  0  0  0  0  0  0  0  0  0  0  0
   -0.1066    4.3834   11.7327 C   0  0  0  0  0  0  0  0  0  0  0  0
   -0.2797    3.4824   12.7583 O   0  0  0  0  0  0  0  0  0  0  0  0
    0.7231    4.0839   10.8168 O   0  0  0  0  0  0  0  0  0  0  0  0
    0.4690    2.8292   12.9783 H   0  0  0  0  0  0  0  0  0  0  0  0
    4.2831    6.7023   11.2818 C   0  0  0  0  0  0  0  0  0  0  0  0
    5.6806    7.2748   11.1665 C   0  0  0  0  0  0  0  0  0  0  0  0
    5.8512    4.9429   10.8158 C   0  0  0  0  0  0  0  0  0  0  0  0
    4.3785    5.2287   11.1738 C   0  0  0  0  0  0  0  0  0  0  0  0
    4.8715    7.0467   17.2798 N   0  0  0  0  0  0  0  0  0  0  0  0
    6.0909    6.7271   17.9347 C   0  0  0  0  0  0  0  0  0  0  0  0
    6.8358    5.8035   17.5437 O   0  0  0  0  0  0  0  0  0  0  0  0
    4.2931    7.8197   17.6364 H   0  0  0  0  0  0  0  0  0  0  0  0
    6.4804    7.5243   19.1255 C   0  0  0  0  0  0  0  0  0  0  0  0
    7.9546    7.8314   19.0712 C   0  0  0  0  0  0  0  0  0  0  0  0
    8.5033    7.1096   20.3094 C   0  0  0  0  0  0  0  0  0  0  0  0
    7.3407    7.2434   21.2758 C   0  0  0  0  0  0  0  0  0  0  0  0
    6.2370    6.9181   20.3958 N   0  0  0  0  0  0  0  0  0  0  0  0
    5.0597    6.1880   20.7732 C   0  0  0  0  0  0  0  0  0  0  0  0
    4.0842    6.0548   19.9955 O   0  0  0  0  0  0  0  0  0  0  0  0
    4.9200    5.5566   22.0983 C   0  0  0  0  0  0  0  0  0  0  0  0
    3.4586    5.3729   22.3707 N   0  0  0  0  0  0  0  0  0  0  0  0
    3.2883    5.3723   23.3938 H   0  0  0  0  0  0  0  0  0  0  0  0
    2.9386    6.1355   21.8972 H   0  0  0  0  0  0  0  0  0  0  0  0
    5.5739    4.2339   22.2842 C   0  0  0  0  0  0  0  0  0  0  0  0
    4.8295    3.0182   21.9713 C   0  0  0  0  0  0  0  0  0  0  0  0
    4.7657    2.5357   20.6494 C   0  0  0  0  0  0  0  0  0  0  0  0
    4.1013    1.3895   20.3034 C   0  0  0  0  0  0  0  0  0  0  0  0
    3.4598    0.6578   21.2659 C   0  0  0  0  0  0  0  0  0  0  0  0
    2.7759   -0.5077   20.9611 O   0  0  0  0  0  0  0  0  0  0  0  0
    3.4966    1.0989   22.5899 C   0  0  0  0  0  0  0  0  0  0  0  0
    4.1717    2.2512   22.9022 C   0  0  0  0  0  0  0  0  0  0  0  0
    2.3054   -1.0325   21.7065 H   0  0  0  0  0  0  0  0  0  0  0  0
    3.0837    5.6721   16.5083 C   0  0  0  0  0  0  0  0  0  0  0  0
    3.1999    4.1989   16.5581 C   0  0  0  0  0  0  0  0  0  0  0  0
    2.1015    3.4375   16.2474 C   0  0  0  0  0  0  0  0  0  0  0  0
    2.1375    2.0452   16.2702 C   0  0  0  0  0  0  0  0  0  0  0  0
    3.3322    1.4610   16.6209 C   0  0  0  0  0  0  0  0  0  0  0  0
    3.4304    0.0753   16.6613 O   0  0  0  0  0  0  0  0  0  0  0  0
    4.4553    2.2363   16.9389 C   0  0  0  0  0  0  0  0  0  0  0  0
    4.3858    3.6157   16.9062 C   0  0  0  0  0  0  0  0  0  0  0  0
    3.2157   -0.3941   17.5305 H   0  0  0  0  0  0  0  0  0  0  0  0
 24 25  1  0  0  0
 25 22  1  0  0  0
 22 23  1  0  0  0
 22  6  1  0  0  0
  6  2  1  0  0  0
  2  3  1  0  0  0
  3  4  2  0  0  0
  3  1  1  0  0  0
  1 50  1  0  0  0
 50 51  1  0  0  0
 51 52  2  0  0  0
 52 53  1  0  0  0
 53 54  2  0  0  0
 54 55  1  0  0  0
 54 56  1  0  0  0
 56 57  2  0  0  0
  1 26  1  0  0  0
 26 27  1  0  0  0
 27 28  2  0  0  0
 27 30  1  0  0  0
 30 31  1  0  0  0
 31 32  1  0  0  0
 32 33  1  0  0  0
 33 34  1  0  0  0
 34 35  1  0  0  0
 35 36  2  0  0  0
 35 37  1  0  0  0
 37 38  1  0  0  0
 37 41  1  0  0  0
 41 42  1  0  0  0
 42 43  2  0  0  0
 43 44  1  0  0  0
 44 45  2  0  0  0
 45 46  1  0  0  0
 45 47  1  0  0  0
 47 48  2  0  0  0
  6  7  1  0  0  0
  7  8  2  0  0  0
  7  9  1  0  0  0
  9 11  1  0  0  0
 11 17  1  0  0  0
 17 18  1  0  0  0
 18 19  1  0  0  0
 18 20  2  0  0  0
 11 12  1  0  0  0
 12 13  1  0  0  0
 12 14  2  0  0  0
 57 51  1  0  0  0
 34 30  1  0  0  0
 48 42  1  0  0  0
  2  5  1  0  0  0
 55 58  1  0  0  0
 26 29  1  0  0  0
 38 39  1  0  0  0
 38 40  1  0  0  0
 46 49  1  0  0  0
  9 10  1  0  0  0
 19 21  1  0  0  0
 13 15  1  0  0  0
 13 16  1  0  0  0
M  END
> <minimizedAffinity>
-8.79573

> <CNNscore>
0.4757321179

> <CNNaffinity>
7.0690374374

> <CNN_VS>
3.3629682064

> <CNNaffinity_variance>
0.2203754932

$$$$
[H]OC(=O)C([H])([H])[C@@]([H])(C(=O)N([H])[H])N([H])C(=O)[C@@]([H])(N([H])C(=O)[C@@]([H])(N([H])C(=O)[C@@]1([H])N(C(=O)[C@@]([H])(N([H])[H])C([H])([H])c2c([H])c([H])c(O[H])c([H])c2[H])C([H])([H])C([H])([H])C1([H])[H])C([H])([H])c1c([H])c([H])c(O[H])c([H])c1[H])[C@@]([H])(C([H])([H])[H])C([H])([H])C([H])([H])[H]


 58 60  0  0  0  0  0  0  0  0999 V2000
    4.1140    5.7158   16.3707 C   0  0  0  0  0  0  0  0  0  0  0  0
    3.5524    5.7314   13.9245 N   0  0  0  0  0  0  0  0  0  0  0  0
    3.7440    6.4079   15.1255 C   0  0  0  0  0  0  0  0  0  0  0  0
    3.6029    7.6383   15.1620 O   0  0  0  0  0  0  0  0  0  0  0  0
    3.6951    4.6696   13.9742 H   0  0  0  0  0  0  0  0  0  0  0  0
    3.2003    6.2063   12.6417 C   0  0  0  0  0  0  0  0  0  0  0  0
    1.9862    5.5338   12.1567 C   0  0  0  0  0  0  0  0  0  0  0  0
    2.0827    4.3505   11.7131 O   0  0  0  0  0  0  0  0  0  0  0  0
    0.6878    6.1056   12.1383 N   0  0  0  0  0  0  0  0  0  0  0  0
    0.5806    7.0813   12.4990 H   0  0  0  0  0  0  0  0  0  0  0  0
   -0.4852    5.4297   11.6572 C   0  0  0  0  0  0  0  0  0  0  0  0
   -1.0008    6.0986   10.4095 C   0  0  0  0  0  0  0  0  0  0  0  0
   -0.2191    6.9203    9.5759 N   0  0  0  0  0  0  0  0  0  0  0  0
   -2.2109    5.9065   10.0988 O   0  0  0  0  0  0  0  0  0  0  0  0
   -0.6901    7.6866    9.0475 H   0  0  0  0  0  0  0  0  0  0  0  0
    0.8127    6.7581    9.4945 H   0  0  0  0  0  0  0  0  0  0  0  0
   -1.6130    5.4868   12.6418 C   0  0  0  0  0  0  0  0  0  0  0  0
   -1.5194    6.5461   13.6539 C   0  0  0  0  0  0  0  0  0  0  0  0
   -0.5257    6.6919   14.5944 O   0  0  0  0  0  0  0  0  0  0  0  0
   -2.4569    7.4052   13.6466 O   0  0  0  0  0  0  0  0  0  0  0  0
   -0.7253    7.1976   15.4547 H   0  0  0  0  0  0  0  0  0  0  0  0
    4.2416    6.1617   11.5907 C   0  0  0  0  0  0  0  0  0  0  0  0
    5.0319    7.4536   11.6039 C   0  0  0  0  0  0  0  0  0  0  0  0
    5.4755    4.7460   10.0923 C   0  0  0  0  0  0  0  0  0  0  0  0
    5.2016    5.0344   11.5824 C   0  0  0  0  0  0  0  0  0  0  0  0
    4.7105    6.5945   17.3616 N   0  0  0  0  0  0  0  0  0  0  0  0
    5.9889    6.3413   17.9268 C   0  0  0  0  0  0  0  0  0  0  0  0
    6.6789    5.3525   17.5995 O   0  0  0  0  0  0  0  0  0  0  0  0
    4.1810    7.4251   17.6597 H   0  0  0  0  0  0  0  0  0  0  0  0
    6.5102    7.2910   18.9424 C   0  0  0  0  0  0  0  0  0  0  0  0
    7.8624    7.8005   18.5150 C   0  0  0  0  0  0  0  0  0  0  0  0
    8.7922    7.2803   19.6195 C   0  0  0  0  0  0  0  0  0  0  0  0
    7.8794    7.3330   20.8310 C   0  0  0  0  0  0  0  0  0  0  0  0
    6.6690    6.7740   20.2645 N   0  0  0  0  0  0  0  0  0  0  0  0
    5.7448    5.9197   20.9555 C   0  0  0  0  0  0  0  0  0  0  0  0
    4.6501    5.5777   20.4467 O   0  0  0  0  0  0  0  0  0  0  0  0
    6.0198    5.3977   22.3069 C   0  0  0  0  0  0  0  0  0  0  0  0
    4.7327    5.3981   23.0730 N   0  0  0  0  0  0  0  0  0  0  0  0
    4.9270    5.4848   24.0881 H   0  0  0  0  0  0  0  0  0  0  0  0
    4.1462    6.1811   22.7279 H   0  0  0  0  0  0  0  0  0  0  0  0
    6.5858    4.0252   22.3942 C   0  0  0  0  0  0  0  0  0  0  0  0
    5.7336    2.8799   22.0903 C   0  0  0  0  0  0  0  0  0  0  0  0
    6.2177    1.8119   21.3099 C   0  0  0  0  0  0  0  0  0  0  0  0
    5.4701    0.7038   21.0135 C   0  0  0  0  0  0  0  0  0  0  0  0
    4.1887    0.6017   21.4837 C   0  0  0  0  0  0  0  0  0  0  0  0
    3.3967   -0.5010   21.2087 O   0  0  0  0  0  0  0  0  0  0  0  0
    3.6673    1.6373   22.2614 C   0  0  0  0  0  0  0  0  0  0  0  0
    4.4437    2.7330   22.5400 C   0  0  0  0  0  0  0  0  0  0  0  0
    2.4400   -0.5461   21.5765 H   0  0  0  0  0  0  0  0  0  0  0  0
    2.9178    5.0577   17.0370 C   0  0  0  0  0  0  0  0  0  0  0  0
    3.0202    3.5835   16.9863 C   0  0  0  0  0  0  0  0  0  0  0  0
    3.7805    2.9401   17.9302 C   0  0  0  0  0  0  0  0  0  0  0  0
    3.9206    1.5543   17.9464 C   0  0  0  0  0  0  0  0  0  0  0  0
    3.2584    0.8521   16.9667 C   0  0  0  0  0  0  0  0  0  0  0  0
    3.3595   -0.5334   16.9309 O   0  0  0  0  0  0  0  0  0  0  0  0
    2.4816    1.5069   16.0015 C   0  0  0  0  0  0  0  0  0  0  0  0
    2.3632    2.8832   16.0140 C   0  0  0  0  0  0  0  0  0  0  0  0
    4.1082   -0.9444   16.3901 H   0  0  0  0  0  0  0  0  0  0  0  0
 24 25  1  0  0  0
 25 22  1  0  0  0
 22 23  1  0  0  0
 22  6  1  0  0  0
  6  2  1  0  0  0
  2  3  1  0  0  0
  3  4  2  0  0  0
  3  1  1  0  0  0
  1 50  1  0  0  0
 50 51  1  0  0  0
 51 52  2  0  0  0
 52 53  1  0  0  0
 53 54  2  0  0  0
 54 55  1  0  0  0
 54 56  1  0  0  0
 56 57  2  0  0  0
  1 26  1  0  0  0
 26 27  1  0  0  0
 27 28  2  0  0  0
 27 30  1  0  0  0
 30 31  1  0  0  0
 31 32  1  0  0  0
 32 33  1  0  0  0
 33 34  1  0  0  0
 34 35  1  0  0  0
 35 36  2  0  0  0
 35 37  1  0  0  0
 37 38  1  0  0  0
 37 41  1  0  0  0
 41 42  1  0  0  0
 42 43  2  0  0  0
 43 44  1  0  0  0
 44 45  2  0  0  0
 45 46  1  0  0  0
 45 47  1  0  0  0
 47 48  2  0  0  0
  6  7  1  0  0  0
  7  8  2  0  0  0
  7  9  1  0  0  0
  9 11  1  0  0  0
 11 17  1  0  0  0
 17 18  1  0  0  0
 18 19  1  0  0  0
 18 20  2  0  0  0
 11 12  1  0  0  0
 12 13  1  0  0  0
 12 14  2  0  0  0
 57 51  1  0  0  0
 34 30  1  0  0  0
 48 42  1  0  0  0
  2  5  1  0  0  0
 55 58  1  0  0  0
 26 29  1  0  0  0
 38 39  1  0  0  0
 38 40  1  0  0  0
 46 49  1  0  0  0
  9 10  1  0  0  0
 19 21  1  0  0  0
 13 15  1  0  0  0
 13 16  1  0  0  0
M  END
> <minimizedAffinity>
-8.86928

> <CNNscore>
0.3885617554

> <CNNaffinity>
7.0319051743

> <CNN_VS>
2.7323293686

> <CNNaffinity_variance>
0.1842074245

$$$$
[H]OC(=O)C([H])([H])[C@@]([H])(C(=O)N([H])[H])N([H])C(=O)[C@@]([H])(N([H])C(=O)[C@@]([H])(N([H])C(=O)[C@@]1([H])N(C(=O)[C@@]([H])(N([H])[H])C([H])([H])c2c([H])c([H])c(O[H])c([H])c2[H])C([H])([H])C([H])([H])C1([H])[H])C([H])([H])c1c([H])c([H])c(O[H])c([H])c1[H])[C@@]([H])(C([H])([H])[H])C([H])([H])C([H])([H])[H]


 58 60  0  0  0  0  0  0  0  0999 V2000
    4.1122    5.8603   16.3749 C   0  0  0  0  0  0  0  0  0  0  0  0
    3.7166    5.9845   13.8994 N   0  0  0  0  0  0  0  0  0  0  0  0
    3.7560    6.5943   15.1498 C   0  0  0  0  0  0  0  0  0  0  0  0
    3.4851    7.7992   15.2499 O   0  0  0  0  0  0  0  0  0  0  0  0
    3.9657    4.9414   13.8955 H   0  0  0  0  0  0  0  0  0  0  0  0
    3.4033    6.5072   12.6252 C   0  0  0  0  0  0  0  0  0  0  0  0
    2.4467    5.6343   11.9292 C   0  0  0  0  0  0  0  0  0  0  0  0
    1.2595    6.0450   11.7617 O   0  0  0  0  0  0  0  0  0  0  0  0
    2.7404    4.3431   11.4196 N   0  0  0  0  0  0  0  0  0  0  0  0
    3.7133    3.9803   11.5446 H   0  0  0  0  0  0  0  0  0  0  0  0
    1.7880    3.5060   10.7441 C   0  0  0  0  0  0  0  0  0  0  0  0
    1.5272    2.2568   11.5451 C   0  0  0  0  0  0  0  0  0  0  0  0
    0.7055    1.1998   11.1107 N   0  0  0  0  0  0  0  0  0  0  0  0
    2.0828    2.1592   12.6763 O   0  0  0  0  0  0  0  0  0  0  0  0
    0.2035    0.6316   11.8271 H   0  0  0  0  0  0  0  0  0  0  0  0
    0.6065    0.9961   10.0878 H   0  0  0  0  0  0  0  0  0  0  0  0
    2.2936    3.0353    9.4146 C   0  0  0  0  0  0  0  0  0  0  0  0
    3.5882    2.3434    9.4362 C   0  0  0  0  0  0  0  0  0  0  0  0
    4.8181    2.9183    9.6606 O   0  0  0  0  0  0  0  0  0  0  0  0
    3.5515    1.0900    9.2251 O   0  0  0  0  0  0  0  0  0  0  0  0
    5.6533    2.4641    9.2976 H   0  0  0  0  0  0  0  0  0  0  0  0
    4.5334    6.8192   11.7216 C   0  0  0  0  0  0  0  0  0  0  0  0
    4.0014    7.3698   10.4148 C   0  0  0  0  0  0  0  0  0  0  0  0
    6.4221    8.0844   10.9444 C   0  0  0  0  0  0  0  0  0  0  0  0
    5.6037    7.7232   12.2008 C   0  0  0  0  0  0  0  0  0  0  0  0
    4.7335    6.6972   17.3865 N   0  0  0  0  0  0  0  0  0  0  0  0
    5.9988    6.3875   17.9531 C   0  0  0  0  0  0  0  0  0  0  0  0
    6.6554    5.3818   17.6093 O   0  0  0  0  0  0  0  0  0  0  0  0
    4.2318    7.5398   17.6987 H   0  0  0  0  0  0  0  0  0  0  0  0
    6.5473    7.2975   18.9905 C   0  0  0  0  0  0  0  0  0  0  0  0
    7.9162    7.7729   18.5772 C   0  0  0  0  0  0  0  0  0  0  0  0
    8.8259    7.1991   19.6719 C   0  0  0  0  0  0  0  0  0  0  0  0
    7.9118    7.2541   20.8824 C   0  0  0  0  0  0  0  0  0  0  0  0
    6.6858    6.7467   20.3012 N   0  0  0  0  0  0  0  0  0  0  0  0
    5.7330    5.9073   20.9712 C   0  0  0  0  0  0  0  0  0  0  0  0
    4.6294    5.6117   20.4527 O   0  0  0  0  0  0  0  0  0  0  0  0
    5.9875    5.3471   22.3113 C   0  0  0  0  0  0  0  0  0  0  0  0
    4.6809    5.2833   23.0410 N   0  0  0  0  0  0  0  0  0  0  0  0
    4.8454    5.3405   24.0635 H   0  0  0  0  0  0  0  0  0  0  0  0
    4.0805    6.0603   22.7064 H   0  0  0  0  0  0  0  0  0  0  0  0
    6.5921    3.9895   22.3678 C   0  0  0  0  0  0  0  0  0  0  0  0
    5.7643    2.8254   22.0685 C   0  0  0  0  0  0  0  0  0  0  0  0
    4.4602    2.7186   22.5901 C   0  0  0  0  0  0  0  0  0  0  0  0
    3.6329    1.6606   22.3235 C   0  0  0  0  0  0  0  0  0  0  0  0
    4.0666    0.6442   21.5157 C   0  0  0  0  0  0  0  0  0  0  0  0
    3.2635   -0.4448   21.2192 O   0  0  0  0  0  0  0  0  0  0  0  0
    5.3528    0.7083   20.9768 C   0  0  0  0  0  0  0  0  0  0  0  0
    6.1555    1.7828   21.2637 C   0  0  0  0  0  0  0  0  0  0  0  0
    3.6194   -1.1898   20.6103 H   0  0  0  0  0  0  0  0  0  0  0  0
    2.9019    5.2148   17.0278 C   0  0  0  0  0  0  0  0  0  0  0  0
    2.9977    3.7397   16.9936 C   0  0  0  0  0  0  0  0  0  0  0  0
    3.8114    3.1082   17.9003 C   0  0  0  0  0  0  0  0  0  0  0  0
    3.9490    1.7224   17.9293 C   0  0  0  0  0  0  0  0  0  0  0  0
    3.2280    1.0076   17.0015 C   0  0  0  0  0  0  0  0  0  0  0  0
    3.3237   -0.3787   16.9809 O   0  0  0  0  0  0  0  0  0  0  0  0
    2.3966    1.6501   16.0745 C   0  0  0  0  0  0  0  0  0  0  0  0
    2.2823    3.0269   16.0730 C   0  0  0  0  0  0  0  0  0  0  0  0
    4.0379   -0.8001   16.4028 H   0  0  0  0  0  0  0  0  0  0  0  0
 24 25  1  0  0  0
 25 22  1  0  0  0
 22 23  1  0  0  0
 22  6  1  0  0  0
  6  2  1  0  0  0
  2  3  1  0  0  0
  3  4  2  0  0  0
  3  1  1  0  0  0
  1 50  1  0  0  0
 50 51  1  0  0  0
 51 52  2  0  0  0
 52 53  1  0  0  0
 53 54  2  0  0  0
 54 55  1  0  0  0
 54 56  1  0  0  0
 56 57  2  0  0  0
  1 26  1  0  0  0
 26 27  1  0  0  0
 27 28  2  0  0  0
 27 30  1  0  0  0
 30 31  1  0  0  0
 31 32  1  0  0  0
 32 33  1  0  0  0
 33 34  1  0  0  0
 34 35  1  0  0  0
 35 36  2  0  0  0
 35 37  1  0  0  0
 37 38  1  0  0  0
 37 41  1  0  0  0
 41 42  1  0  0  0
 42 43  2  0  0  0
 43 44  1  0  0  0
 44 45  2  0  0  0
 45 46  1  0  0  0
 45 47  1  0  0  0
 47 48  2  0  0  0
  6  7  1  0  0  0
  7  8  2  0  0  0
  7  9  1  0  0  0
  9 11  1  0  0  0
 11 17  1  0  0  0
 17 18  1  0  0  0
 18 19  1  0  0  0
 18 20  2  0  0  0
 11 12  1  0  0  0
 12 13  1  0  0  0
 12 14  2  0  0  0
 57 51  1  0  0  0
 34 30  1  0  0  0
 48 42  1  0  0  0
  2  5  1  0  0  0
 55 58  1  0  0  0
 26 29  1  0  0  0
 38 39  1  0  0  0
 38 40  1  0  0  0
 46 49  1  0  0  0
  9 10  1  0  0  0
 19 21  1  0  0  0
 13 15  1  0  0  0
 13 16  1  0  0  0
M  END
> <minimizedAffinity>
-8.26391

> <CNNscore>
0.3350737393

> <CNNaffinity>
7.0181212425

> <CNN_VS>
2.3515880108

> <CNNaffinity_variance>
0.2119481862

$$$$
[H]OC(=O)C([H])([H])[C@@]([H])(C(=O)N([H])[H])N([H])C(=O)[C@@]([H])(N([H])C(=O)[C@@]([H])(N([H])C(=O)[C@@]1([H])N(C(=O)[C@@]([H])(N([H])[H])C([H])([H])c2c([H])c([H])c(O[H])c([H])c2[H])C([H])([H])C([H])([H])C1([H])[H])C([H])([H])c1c([H])c([H])c(O[H])c([H])c1[H])[C@@]([H])(C([H])([H])[H])C([H])([H])C([H])([H])[H]


 58 60  0  0  0  0  0  0  0  0999 V2000
    4.4995    4.7427   17.6032 C   0  0  0  0  0  0  0  0  0  0  0  0
    4.2091    5.4622   19.9903 N   0  0  0  0  0  0  0  0  0  0  0  0
    4.9791    5.3940   18.8330 C   0  0  0  0  0  0  0  0  0  0  0  0
    6.1112    5.8973   18.8228 O   0  0  0  0  0  0  0  0  0  0  0  0
    3.2412    5.0059   19.9186 H   0  0  0  0  0  0  0  0  0  0  0  0
    4.4849    6.0337   21.2521 C   0  0  0  0  0  0  0  0  0  0  0  0
    5.2192    7.2980   21.0976 C   0  0  0  0  0  0  0  0  0  0  0  0
    4.6277    8.2832   20.5631 O   0  0  0  0  0  0  0  0  0  0  0  0
    6.5620    7.5172   21.5003 N   0  0  0  0  0  0  0  0  0  0  0  0
    7.0731    6.7201   21.9443 H   0  0  0  0  0  0  0  0  0  0  0  0
    7.2608    8.7619   21.3372 C   0  0  0  0  0  0  0  0  0  0  0  0
    8.6003    8.5297   20.6876 C   0  0  0  0  0  0  0  0  0  0  0  0
    8.7876    7.7674   19.5193 N   0  0  0  0  0  0  0  0  0  0  0  0
    9.6140    9.0538   21.2312 O   0  0  0  0  0  0  0  0  0  0  0  0
    9.6942    7.2682   19.3896 H   0  0  0  0  0  0  0  0  0  0  0  0
    8.0268    7.7087   18.8014 H   0  0  0  0  0  0  0  0  0  0  0  0
    7.5570    9.4189   22.6507 C   0  0  0  0  0  0  0  0  0  0  0  0
    7.3461    8.5845   23.8400 C   0  0  0  0  0  0  0  0  0  0  0  0
    7.7766    7.2895   24.0162 O   0  0  0  0  0  0  0  0  0  0  0  0
    6.7002    9.1272   24.7914 O   0  0  0  0  0  0  0  0  0  0  0  0
    7.2856    6.6871   24.6732 H   0  0  0  0  0  0  0  0  0  0  0  0
    5.1734    5.1826   22.2483 C   0  0  0  0  0  0  0  0  0  0  0  0
    4.1580    4.6106   23.2156 C   0  0  0  0  0  0  0  0  0  0  0  0
    5.6006    2.8443   22.5972 C   0  0  0  0  0  0  0  0  0  0  0  0
    6.0306    4.0736   21.7711 C   0  0  0  0  0  0  0  0  0  0  0  0
    4.6644    5.5633   16.4162 N   0  0  0  0  0  0  0  0  0  0  0  0
    3.5587    6.0067   15.6423 C   0  0  0  0  0  0  0  0  0  0  0  0
    2.3791    5.7238   15.9413 O   0  0  0  0  0  0  0  0  0  0  0  0
    5.6182    5.8257   16.1325 H   0  0  0  0  0  0  0  0  0  0  0  0
    3.8284    6.8319   14.4376 C   0  0  0  0  0  0  0  0  0  0  0  0
    3.1462    8.1686   14.5742 C   0  0  0  0  0  0  0  0  0  0  0  0
    2.1361    8.1603   13.4190 C   0  0  0  0  0  0  0  0  0  0  0  0
    2.8851    7.3590   12.3699 C   0  0  0  0  0  0  0  0  0  0  0  0
    3.4017    6.2825   13.1900 N   0  0  0  0  0  0  0  0  0  0  0  0
    3.5421    4.9151   12.7755 C   0  0  0  0  0  0  0  0  0  0  0  0
    4.1182    4.0608   13.4915 O   0  0  0  0  0  0  0  0  0  0  0  0
    3.0261    4.4311   11.4817 C   0  0  0  0  0  0  0  0  0  0  0  0
    4.1275    3.6823   10.7961 N   0  0  0  0  0  0  0  0  0  0  0  0
    3.9934    3.7215    9.7684 H   0  0  0  0  0  0  0  0  0  0  0  0
    5.0337    4.1004   11.0794 H   0  0  0  0  0  0  0  0  0  0  0  0
    1.8414    3.5332   11.5248 C   0  0  0  0  0  0  0  0  0  0  0  0
    0.5034    4.1157   11.5449 C   0  0  0  0  0  0  0  0  0  0  0  0
    0.0537    4.8428   12.6645 C   0  0  0  0  0  0  0  0  0  0  0  0
   -1.1820    5.4291   12.7278 C   0  0  0  0  0  0  0  0  0  0  0  0
   -2.0421    5.3202   11.6686 C   0  0  0  0  0  0  0  0  0  0  0  0
   -3.3012    5.8973   11.6893 O   0  0  0  0  0  0  0  0  0  0  0  0
   -1.6381    4.6081   10.5377 C   0  0  0  0  0  0  0  0  0  0  0  0
   -0.3931    4.0336   10.5071 C   0  0  0  0  0  0  0  0  0  0  0  0
   -3.9215    5.7965   10.8784 H   0  0  0  0  0  0  0  0  0  0  0  0
    5.2201    3.4335   17.3305 C   0  0  0  0  0  0  0  0  0  0  0  0
    4.3807    2.2732   17.6985 C   0  0  0  0  0  0  0  0  0  0  0  0
    4.3796    1.8440   19.0018 C   0  0  0  0  0  0  0  0  0  0  0  0
    3.6120    0.7601   19.4218 C   0  0  0  0  0  0  0  0  0  0  0  0
    2.8486    0.1326   18.4653 C   0  0  0  0  0  0  0  0  0  0  0  0
    2.0612   -0.9550   18.8235 O   0  0  0  0  0  0  0  0  0  0  0  0
    2.8482    0.5688   17.1337 C   0  0  0  0  0  0  0  0  0  0  0  0
    3.6210    1.6478   16.7502 C   0  0  0  0  0  0  0  0  0  0  0  0
    2.4679   -1.8788   18.7677 H   0  0  0  0  0  0  0  0  0  0  0  0
 24 25  1  0  0  0
 25 22  1  0  0  0
 22 23  1  0  0  0
 22  6  1  0  0  0
  6  2  1  0  0  0
  2  3  1  0  0  0
  3  4  2  0  0  0
  3  1  1  0  0  0
  1 50  1  0  0  0
 50 51  1  0  0  0
 51 52  2  0  0  0
 52 53  1  0  0  0
 53 54  2  0  0  0
 54 55  1  0  0  0
 54 56  1  0  0  0
 56 57  2  0  0  0
  1 26  1  0  0  0
 26 27  1  0  0  0
 27 28  2  0  0  0
 27 30  1  0  0  0
 30 31  1  0  0  0
 31 32  1  0  0  0
 32 33  1  0  0  0
 33 34  1  0  0  0
 34 35  1  0  0  0
 35 36  2  0  0  0
 35 37  1  0  0  0
 37 38  1  0  0  0
 37 41  1  0  0  0
 41 42  1  0  0  0
 42 43  2  0  0  0
 43 44  1  0  0  0
 44 45  2  0  0  0
 45 46  1  0  0  0
 45 47  1  0  0  0
 47 48  2  0  0  0
  6  7  1  0  0  0
  7  8  2  0  0  0
  7  9  1  0  0  0
  9 11  1  0  0  0
 11 17  1  0  0  0
 17 18  1  0  0  0
 18 19  1  0  0  0
 18 20  2  0  0  0
 11 12  1  0  0  0
 12 13  1  0  0  0
 12 14  2  0  0  0
 57 51  1  0  0  0
 34 30  1  0  0  0
 48 42  1  0  0  0
  2  5  1  0  0  0
 55 58  1  0  0  0
 26 29  1  0  0  0
 38 39  1  0  0  0
 38 40  1  0  0  0
 46 49  1  0  0  0
  9 10  1  0  0  0
 19 21  1  0  0  0
 13 15  1  0  0  0
 13 16  1  0  0  0
M  END
> <minimizedAffinity>
-8.87346

> <CNNscore>
0.2916304171

> <CNNaffinity>
6.8717179298

> <CNN_VS>
2.0040018559

> <CNNaffinity_variance>
0.2038809806

$$$$
[H]OC(=O)C([H])([H])[C@@]([H])(C(=O)N([H])[H])N([H])C(=O)[C@@]([H])(N([H])C(=O)[C@@]([H])(N([H])C(=O)[C@@]1([H])N(C(=O)[C@@]([H])(N([H])[H])C([H])([H])c2c([H])c([H])c(O[H])c([H])c2[H])C([H])([H])C([H])([H])C1([H])[H])C([H])([H])c1c([H])c([H])c(O[H])c([H])c1[H])[C@@]([H])(C([H])([H])[H])C([H])([H])C([H])([H])[H]


 58 60  0  0  0  0  0  0  0  0999 V2000
    4.4524    4.7961   16.8730 C   0  0  0  0  0  0  0  0  0  0  0  0
    4.8037    6.9995   18.0225 N   0  0  0  0  0  0  0  0  0  0  0  0
    5.2867    5.7629   17.6048 C   0  0  0  0  0  0  0  0  0  0  0  0
    6.4608    5.4520   17.8499 O   0  0  0  0  0  0  0  0  0  0  0  0
    3.7798    7.1951   17.7707 H   0  0  0  0  0  0  0  0  0  0  0  0
    5.4351    8.0493   18.7256 C   0  0  0  0  0  0  0  0  0  0  0  0
    5.4378    7.7758   20.1701 C   0  0  0  0  0  0  0  0  0  0  0  0
    4.7396    8.5120   20.9295 O   0  0  0  0  0  0  0  0  0  0  0  0
    6.1712    6.7395   20.8038 N   0  0  0  0  0  0  0  0  0  0  0  0
    6.7556    6.1174   20.1997 H   0  0  0  0  0  0  0  0  0  0  0  0
    6.1604    6.4920   22.2190 C   0  0  0  0  0  0  0  0  0  0  0  0
    7.5680    6.4520   22.7548 C   0  0  0  0  0  0  0  0  0  0  0  0
    8.0179    7.2203   23.8450 N   0  0  0  0  0  0  0  0  0  0  0  0
    8.3903    5.6795   22.1849 O   0  0  0  0  0  0  0  0  0  0  0  0
    9.0204    7.5071   23.8729 H   0  0  0  0  0  0  0  0  0  0  0  0
    7.3527    7.4932   24.6070 H   0  0  0  0  0  0  0  0  0  0  0  0
    5.5623    5.1599   22.5542 C   0  0  0  0  0  0  0  0  0  0  0  0
    4.0994    5.0792   22.4619 C   0  0  0  0  0  0  0  0  0  0  0  0
    3.2988    5.7536   21.5687 O   0  0  0  0  0  0  0  0  0  0  0  0
    3.5322    4.3056   23.2966 O   0  0  0  0  0  0  0  0  0  0  0  0
    2.3254    5.9298   21.8078 H   0  0  0  0  0  0  0  0  0  0  0  0
    4.9397    9.4232   18.4851 C   0  0  0  0  0  0  0  0  0  0  0  0
    6.0295   10.2491   17.8338 C   0  0  0  0  0  0  0  0  0  0  0  0
    2.8542   10.6153   18.5183 C   0  0  0  0  0  0  0  0  0  0  0  0
    3.6939    9.6082   17.7065 C   0  0  0  0  0  0  0  0  0  0  0  0
    4.0689    5.2540   15.5490 N   0  0  0  0  0  0  0  0  0  0  0  0
    2.7118    5.4571   15.1814 C   0  0  0  0  0  0  0  0  0  0  0  0
    1.7688    5.2616   15.9773 O   0  0  0  0  0  0  0  0  0  0  0  0
    4.8120    5.4327   14.8598 H   0  0  0  0  0  0  0  0  0  0  0  0
    2.4177    5.9153   13.7998 C   0  0  0  0  0  0  0  0  0  0  0  0
    1.3071    6.9333   13.8277 C   0  0  0  0  0  0  0  0  0  0  0  0
    0.1888    6.2460   13.0326 C   0  0  0  0  0  0  0  0  0  0  0  0
    0.9874    5.4502   12.0163 C   0  0  0  0  0  0  0  0  0  0  0  0
    2.0201    4.9039   12.8727 N   0  0  0  0  0  0  0  0  0  0  0  0
    2.6030    3.5981   12.7436 C   0  0  0  0  0  0  0  0  0  0  0  0
    3.5845    3.2384   13.4376 O   0  0  0  0  0  0  0  0  0  0  0  0
    2.0910    2.6024   11.7841 C   0  0  0  0  0  0  0  0  0  0  0  0
    0.5958    2.6932   11.7778 N   0  0  0  0  0  0  0  0  0  0  0  0
    0.1886    1.7790   11.5057 H   0  0  0  0  0  0  0  0  0  0  0  0
    0.2814    2.9859   12.7221 H   0  0  0  0  0  0  0  0  0  0  0  0
    2.5476    2.7314   10.3747 C   0  0  0  0  0  0  0  0  0  0  0  0
    3.4920    1.7571    9.8372 C   0  0  0  0  0  0  0  0  0  0  0  0
    3.2941    0.3775   10.0411 C   0  0  0  0  0  0  0  0  0  0  0  0
    4.1351   -0.5802    9.5408 C   0  0  0  0  0  0  0  0  0  0  0  0
    5.2277   -0.2091    8.8044 C   0  0  0  0  0  0  0  0  0  0  0  0
    6.1046   -1.1438    8.2790 O   0  0  0  0  0  0  0  0  0  0  0  0
    5.4631    1.1481    8.5775 C   0  0  0  0  0  0  0  0  0  0  0  0
    4.6002    2.0814    9.0927 C   0  0  0  0  0  0  0  0  0  0  0  0
    6.9143   -0.8319    7.7316 H   0  0  0  0  0  0  0  0  0  0  0  0
    5.1535    3.4615   16.6855 C   0  0  0  0  0  0  0  0  0  0  0  0
    4.3267    2.3459   17.1933 C   0  0  0  0  0  0  0  0  0  0  0  0
    4.4249    1.9985   18.5171 C   0  0  0  0  0  0  0  0  0  0  0  0
    3.6752    0.9606   19.0659 C   0  0  0  0  0  0  0  0  0  0  0  0
    2.8247    0.2928   18.2162 C   0  0  0  0  0  0  0  0  0  0  0  0
    2.0501   -0.7522   18.7054 O   0  0  0  0  0  0  0  0  0  0  0  0
    2.7227    0.6455   16.8638 C   0  0  0  0  0  0  0  0  0  0  0  0
    3.4805    1.6806   16.3512 C   0  0  0  0  0  0  0  0  0  0  0  0
    2.4343   -1.6868   18.6757 H   0  0  0  0  0  0  0  0  0  0  0  0
 24 25  1  0  0  0
 25 22  1  0  0  0
 22 23  1  0  0  0
 22  6  1  0  0  0
  6  2  1  0  0  0
  2  3  1  0  0  0
  3  4  2  0  0  0
  3  1  1  0  0  0
  1 50  1  0  0  0
 50 51  1  0  0  0
 51 52  2  0  0  0
 52 53  1  0  0  0
 53 54  2  0  0  0
 54 55  1  0  0  0
 54 56  1  0  0  0
 56 57  2  0  0  0
  1 26  1  0  0  0
 26 27  1  0  0  0
 27 28  2  0  0  0
 27 30  1  0  0  0
 30 31  1  0  0  0
 31 32  1  0  0  0
 32 33  1  0  0  0
 33 34  1  0  0  0
 34 35  1  0  0  0
 35 36  2  0  0  0
 35 37  1  0  0  0
 37 38  1  0  0  0
 37 41  1  0  0  0
 41 42  1  0  0  0
 42 43  2  0  0  0
 43 44  1  0  0  0
 44 45  2  0  0  0
 45 46  1  0  0  0
 45 47  1  0  0  0
 47 48  2  0  0  0
  6  7  1  0  0  0
  7  8  2  0  0  0
  7  9  1  0  0  0
  9 11  1  0  0  0
 11 17  1  0  0  0
 17 18  1  0  0  0
 18 19  1  0  0  0
 18 20  2  0  0  0
 11 12  1  0  0  0
 12 13  1  0  0  0
 12 14  2  0  0  0
 57 51  1  0  0  0
 34 30  1  0  0  0
 48 42  1  0  0  0
  2  5  1  0  0  0
 55 58  1  0  0  0
 26 29  1  0  0  0
 38 39  1  0  0  0
 38 40  1  0  0  0
 46 49  1  0  0  0
  9 10  1  0  0  0
 19 21  1  0  0  0
 13 15  1  0  0  0
 13 16  1  0  0  0
M  END
> <minimizedAffinity>
-9.17017

> <CNNscore>
0.2606408000

> <CNNaffinity>
6.5688719749

> <CNN_VS>
1.7121160030

> <CNNaffinity_variance>
0.5795719028

$$$$
[H]OC(=O)C([H])([H])[C@@]([H])(C(=O)N([H])[H])N([H])C(=O)[C@@]([H])(N([H])C(=O)[C@@]([H])(N([H])C(=O)[C@@]1([H])N(C(=O)[C@@]([H])(N([H])[H])C([H])([H])c2c([H])c([H])c(O[H])c([H])c2[H])C([H])([H])C([H])([H])C1([H])[H])C([H])([H])c1c([H])c([H])c(O[H])c([H])c1[H])[C@@]([H])(C([H])([H])[H])C([H])([H])C([H])([H])[H]


 58 60  0  0  0  0  0  0  0  0999 V2000
    4.6701    4.9278   17.6499 C   0  0  0  0  0  0  0  0  0  0  0  0
    4.7768    6.8901   19.2112 N   0  0  0  0  0  0  0  0  0  0  0  0
    5.3947    6.0224   18.3156 C   0  0  0  0  0  0  0  0  0  0  0  0
    6.5982    6.1660   18.0587 O   0  0  0  0  0  0  0  0  0  0  0  0
    3.7343    6.7020   19.3790 H   0  0  0  0  0  0  0  0  0  0  0  0
    5.2900    7.9844   19.9421 C   0  0  0  0  0  0  0  0  0  0  0  0
    5.6931    7.5615   21.2912 C   0  0  0  0  0  0  0  0  0  0  0  0
    5.0940    6.5806   21.8253 O   0  0  0  0  0  0  0  0  0  0  0  0
    6.7142    8.1692   22.0667 N   0  0  0  0  0  0  0  0  0  0  0  0
    7.2244    8.9809   21.6491 H   0  0  0  0  0  0  0  0  0  0  0  0
    7.0900    7.7399   23.3853 C   0  0  0  0  0  0  0  0  0  0  0  0
    7.0703    8.9044   24.3411 C   0  0  0  0  0  0  0  0  0  0  0  0
    7.5460    8.8453   25.6645 N   0  0  0  0  0  0  0  0  0  0  0  0
    6.5950    9.9983   23.9225 O   0  0  0  0  0  0  0  0  0  0  0  0
    7.1082    9.4654   26.3799 H   0  0  0  0  0  0  0  0  0  0  0  0
    8.3233    8.1893   25.9157 H   0  0  0  0  0  0  0  0  0  0  0  0
    8.4893    7.2062   23.4274 C   0  0  0  0  0  0  0  0  0  0  0  0
    8.6889    5.8969   22.7941 C   0  0  0  0  0  0  0  0  0  0  0  0
    7.7161    4.9601   22.5304 O   0  0  0  0  0  0  0  0  0  0  0  0
    9.8842    5.6168   22.4628 O   0  0  0  0  0  0  0  0  0  0  0  0
    7.9784    3.9803   22.4476 H   0  0  0  0  0  0  0  0  0  0  0  0
    4.4441    9.1952   20.0374 C   0  0  0  0  0  0  0  0  0  0  0  0
    5.3196   10.4305   19.9988 C   0  0  0  0  0  0  0  0  0  0  0  0
    3.5495   10.7933   18.4825 C   0  0  0  0  0  0  0  0  0  0  0  0
    3.3453    9.3786   19.0619 C   0  0  0  0  0  0  0  0  0  0  0  0
    4.3251    5.2222   16.2700 N   0  0  0  0  0  0  0  0  0  0  0  0
    2.9778    5.3169   15.8299 C   0  0  0  0  0  0  0  0  0  0  0  0
    2.0104    5.1603   16.6048 O   0  0  0  0  0  0  0  0  0  0  0  0
    5.0891    5.3635   15.5951 H   0  0  0  0  0  0  0  0  0  0  0  0
    2.7246    5.6099   14.3962 C   0  0  0  0  0  0  0  0  0  0  0  0
    1.7356    6.7404   14.2757 C   0  0  0  0  0  0  0  0  0  0  0  0
    0.5401    6.0800   13.5758 C   0  0  0  0  0  0  0  0  0  0  0  0
    1.2350    5.0667   12.6847 C   0  0  0  0  0  0  0  0  0  0  0  0
    2.2076    4.5314   13.6152 N   0  0  0  0  0  0  0  0  0  0  0  0
    2.6390    3.1631   13.6718 C   0  0  0  0  0  0  0  0  0  0  0  0
    3.5801    2.7946   14.4154 O   0  0  0  0  0  0  0  0  0  0  0  0
    2.0098    2.1083   12.8558 C   0  0  0  0  0  0  0  0  0  0  0  0
    0.6238    1.8852   13.3783 N   0  0  0  0  0  0  0  0  0  0  0  0
    0.3229    0.9136   13.1750 H   0  0  0  0  0  0  0  0  0  0  0  0
    0.6223    2.0805   14.3971 H   0  0  0  0  0  0  0  0  0  0  0  0
    1.8955    2.3673   11.3959 C   0  0  0  0  0  0  0  0  0  0  0  0
    3.0139    2.0311   10.5206 C   0  0  0  0  0  0  0  0  0  0  0  0
    3.9249    3.0225   10.1067 C   0  0  0  0  0  0  0  0  0  0  0  0
    5.0034    2.7590    9.3054 C   0  0  0  0  0  0  0  0  0  0  0  0
    5.2321    1.4814    8.8705 C   0  0  0  0  0  0  0  0  0  0  0  0
    6.3105    1.1694    8.0590 O   0  0  0  0  0  0  0  0  0  0  0  0
    4.3543    0.4666    9.2561 C   0  0  0  0  0  0  0  0  0  0  0  0
    3.2840    0.7651   10.0600 C   0  0  0  0  0  0  0  0  0  0  0  0
    6.4531    0.2014    7.7505 H   0  0  0  0  0  0  0  0  0  0  0  0
    5.4725    3.6379   17.6319 C   0  0  0  0  0  0  0  0  0  0  0  0
    4.7162    2.5278   18.2499 C   0  0  0  0  0  0  0  0  0  0  0  0
    3.9906    1.6901   17.4408 C   0  0  0  0  0  0  0  0  0  0  0  0
    3.2565    0.6224   17.9520 C   0  0  0  0  0  0  0  0  0  0  0  0
    3.2903    0.4422   19.3151 C   0  0  0  0  0  0  0  0  0  0  0  0
    2.5780   -0.6065   19.8844 O   0  0  0  0  0  0  0  0  0  0  0  0
    4.0304    1.2964   20.1435 C   0  0  0  0  0  0  0  0  0  0  0  0
    4.7481    2.3463   19.6040 C   0  0  0  0  0  0  0  0  0  0  0  0
    1.6223   -0.4374   20.1671 H   0  0  0  0  0  0  0  0  0  0  0  0
 24 25  1  0  0  0
 25 22  1  0  0  0
 22 23  1  0  0  0
 22  6  1  0  0  0
  6  2  1  0  0  0
  2  3  1  0  0  0
  3  4  2  0  0  0
  3  1  1  0  0  0
  1 50  1  0  0  0
 50 51  1  0  0  0
 51 52  2  0  0  0
 52 53  1  0  0  0
 53 54  2  0  0  0
 54 55  1  0  0  0
 54 56  1  0  0  0
 56 57  2  0  0  0
  1 26  1  0  0  0
 26 27  1  0  0  0
 27 28  2  0  0  0
 27 30  1  0  0  0
 30 31  1  0  0  0
 31 32  1  0  0  0
 32 33  1  0  0  0
 33 34  1  0  0  0
 34 35  1  0  0  0
 35 36  2  0  0  0
 35 37  1  0  0  0
 37 38  1  0  0  0
 37 41  1  0  0  0
 41 42  1  0  0  0
 42 43  2  0  0  0
 43 44  1  0  0  0
 44 45  2  0  0  0
 45 46  1  0  0  0
 45 47  1  0  0  0
 47 48  2  0  0  0
  6  7  1  0  0  0
  7  8  2  0  0  0
  7  9  1  0  0  0
  9 11  1  0  0  0
 11 17  1  0  0  0
 17 18  1  0  0  0
 18 19  1  0  0  0
 18 20  2  0  0  0
 11 12  1  0  0  0
 12 13  1  0  0  0
 12 14  2  0  0  0
 57 51  1  0  0  0
 34 30  1  0  0  0
 48 42  1  0  0  0
  2  5  1  0  0  0
 55 58  1  0  0  0
 26 29  1  0  0  0
 38 39  1  0  0  0
 38 40  1  0  0  0
 46 49  1  0  0  0
  9 10  1  0  0  0
 19 21  1  0  0  0
 13 15  1  0  0  0
 13 16  1  0  0  0
M  END
> <minimizedAffinity>
-9.33747

> <CNNscore>
0.2437493354

> <CNNaffinity>
6.7561264038

> <CNN_VS>
1.6468013525

> <CNNaffinity_variance>
0.3067094684

$$$$
[H]OC(=O)C([H])([H])[C@@]([H])(C(=O)N([H])[H])N([H])C(=O)[C@@]([H])(N([H])C(=O)[C@@]([H])(N([H])C(=O)[C@@]1([H])N(C(=O)[C@@]([H])(N([H])[H])C([H])([H])c2c([H])c([H])c(O[H])c([H])c2[H])C([H])([H])C([H])([H])C1([H])[H])C([H])([H])c1c([H])c([H])c(O[H])c([H])c1[H])[C@@]([H])(C([H])([H])[H])C([H])([H])C([H])([H])[H]


 58 60  0  0  0  0  0  0  0  0999 V2000
    4.4289    4.9734   17.8895 C   0  0  0  0  0  0  0  0  0  0  0  0
    5.3869    7.2922   17.9609 N   0  0  0  0  0  0  0  0  0  0  0  0
    5.0034    6.1217   18.6089 C   0  0  0  0  0  0  0  0  0  0  0  0
    5.1467    6.0287   19.8360 O   0  0  0  0  0  0  0  0  0  0  0  0
    5.2334    7.2942   16.8995 H   0  0  0  0  0  0  0  0  0  0  0  0
    5.9483    8.4865   18.4644 C   0  0  0  0  0  0  0  0  0  0  0  0
    7.0110    8.1888   19.4358 C   0  0  0  0  0  0  0  0  0  0  0  0
    8.1572    7.8649   19.0027 O   0  0  0  0  0  0  0  0  0  0  0  0
    6.8632    8.2304   20.8464 N   0  0  0  0  0  0  0  0  0  0  0  0
    5.9270    8.4951   21.2299 H   0  0  0  0  0  0  0  0  0  0  0  0
    7.9162    7.9331   21.7774 C   0  0  0  0  0  0  0  0  0  0  0  0
    7.5956    6.6789   22.5483 C   0  0  0  0  0  0  0  0  0  0  0  0
    6.2889    6.2549   22.8545 N   0  0  0  0  0  0  0  0  0  0  0  0
    8.5646    5.9691   22.9420 O   0  0  0  0  0  0  0  0  0  0  0  0
    6.1353    5.7014   23.7252 H   0  0  0  0  0  0  0  0  0  0  0  0
    5.4941    6.4951   22.2154 H   0  0  0  0  0  0  0  0  0  0  0  0
    8.0797    9.0094   22.8068 C   0  0  0  0  0  0  0  0  0  0  0  0
    6.8612    9.7554   23.1445 C   0  0  0  0  0  0  0  0  0  0  0  0
    5.5721    9.2759   23.1040 O   0  0  0  0  0  0  0  0  0  0  0  0
    7.0318   10.9619   23.5083 O   0  0  0  0  0  0  0  0  0  0  0  0
    4.8014    9.9302   22.9872 H   0  0  0  0  0  0  0  0  0  0  0  0
    5.0194    9.4845   19.0405 C   0  0  0  0  0  0  0  0  0  0  0  0
    5.2857   10.8417   18.4232 C   0  0  0  0  0  0  0  0  0  0  0  0
    2.9328   10.5663   18.5429 C   0  0  0  0  0  0  0  0  0  0  0  0
    3.5627    9.2268   18.9758 C   0  0  0  0  0  0  0  0  0  0  0  0
    4.1624    5.2476   16.4882 N   0  0  0  0  0  0  0  0  0  0  0  0
    2.8432    5.2961   15.9636 C   0  0  0  0  0  0  0  0  0  0  0  0
    1.8343    5.1137   16.6775 O   0  0  0  0  0  0  0  0  0  0  0  0
    4.9625    5.4088   15.8614 H   0  0  0  0  0  0  0  0  0  0  0  0
    2.6717    5.5715   14.5144 C   0  0  0  0  0  0  0  0  0  0  0  0
    1.6957    6.7038   14.3244 C   0  0  0  0  0  0  0  0  0  0  0  0
    0.5384    6.0385   13.5672 C   0  0  0  0  0  0  0  0  0  0  0  0
    1.2778    5.0115   12.7293 C   0  0  0  0  0  0  0  0  0  0  0  0
    2.1947    4.4848   13.7195 N   0  0  0  0  0  0  0  0  0  0  0  0
    2.6165    3.1159   13.8174 C   0  0  0  0  0  0  0  0  0  0  0  0
    3.5130    2.7538   14.6170 O   0  0  0  0  0  0  0  0  0  0  0  0
    2.0295    2.0529   12.9810 C   0  0  0  0  0  0  0  0  0  0  0  0
    0.6615    1.7504   13.5111 N   0  0  0  0  0  0  0  0  0  0  0  0
    0.4052    0.7709   13.2860 H   0  0  0  0  0  0  0  0  0  0  0  0
    0.6619    1.9198   14.5346 H   0  0  0  0  0  0  0  0  0  0  0  0
    1.8868    2.3426   11.5293 C   0  0  0  0  0  0  0  0  0  0  0  0
    3.0264    2.1297   10.6426 C   0  0  0  0  0  0  0  0  0  0  0  0
    3.2866    0.8556   10.1012 C   0  0  0  0  0  0  0  0  0  0  0  0
    4.3270    0.6047    9.2472 C   0  0  0  0  0  0  0  0  0  0  0  0
    5.1703    1.6202    8.8850 C   0  0  0  0  0  0  0  0  0  0  0  0
    6.2351    1.4117    8.0238 O   0  0  0  0  0  0  0  0  0  0  0  0
    4.9502    2.8998    9.3980 C   0  0  0  0  0  0  0  0  0  0  0  0
    3.8982    3.1167   10.2508 C   0  0  0  0  0  0  0  0  0  0  0  0
    6.8484    2.1948    7.7727 H   0  0  0  0  0  0  0  0  0  0  0  0
    5.3405    3.7588   17.9292 C   0  0  0  0  0  0  0  0  0  0  0  0
    4.6604    2.5982   18.5429 C   0  0  0  0  0  0  0  0  0  0  0  0
    4.7457    2.4233   19.9012 C   0  0  0  0  0  0  0  0  0  0  0  0
    4.1287    1.3553   20.5486 C   0  0  0  0  0  0  0  0  0  0  0  0
    3.4240    0.4755   19.7607 C   0  0  0  0  0  0  0  0  0  0  0  0
    2.7862   -0.6100   20.3490 O   0  0  0  0  0  0  0  0  0  0  0  0
    3.3355    0.6518   18.3734 C   0  0  0  0  0  0  0  0  0  0  0  0
    3.9593    1.7225   17.7625 C   0  0  0  0  0  0  0  0  0  0  0  0
    3.3021   -1.4743   20.4432 H   0  0  0  0  0  0  0  0  0  0  0  0
 24 25  1  0  0  0
 25 22  1  0  0  0
 22 23  1  0  0  0
 22  6  1  0  0  0
  6  2  1  0  0  0
  2  3  1  0  0  0
  3  4  2  0  0  0
  3  1  1  0  0  0
  1 50  1  0  0  0
 50 51  1  0  0  0
 51 52  2  0  0  0
 52 53  1  0  0  0
 53 54  2  0  0  0
 54 55  1  0  0  0
 54 56  1  0  0  0
 56 57  2  0  0  0
  1 26  1  0  0  0
 26 27  1  0  0  0
 27 28  2  0  0  0
 27 30  1  0  0  0
 30 31  1  0  0  0
 31 32  1  0  0  0
 32 33  1  0  0  0
 33 34  1  0  0  0
 34 35  1  0  0  0
 35 36  2  0  0  0
 35 37  1  0  0  0
 37 38  1  0  0  0
 37 41  1  0  0  0
 41 42  1  0  0  0
 42 43  2  0  0  0
 43 44  1  0  0  0
 44 45  2  0  0  0
 45 46  1  0  0  0
 45 47  1  0  0  0
 47 48  2  0  0  0
  6  7  1  0  0  0
  7  8  2  0  0  0
  7  9  1  0  0  0
  9 11  1  0  0  0
 11 17  1  0  0  0
 17 18  1  0  0  0
 18 19  1  0  0  0
 18 20  2  0  0  0
 11 12  1  0  0  0
 12 13  1  0  0  0
 12 14  2  0  0  0
 57 51  1  0  0  0
 34 30  1  0  0  0
 48 42  1  0  0  0
  2  5  1  0  0  0
 55 58  1  0  0  0
 26 29  1  0  0  0
 38 39  1  0  0  0
 38 40  1  0  0  0
 46 49  1  0  0  0
  9 10  1  0  0  0
 19 21  1  0  0  0
 13 15  1  0  0  0
 13 16  1  0  0  0
M  END
> <minimizedAffinity>
-8.95863

> <CNNscore>
0.2169678360

> <CNNaffinity>
6.7904076576

> <CNN_VS>
1.4733000994

> <CNNaffinity_variance>
0.4477288723

$$$$
[H]OC(=O)C([H])([H])[C@@]([H])(C(=O)N([H])[H])N([H])C(=O)[C@@]([H])(N([H])C(=O)[C@@]([H])(N([H])C(=O)[C@@]1([H])N(C(=O)[C@@]([H])(N([H])[H])C([H])([H])c2c([H])c([H])c(O[H])c([H])c2[H])C([H])([H])C([H])([H])C1([H])[H])C([H])([H])c1c([H])c([H])c(O[H])c([H])c1[H])[C@@]([H])(C([H])([H])[H])C([H])([H])C([H])([H])[H]


 58 60  0  0  0  0  0  0  0  0999 V2000
    4.2039    4.5256   16.1775 C   0  0  0  0  0  0  0  0  0  0  0  0
    5.4412    6.6757   16.5595 N   0  0  0  0  0  0  0  0  0  0  0  0
    4.4956    5.7368   16.9612 C   0  0  0  0  0  0  0  0  0  0  0  0
    3.8702    5.9136   18.0160 O   0  0  0  0  0  0  0  0  0  0  0  0
    5.9411    6.4503   15.6378 H   0  0  0  0  0  0  0  0  0  0  0  0
    5.8592    7.8830   17.1617 C   0  0  0  0  0  0  0  0  0  0  0  0
    6.2578    7.6534   18.5581 C   0  0  0  0  0  0  0  0  0  0  0  0
    7.3648    7.0806   18.7880 O   0  0  0  0  0  0  0  0  0  0  0  0
    5.4950    8.0218   19.6964 N   0  0  0  0  0  0  0  0  0  0  0  0
    4.5773    8.4962   19.5343 H   0  0  0  0  0  0  0  0  0  0  0  0
    5.9039    7.7851   21.0532 C   0  0  0  0  0  0  0  0  0  0  0  0
    5.3175    6.4928   21.5594 C   0  0  0  0  0  0  0  0  0  0  0  0
    3.9759    6.3386   21.9560 N   0  0  0  0  0  0  0  0  0  0  0  0
    6.0835    5.4898   21.6306 O   0  0  0  0  0  0  0  0  0  0  0  0
    3.7512    5.6341   22.6917 H   0  0  0  0  0  0  0  0  0  0  0  0
    3.2262    6.9235   21.5159 H   0  0  0  0  0  0  0  0  0  0  0  0
    5.4066    8.8472   21.9856 C   0  0  0  0  0  0  0  0  0  0  0  0
    6.4038    9.3958   22.9128 C   0  0  0  0  0  0  0  0  0  0  0  0
    7.1750    8.6807   23.8001 O   0  0  0  0  0  0  0  0  0  0  0  0
    6.5576   10.6577   22.8797 O   0  0  0  0  0  0  0  0  0  0  0  0
    7.5408    9.1455   24.6283 H   0  0  0  0  0  0  0  0  0  0  0  0
    4.9292    9.0327   17.0974 C   0  0  0  0  0  0  0  0  0  0  0  0
    5.7199   10.3238   17.0580 C   0  0  0  0  0  0  0  0  0  0  0  0
    4.2853   10.3155   15.1708 C   0  0  0  0  0  0  0  0  0  0  0  0
    3.9205    9.0769   16.0143 C   0  0  0  0  0  0  0  0  0  0  0  0
    4.4343    4.6929   14.7532 N   0  0  0  0  0  0  0  0  0  0  0  0
    3.6840    5.6077   13.9670 C   0  0  0  0  0  0  0  0  0  0  0  0
    2.7873    6.3277   14.4553 O   0  0  0  0  0  0  0  0  0  0  0  0
    5.1664    4.1239   14.3068 H   0  0  0  0  0  0  0  0  0  0  0  0
    3.9841    5.6994   12.5155 C   0  0  0  0  0  0  0  0  0  0  0  0
    4.3534    7.1168   12.1616 C   0  0  0  0  0  0  0  0  0  0  0  0
    3.2394    7.5317   11.1910 C   0  0  0  0  0  0  0  0  0  0  0  0
    2.9438    6.2170   10.4925 C   0  0  0  0  0  0  0  0  0  0  0  0
    2.9298    5.3199   11.6297 N   0  0  0  0  0  0  0  0  0  0  0  0
    2.0598    4.1884   11.7857 C   0  0  0  0  0  0  0  0  0  0  0  0
    2.1899    3.3775   12.7343 O   0  0  0  0  0  0  0  0  0  0  0  0
    0.9658    3.9041   10.8387 C   0  0  0  0  0  0  0  0  0  0  0  0
    0.1317    2.8010   11.4141 N   0  0  0  0  0  0  0  0  0  0  0  0
   -0.3314    2.2743   10.6500 H   0  0  0  0  0  0  0  0  0  0  0  0
    0.7460    2.1883   11.9829 H   0  0  0  0  0  0  0  0  0  0  0  0
    0.0486    5.0291   10.5151 C   0  0  0  0  0  0  0  0  0  0  0  0
   -0.7487    5.6301   11.5795 C   0  0  0  0  0  0  0  0  0  0  0  0
   -2.1559    5.6183   11.5165 C   0  0  0  0  0  0  0  0  0  0  0  0
   -2.9524    6.1468   12.4968 C   0  0  0  0  0  0  0  0  0  0  0  0
   -2.3825    6.7203   13.6013 C   0  0  0  0  0  0  0  0  0  0  0  0
   -3.1496    7.2668   14.6170 O   0  0  0  0  0  0  0  0  0  0  0  0
   -0.9908    6.7545   13.7056 C   0  0  0  0  0  0  0  0  0  0  0  0
   -0.2224    6.2153   12.7056 C   0  0  0  0  0  0  0  0  0  0  0  0
   -2.6907    7.6893   15.4315 H   0  0  0  0  0  0  0  0  0  0  0  0
    5.0476    3.3416   16.6184 C   0  0  0  0  0  0  0  0  0  0  0  0
    4.2007    2.2341   17.1109 C   0  0  0  0  0  0  0  0  0  0  0  0
    4.3011    1.8590   18.4270 C   0  0  0  0  0  0  0  0  0  0  0  0
    3.5334    0.8268   18.9614 C   0  0  0  0  0  0  0  0  0  0  0  0
    2.6626    0.1939   18.1055 C   0  0  0  0  0  0  0  0  0  0  0  0
    1.8694   -0.8437   18.5804 O   0  0  0  0  0  0  0  0  0  0  0  0
    2.5584    0.5749   16.7610 C   0  0  0  0  0  0  0  0  0  0  0  0
    3.3345    1.6035   16.2627 C   0  0  0  0  0  0  0  0  0  0  0  0
    2.2334   -1.7855   18.5297 H   0  0  0  0  0  0  0  0  0  0  0  0
 24 25  1  0  0  0
 25 22  1  0  0  0
 22 23  1  0  0  0
 22  6  1  0  0  0
  6  2  1  0  0  0
  2  3  1  0  0  0
  3  4  2  0  0  0
  3  1  1  0  0  0
  1 50  1  0  0  0
 50 51  1  0  0  0
 51 52  2  0  0  0
 52 53  1  0  0  0
 53 54  2  0  0  0
 54 55  1  0  0  0
 54 56  1  0  0  0
 56 57  2  0  0  0
  1 26  1  0  0  0
 26 27  1  0  0  0
 27 28  2  0  0  0
 27 30  1  0  0  0
 30 31  1  0  0  0
 31 32  1  0  0  0
 32 33  1  0  0  0
 33 34  1  0  0  0
 34 35  1  0  0  0
 35 36  2  0  0  0
 35 37  1  0  0  0
 37 38  1  0  0  0
 37 41  1  0  0  0
 41 42  1  0  0  0
 42 43  2  0  0  0
 43 44  1  0  0  0
 44 45  2  0  0  0
 45 46  1  0  0  0
 45 47  1  0  0  0
 47 48  2  0  0  0
  6  7  1  0  0  0
  7  8  2  0  0  0
  7  9  1  0  0  0
  9 11  1  0  0  0
 11 17  1  0  0  0
 17 18  1  0  0  0
 18 19  1  0  0  0
 18 20  2  0  0  0
 11 12  1  0  0  0
 12 13  1  0  0  0
 12 14  2  0  0  0
 57 51  1  0  0  0
 34 30  1  0  0  0
 48 42  1  0  0  0
  2  5  1  0  0  0
 55 58  1  0  0  0
 26 29  1  0  0  0
 38 39  1  0  0  0
 38 40  1  0  0  0
 46 49  1  0  0  0
  9 10  1  0  0  0
 19 21  1  0  0  0
 13 15  1  0  0  0
 13 16  1  0  0  0
M  END
> <minimizedAffinity>
-9.09479

> <CNNscore>
0.2158889472

> <CNNaffinity>
6.6485433578

> <CNN_VS>
1.4353470802

> <CNNaffinity_variance>
0.4551925063

$$$$
[H]N=C(N([H])[H])N([H])C([H])([H])C([H])([H])C([H])([H])[C@@]1([H])C(=O)N([H])[C@@]([H])(C([H])([H])c2c([H])c([H])c(O[H])c([H])c2[H])C(=O)N2C([H])([H])C([H])([H])C([H])([H])[C@@]2([H])C(=O)N2C([H])([H])C([H])([H])C([H])([H])[C@@]2([H])C(=O)N1[H]


 44 47  0  0  0  0  0  0  0  0999 V2000
    3.5175    5.3685    9.1831 C   0  0  0  0  0  0  0  0  0  0  0  0
    3.0016    6.6098    8.6148 N   0  0  0  0  0  0  0  0  0  0  0  0
    3.0000    7.1090    7.3217 C   0  0  0  0  0  0  0  0  0  0  0  0
    3.7530    8.1105    6.9834 O   0  0  0  0  0  0  0  0  0  0  0  0
    2.1707    6.6112    6.1604 C   0  0  0  0  0  0  0  0  0  0  0  0
    3.0325    6.6925    4.9186 C   0  0  0  0  0  0  0  0  0  0  0  0
    2.8844    8.1010    4.4824 C   0  0  0  0  0  0  0  0  0  0  0  0
    1.7780    8.7322    5.2312 C   0  0  0  0  0  0  0  0  0  0  0  0
    1.1470    7.6476    6.0102 N   0  0  0  0  0  0  0  0  0  0  0  0
   -0.1326    7.5023    6.5804 C   0  0  0  0  0  0  0  0  0  0  0  0
   -0.5223    8.5295    7.2700 O   0  0  0  0  0  0  0  0  0  0  0  0
   -1.0572    6.4258    6.5186 C   0  0  0  0  0  0  0  0  0  0  0  0
   -2.5179    6.8966    6.7853 C   0  0  0  0  0  0  0  0  0  0  0  0
   -3.2692    5.6107    7.0627 C   0  0  0  0  0  0  0  0  0  0  0  0
   -2.2215    4.5975    6.6707 C   0  0  0  0  0  0  0  0  0  0  0  0
   -1.0290    5.2590    7.3357 N   0  0  0  0  0  0  0  0  0  0  0  0
   -0.2517    4.7773    8.3621 C   0  0  0  0  0  0  0  0  0  0  0  0
    0.4640    3.7249    8.0366 O   0  0  0  0  0  0  0  0  0  0  0  0
    0.0057    5.1205    9.7673 C   0  0  0  0  0  0  0  0  0  0  0  0
    1.2671    4.6440   10.2819 N   0  0  0  0  0  0  0  0  0  0  0  0
    2.5009    4.4334    9.6510 C   0  0  0  0  0  0  0  0  0  0  0  0
    2.8786    3.1928    9.4017 O   0  0  0  0  0  0  0  0  0  0  0  0
    2.5667    7.2400    9.3720 H   0  0  0  0  0  0  0  0  0  0  0  0
    1.2415    4.3909   11.3302 H   0  0  0  0  0  0  0  0  0  0  0  0
    4.4122    5.8360   10.2964 C   0  0  0  0  0  0  0  0  0  0  0  0
    4.7557    7.2284   10.5133 C   0  0  0  0  0  0  0  0  0  0  0  0
    6.0036    7.7808    9.9369 C   0  0  0  0  0  0  0  0  0  0  0  0
    6.8099    8.4441   10.9664 N   0  0  0  0  0  0  0  0  0  0  0  0
    6.6256    9.4476   11.1490 H   0  0  0  0  0  0  0  0  0  0  0  0
    8.2405    6.4773   11.2675 N   0  0  0  0  0  0  0  0  0  0  0  0
    7.8056    7.7573   11.6914 C   0  0  0  0  0  0  0  0  0  0  0  0
    8.3330    8.2774   12.7423 N   0  0  0  0  0  0  0  0  0  0  0  0
    9.2478    6.2059   11.3604 H   0  0  0  0  0  0  0  0  0  0  0  0
    7.5556    5.8013   10.8613 H   0  0  0  0  0  0  0  0  0  0  0  0
    9.0603    7.7879   13.2807 H   0  0  0  0  0  0  0  0  0  0  0  0
   -0.4106    6.4677   10.2400 C   0  0  0  0  0  0  0  0  0  0  0  0
    0.2360    6.8924   11.5008 C   0  0  0  0  0  0  0  0  0  0  0  0
    1.2497    7.8615   11.4427 C   0  0  0  0  0  0  0  0  0  0  0  0
    1.9089    8.3025   12.5594 C   0  0  0  0  0  0  0  0  0  0  0  0
    1.5785    7.7847   13.8079 C   0  0  0  0  0  0  0  0  0  0  0  0
    2.2763    8.2669   14.8996 O   0  0  0  0  0  0  0  0  0  0  0  0
    0.5995    6.8436   13.8948 C   0  0  0  0  0  0  0  0  0  0  0  0
   -0.0463    6.4203   12.7488 C   0  0  0  0  0  0  0  0  0  0  0  0
    3.1279    7.7932   15.1750 H   0  0  0  0  0  0  0  0  0  0  0  0
 30 31  1  0  0  0
 31 32  2  0  0  0
 31 28  1  0  0  0
 28 27  1  0  0  0
 27 26  1  0  0  0
 26 25  1  0  0  0
 25  1  1  0  0  0
  1  2  1  0  0  0
  2  3  1  0  0  0
  3  4  2  0  0  0
  3  5  1  0  0  0
  5  6  1  0  0  0
  6  7  1  0  0  0
  7  8  1  0  0  0
  8  9  1  0  0  0
  9 10  1  0  0  0
 10 11  2  0  0  0
 10 12  1  0  0  0
 12 13  1  0  0  0
 13 14  1  0  0  0
 14 15  1  0  0  0
 15 16  1  0  0  0
 16 17  1  0  0  0
 17 18  2  0  0  0
 17 19  1  0  0  0
 19 36  1  0  0  0
 36 37  1  0  0  0
 37 38  2  0  0  0
 38 39  1  0  0  0
 39 40  2  0  0  0
 40 41  1  0  0  0
 40 42  1  0  0  0
 42 43  2  0  0  0
 19 20  1  0  0  0
 20 21  1  0  0  0
 21 22  2  0  0  0
 21  1  1  0  0  0
  9  5  1  0  0  0
 16 12  1  0  0  0
 43 37  1  0  0  0
 30 33  1  0  0  0
 30 34  1  0  0  0
 32 35  1  0  0  0
 28 29  1  0  0  0
  2 23  1  0  0  0
 41 44  1  0  0  0
 20 24  1  0  0  0
M  END
> <minimizedAffinity>
-5.88600

> <CNNscore>
0.4610145688

> <CNNaffinity>
5.4470605850

> <CNN_VS>
2.5111742020

> <CNNaffinity_variance>
0.4513691962

$$$$
[H]N=C(N([H])[H])N([H])C([H])([H])C([H])([H])C([H])([H])[C@@]1([H])C(=O)N([H])[C@@]([H])(C([H])([H])c2c([H])c([H])c(O[H])c([H])c2[H])C(=O)N2C([H])([H])C([H])([H])C([H])([H])[C@@]2([H])C(=O)N2C([H])([H])C([H])([H])C([H])([H])[C@@]2([H])C(=O)N1[H]


 44 47  0  0  0  0  0  0  0  0999 V2000
    1.9113    6.7102   13.4802 C   0  0  0  0  0  0  0  0  0  0  0  0
    1.4562    5.5853   12.6694 N   0  0  0  0  0  0  0  0  0  0  0  0
    0.2007    5.2204   12.2087 C   0  0  0  0  0  0  0  0  0  0  0  0
   -0.4247    4.1924   12.6950 O   0  0  0  0  0  0  0  0  0  0  0  0
   -0.6009    5.9069   11.1269 C   0  0  0  0  0  0  0  0  0  0  0  0
   -2.0548    5.8709   11.5467 C   0  0  0  0  0  0  0  0  0  0  0  0
   -2.5132    4.5331   11.1038 C   0  0  0  0  0  0  0  0  0  0  0  0
   -1.4947    3.9352   10.2158 C   0  0  0  0  0  0  0  0  0  0  0  0
   -0.4858    4.9901    9.9908 N   0  0  0  0  0  0  0  0  0  0  0  0
    0.4701    5.1954    8.9770 C   0  0  0  0  0  0  0  0  0  0  0  0
    1.1786    4.1448    8.6996 O   0  0  0  0  0  0  0  0  0  0  0  0
    0.7768    6.3537    8.2142 C   0  0  0  0  0  0  0  0  0  0  0  0
    1.4626    5.9960    6.8621 C   0  0  0  0  0  0  0  0  0  0  0  0
    2.0487    7.3116    6.3926 C   0  0  0  0  0  0  0  0  0  0  0  0
    1.4115    8.2575    7.3811 C   0  0  0  0  0  0  0  0  0  0  0  0
    1.6175    7.4251    8.6327 N   0  0  0  0  0  0  0  0  0  0  0  0
    2.3727    7.7274    9.7408 C   0  0  0  0  0  0  0  0  0  0  0  0
    1.9066    8.7362   10.4414 O   0  0  0  0  0  0  0  0  0  0  0  0
    3.5972    7.2227   10.3768 C   0  0  0  0  0  0  0  0  0  0  0  0
    3.7141    7.5263   11.7829 N   0  0  0  0  0  0  0  0  0  0  0  0
    2.7389    7.6838   12.7774 C   0  0  0  0  0  0  0  0  0  0  0  0
    2.4647    8.9028   13.2050 O   0  0  0  0  0  0  0  0  0  0  0  0
    2.2691    4.9254   12.4178 H   0  0  0  0  0  0  0  0  0  0  0  0
    4.7305    7.6743   12.1130 H   0  0  0  0  0  0  0  0  0  0  0  0
    2.6489    6.0526   14.6125 C   0  0  0  0  0  0  0  0  0  0  0  0
    2.0333    5.1071   15.5239 C   0  0  0  0  0  0  0  0  0  0  0  0
    2.4891    5.0324   16.9316 C   0  0  0  0  0  0  0  0  0  0  0  0
    3.1320    6.2842   17.3434 N   0  0  0  0  0  0  0  0  0  0  0  0
    3.0442    7.1006   16.7108 H   0  0  0  0  0  0  0  0  0  0  0  0
    5.0738    5.6989   18.7190 N   0  0  0  0  0  0  0  0  0  0  0  0
    3.8492    6.3916   18.5529 C   0  0  0  0  0  0  0  0  0  0  0  0
    3.4074    7.1155   19.5193 N   0  0  0  0  0  0  0  0  0  0  0  0
    5.8598    6.1396   19.2529 H   0  0  0  0  0  0  0  0  0  0  0  0
    5.1945    4.7461   18.3087 H   0  0  0  0  0  0  0  0  0  0  0  0
    3.9201    7.2031   20.4069 H   0  0  0  0  0  0  0  0  0  0  0  0
    4.0879    5.8793    9.9692 C   0  0  0  0  0  0  0  0  0  0  0  0
    4.7563    5.8546    8.6499 C   0  0  0  0  0  0  0  0  0  0  0  0
    4.6802    4.6835    7.8800 C   0  0  0  0  0  0  0  0  0  0  0  0
    5.2798    4.5704    6.6537 C   0  0  0  0  0  0  0  0  0  0  0  0
    5.9964    5.6431    6.1321 C   0  0  0  0  0  0  0  0  0  0  0  0
    6.5799    5.4724    4.8905 O   0  0  0  0  0  0  0  0  0  0  0  0
    6.0872    6.7915    6.8564 C   0  0  0  0  0  0  0  0  0  0  0  0
    5.4704    6.8729    8.0903 C   0  0  0  0  0  0  0  0  0  0  0  0
    7.5237    5.1080    4.8474 H   0  0  0  0  0  0  0  0  0  0  0  0
 30 31  1  0  0  0
 31 32  2  0  0  0
 31 28  1  0  0  0
 28 27  1  0  0  0
 27 26  1  0  0  0
 26 25  1  0  0  0
 25  1  1  0  0  0
  1  2  1  0  0  0
  2  3  1  0  0  0
  3  4  2  0  0  0
  3  5  1  0  0  0
  5  6  1  0  0  0
  6  7  1  0  0  0
  7  8  1  0  0  0
  8  9  1  0  0  0
  9 10  1  0  0  0
 10 11  2  0  0  0
 10 12  1  0  0  0
 12 13  1  0  0  0
 13 14  1  0  0  0
 14 15  1  0  0  0
 15 16  1  0  0  0
 16 17  1  0  0  0
 17 18  2  0  0  0
 17 19  1  0  0  0
 19 36  1  0  0  0
 36 37  1  0  0  0
 37 38  2  0  0  0
 38 39  1  0  0  0
 39 40  2  0  0  0
 40 41  1  0  0  0
 40 42  1  0  0  0
 42 43  2  0  0  0
 19 20  1  0  0  0
 20 21  1  0  0  0
 21 22  2  0  0  0
 21  1  1  0  0  0
  9  5  1  0  0  0
 16 12  1  0  0  0
 43 37  1  0  0  0
 30 33  1  0  0  0
 30 34  1  0  0  0
 32 35  1  0  0  0
 28 29  1  0  0  0
  2 23  1  0  0  0
 41 44  1  0  0  0
 20 24  1  0  0  0
M  END
> <minimizedAffinity>
-5.92750

> <CNNscore>
0.4451941848

> <CNNaffinity>
5.8925943375

> <CNN_VS>
2.6233487129

> <CNNaffinity_variance>
0.4862526059

$$$$
[H]N=C(N([H])[H])N([H])C([H])([H])C([H])([H])C([H])([H])[C@@]1([H])C(=O)N([H])[C@@]([H])(C([H])([H])c2c([H])c([H])c(O[H])c([H])c2[H])C(=O)N2C([H])([H])C([H])([H])C([H])([H])[C@@]2([H])C(=O)N2C([H])([H])C([H])([H])C([H])([H])[C@@]2([H])C(=O)N1[H]


 44 47  0  0  0  0  0  0  0  0999 V2000
    1.8632    6.2102   14.7242 C   0  0  0  0  0  0  0  0  0  0  0  0
    1.2533    5.2558   13.8038 N   0  0  0  0  0  0  0  0  0  0  0  0
    0.1323    5.3345   12.9923 C   0  0  0  0  0  0  0  0  0  0  0  0
   -0.9461    4.6653   13.2634 O   0  0  0  0  0  0  0  0  0  0  0  0
   -0.0160    6.1536   11.7308 C   0  0  0  0  0  0  0  0  0  0  0  0
   -1.4276    6.6996   11.7068 C   0  0  0  0  0  0  0  0  0  0  0  0
   -2.2225    5.5873   11.1349 C   0  0  0  0  0  0  0  0  0  0  0  0
   -1.3093    4.5684   10.5771 C   0  0  0  0  0  0  0  0  0  0  0  0
    0.0462    5.1478   10.6682 N   0  0  0  0  0  0  0  0  0  0  0  0
    1.2460    4.8812    9.9804 C   0  0  0  0  0  0  0  0  0  0  0  0
    1.5452    3.6209    9.9109 O   0  0  0  0  0  0  0  0  0  0  0  0
    2.1688    5.7602    9.3530 C   0  0  0  0  0  0  0  0  0  0  0  0
    3.0075    5.0383    8.2567 C   0  0  0  0  0  0  0  0  0  0  0  0
    4.1567    5.9895    7.9932 C   0  0  0  0  0  0  0  0  0  0  0  0
    3.6855    7.1996    8.7624 C   0  0  0  0  0  0  0  0  0  0  0  0
    3.2058    6.4827   10.0105 N   0  0  0  0  0  0  0  0  0  0  0  0
    3.6841    6.5969   11.2942 C   0  0  0  0  0  0  0  0  0  0  0  0
    3.4669    7.7725   11.8386 O   0  0  0  0  0  0  0  0  0  0  0  0
    4.3972    5.7442   12.2549 C   0  0  0  0  0  0  0  0  0  0  0  0
    4.2312    6.1255   13.6369 N   0  0  0  0  0  0  0  0  0  0  0  0
    3.1585    6.7325   14.3045 C   0  0  0  0  0  0  0  0  0  0  0  0
    3.2658    8.0035   14.6463 O   0  0  0  0  0  0  0  0  0  0  0  0
    1.7871    4.3205   13.7936 H   0  0  0  0  0  0  0  0  0  0  0  0
    5.0941    5.9212   14.2512 H   0  0  0  0  0  0  0  0  0  0  0  0
    1.9521    5.4465   16.0155 C   0  0  0  0  0  0  0  0  0  0  0  0
    2.9292    5.7350   17.0479 C   0  0  0  0  0  0  0  0  0  0  0  0
    2.8291    5.0697   18.3678 C   0  0  0  0  0  0  0  0  0  0  0  0
    3.0478    6.0265   19.4571 N   0  0  0  0  0  0  0  0  0  0  0  0
    2.3900    6.8236   19.5361 H   0  0  0  0  0  0  0  0  0  0  0  0
    5.2308    5.0810   20.0452 N   0  0  0  0  0  0  0  0  0  0  0  0
    4.1104    5.8838   20.3731 C   0  0  0  0  0  0  0  0  0  0  0  0
    4.0815    6.4760   21.5140 N   0  0  0  0  0  0  0  0  0  0  0  0
    6.1914    5.3687   20.3477 H   0  0  0  0  0  0  0  0  0  0  0  0
    5.0999    4.1994   19.5006 H   0  0  0  0  0  0  0  0  0  0  0  0
    4.8496    6.3809   22.1918 H   0  0  0  0  0  0  0  0  0  0  0  0
    4.4279    4.2803   11.9941 C   0  0  0  0  0  0  0  0  0  0  0  0
    3.7361    3.4691   13.0193 C   0  0  0  0  0  0  0  0  0  0  0  0
    4.2658    3.4344   14.3186 C   0  0  0  0  0  0  0  0  0  0  0  0
    3.6962    2.6999   15.3246 C   0  0  0  0  0  0  0  0  0  0  0  0
    2.5500    1.9525   15.0723 C   0  0  0  0  0  0  0  0  0  0  0  0
    2.0186    1.2311   16.1250 O   0  0  0  0  0  0  0  0  0  0  0  0
    2.0140    1.9669   13.8216 C   0  0  0  0  0  0  0  0  0  0  0  0
    2.6133    2.7187   12.8290 C   0  0  0  0  0  0  0  0  0  0  0  0
    2.3380    0.2808   16.2682 H   0  0  0  0  0  0  0  0  0  0  0  0
 30 31  1  0  0  0
 31 32  2  0  0  0
 31 28  1  0  0  0
 28 27  1  0  0  0
 27 26  1  0  0  0
 26 25  1  0  0  0
 25  1  1  0  0  0
  1  2  1  0  0  0
  2  3  1  0  0  0
  3  4  2  0  0  0
  3  5  1  0  0  0
  5  6  1  0  0  0
  6  7  1  0  0  0
  7  8  1  0  0  0
  8  9  1  0  0  0
  9 10  1  0  0  0
 10 11  2  0  0  0
 10 12  1  0  0  0
 12 13  1  0  0  0
 13 14  1  0  0  0
 14 15  1  0  0  0
 15 16  1  0  0  0
 16 17  1  0  0  0
 17 18  2  0  0  0
 17 19  1  0  0  0
 19 36  1  0  0  0
 36 37  1  0  0  0
 37 38  2  0  0  0
 38 39  1  0  0  0
 39 40  2  0  0  0
 40 41  1  0  0  0
 40 42  1  0  0  0
 42 43  2  0  0  0
 19 20  1  0  0  0
 20 21  1  0  0  0
 21 22  2  0  0  0
 21  1  1  0  0  0
  9  5  1  0  0  0
 16 12  1  0  0  0
 43 37  1  0  0  0
 30 33  1  0  0  0
 30 34  1  0  0  0
 32 35  1  0  0  0
 28 29  1  0  0  0
  2 23  1  0  0  0
 41 44  1  0  0  0
 20 24  1  0  0  0
M  END
> <minimizedAffinity>
-6.88774

> <CNNscore>
0.4053308070

> <CNNaffinity>
5.8855819702

> <CNN_VS>
2.3856077194

> <CNNaffinity_variance>
0.1331846267

$$$$
[H]N=C(N([H])[H])N([H])C([H])([H])C([H])([H])C([H])([H])[C@@]1([H])C(=O)N([H])[C@@]([H])(C([H])([H])c2c([H])c([H])c(O[H])c([H])c2[H])C(=O)N2C([H])([H])C([H])([H])C([H])([H])[C@@]2([H])C(=O)N2C([H])([H])C([H])([H])C([H])([H])[C@@]2([H])C(=O)N1[H]


 44 47  0  0  0  0  0  0  0  0999 V2000
    2.8253    6.2797   15.8082 C   0  0  0  0  0  0  0  0  0  0  0  0
    1.6104    5.6660   15.2813 N   0  0  0  0  0  0  0  0  0  0  0  0
    0.6785    6.1004   14.3516 C   0  0  0  0  0  0  0  0  0  0  0  0
   -0.5176    6.4552   14.7093 O   0  0  0  0  0  0  0  0  0  0  0  0
    0.8785    6.2211   12.8584 C   0  0  0  0  0  0  0  0  0  0  0  0
    0.1495    7.4666   12.4016 C   0  0  0  0  0  0  0  0  0  0  0  0
   -1.2486    7.0082   12.2254 C   0  0  0  0  0  0  0  0  0  0  0  0
   -1.2908    5.5321   12.2787 C   0  0  0  0  0  0  0  0  0  0  0  0
    0.1174    5.0893   12.3252 N   0  0  0  0  0  0  0  0  0  0  0  0
    0.7465    3.8731   11.9954 C   0  0  0  0  0  0  0  0  0  0  0  0
    0.1658    2.8264   12.4953 O   0  0  0  0  0  0  0  0  0  0  0  0
    1.8992    3.6103   11.2079 C   0  0  0  0  0  0  0  0  0  0  0  0
    1.9006    2.1584   10.6438 C   0  0  0  0  0  0  0  0  0  0  0  0
    3.3296    1.9471   10.1878 C   0  0  0  0  0  0  0  0  0  0  0  0
    3.8620    3.3539   10.3120 C   0  0  0  0  0  0  0  0  0  0  0  0
    3.2485    3.6936   11.6574 N   0  0  0  0  0  0  0  0  0  0  0  0
    3.8919    3.9858   12.8365 C   0  0  0  0  0  0  0  0  0  0  0  0
    4.5585    5.1175   12.8108 O   0  0  0  0  0  0  0  0  0  0  0  0
    4.0499    3.3623   14.1575 C   0  0  0  0  0  0  0  0  0  0  0  0
    4.3897    4.2792   15.2190 N   0  0  0  0  0  0  0  0  0  0  0  0
    4.0687    5.6302   15.4097 C   0  0  0  0  0  0  0  0  0  0  0  0
    5.0086    6.5364   15.2110 O   0  0  0  0  0  0  0  0  0  0  0  0
    1.4225    4.7082   15.7362 H   0  0  0  0  0  0  0  0  0  0  0  0
    5.0146    3.8462   15.9844 H   0  0  0  0  0  0  0  0  0  0  0  0
    2.6202    6.2452   17.2966 C   0  0  0  0  0  0  0  0  0  0  0  0
    3.4555    5.4770   18.1999 C   0  0  0  0  0  0  0  0  0  0  0  0
    3.5419    5.8555   19.6296 C   0  0  0  0  0  0  0  0  0  0  0  0
    3.7026    7.3050   19.7813 N   0  0  0  0  0  0  0  0  0  0  0  0
    2.9929    7.9164   19.3379 H   0  0  0  0  0  0  0  0  0  0  0  0
    6.0535    7.9878   19.8942 N   0  0  0  0  0  0  0  0  0  0  0  0
    4.7788    7.8649   20.5003 C   0  0  0  0  0  0  0  0  0  0  0  0
    4.6231    8.2713   21.7102 N   0  0  0  0  0  0  0  0  0  0  0  0
    6.6533    8.8228   20.0941 H   0  0  0  0  0  0  0  0  0  0  0  0
    6.3974    7.2442   19.2463 H   0  0  0  0  0  0  0  0  0  0  0  0
    5.3991    8.6818   22.2464 H   0  0  0  0  0  0  0  0  0  0  0  0
    3.1060    2.2747   14.5288 C   0  0  0  0  0  0  0  0  0  0  0  0
    3.2659    1.7825   15.9145 C   0  0  0  0  0  0  0  0  0  0  0  0
    4.2752    2.3416   16.7138 C   0  0  0  0  0  0  0  0  0  0  0  0
    4.5003    1.9364   18.0026 C   0  0  0  0  0  0  0  0  0  0  0  0
    3.7120    0.9349   18.5610 C   0  0  0  0  0  0  0  0  0  0  0  0
    3.9841    0.5666   19.8654 O   0  0  0  0  0  0  0  0  0  0  0  0
    2.7258    0.3743   17.8095 C   0  0  0  0  0  0  0  0  0  0  0  0
    2.5247    0.8062   16.5123 C   0  0  0  0  0  0  0  0  0  0  0  0
    4.6525   -0.1768   20.0270 H   0  0  0  0  0  0  0  0  0  0  0  0
 30 31  1  0  0  0
 31 32  2  0  0  0
 31 28  1  0  0  0
 28 27  1  0  0  0
 27 26  1  0  0  0
 26 25  1  0  0  0
 25  1  1  0  0  0
  1  2  1  0  0  0
  2  3  1  0  0  0
  3  4  2  0  0  0
  3  5  1  0  0  0
  5  6  1  0  0  0
  6  7  1  0  0  0
  7  8  1  0  0  0
  8  9  1  0  0  0
  9 10  1  0  0  0
 10 11  2  0  0  0
 10 12  1  0  0  0
 12 13  1  0  0  0
 13 14  1  0  0  0
 14 15  1  0  0  0
 15 16  1  0  0  0
 16 17  1  0  0  0
 17 18  2  0  0  0
 17 19  1  0  0  0
 19 36  1  0  0  0
 36 37  1  0  0  0
 37 38  2  0  0  0
 38 39  1  0  0  0
 39 40  2  0  0  0
 40 41  1  0  0  0
 40 42  1  0  0  0
 42 43  2  0  0  0
 19 20  1  0  0  0
 20 21  1  0  0  0
 21 22  2  0  0  0
 21  1  1  0  0  0
  9  5  1  0  0  0
 16 12  1  0  0  0
 43 37  1  0  0  0
 30 33  1  0  0  0
 30 34  1  0  0  0
 32 35  1  0  0  0
 28 29  1  0  0  0
  2 23  1  0  0  0
 41 44  1  0  0  0
 20 24  1  0  0  0
M  END
> <minimizedAffinity>
-7.64529

> <CNNscore>
0.3775962591

> <CNNaffinity>
6.1389927864

> <CNN_VS>
2.3180606365

> <CNNaffinity_variance>
0.0640928298

$$$$
[H]N=C(N([H])[H])N([H])C([H])([H])C([H])([H])C([H])([H])[C@@]1([H])C(=O)N([H])[C@@]([H])(C([H])([H])c2c([H])c([H])c(O[H])c([H])c2[H])C(=O)N2C([H])([H])C([H])([H])C([H])([H])[C@@]2([H])C(=O)N2C([H])([H])C([H])([H])C([H])([H])[C@@]2([H])C(=O)N1[H]


 44 47  0  0  0  0  0  0  0  0999 V2000
    5.7935    7.6712   17.8972 C   0  0  0  0  0  0  0  0  0  0  0  0
    6.7822    7.1567   18.8395 N   0  0  0  0  0  0  0  0  0  0  0  0
    7.2831    7.6629   20.0287 C   0  0  0  0  0  0  0  0  0  0  0  0
    8.4970    8.1143   20.1125 O   0  0  0  0  0  0  0  0  0  0  0  0
    6.5530    7.7635   21.3482 C   0  0  0  0  0  0  0  0  0  0  0  0
    6.9724    9.0629   22.0017 C   0  0  0  0  0  0  0  0  0  0  0  0
    8.2454    8.7187   22.6779 C   0  0  0  0  0  0  0  0  0  0  0  0
    8.4166    7.2510   22.6827 C   0  0  0  0  0  0  0  0  0  0  0  0
    7.1567    6.6958   22.1482 N   0  0  0  0  0  0  0  0  0  0  0  0
    6.5463    5.4318   22.2640 C   0  0  0  0  0  0  0  0  0  0  0  0
    7.3457    4.4368   22.0327 O   0  0  0  0  0  0  0  0  0  0  0  0
    5.2117    5.0747   22.5946 C   0  0  0  0  0  0  0  0  0  0  0  0
    5.1194    3.6261   23.1597 C   0  0  0  0  0  0  0  0  0  0  0  0
    3.6425    3.2987   23.0807 C   0  0  0  0  0  0  0  0  0  0  0  0
    3.0840    4.6580   22.7368 C   0  0  0  0  0  0  0  0  0  0  0  0
    4.1108    5.0495   21.6907 N   0  0  0  0  0  0  0  0  0  0  0  0
    3.9120    5.2914   20.3522 C   0  0  0  0  0  0  0  0  0  0  0  0
    3.1960    6.3654   20.1078 O   0  0  0  0  0  0  0  0  0  0  0  0
    4.2858    4.6603   19.0792 C   0  0  0  0  0  0  0  0  0  0  0  0
    4.2797    5.5492   17.9422 N   0  0  0  0  0  0  0  0  0  0  0  0
    4.5434    6.9222   17.8425 C   0  0  0  0  0  0  0  0  0  0  0  0
    3.5284    7.7488   17.6681 O   0  0  0  0  0  0  0  0  0  0  0  0
    7.1932    6.2183   18.5076 H   0  0  0  0  0  0  0  0  0  0  0  0
    4.0054    5.0688   17.0160 H   0  0  0  0  0  0  0  0  0  0  0  0
    6.5201    7.6569   16.5817 C   0  0  0  0  0  0  0  0  0  0  0  0
    6.5735    8.7971   15.6868 C   0  0  0  0  0  0  0  0  0  0  0  0
    5.4812    9.0244   14.7121 C   0  0  0  0  0  0  0  0  0  0  0  0
    5.5133    8.0216   13.6429 N   0  0  0  0  0  0  0  0  0  0  0  0
    5.0366    7.1178   13.8168 H   0  0  0  0  0  0  0  0  0  0  0  0
    6.4934    9.5833   12.0287 N   0  0  0  0  0  0  0  0  0  0  0  0
    6.1656    8.2604   12.4157 C   0  0  0  0  0  0  0  0  0  0  0  0
    6.4726    7.2885   11.6320 N   0  0  0  0  0  0  0  0  0  0  0  0
    7.3867    9.7762   11.5169 H   0  0  0  0  0  0  0  0  0  0  0  0
    5.8433   10.3693   12.2533 H   0  0  0  0  0  0  0  0  0  0  0  0
    6.9486    7.4480   10.7340 H   0  0  0  0  0  0  0  0  0  0  0  0
    5.3803    3.6536   19.0988 C   0  0  0  0  0  0  0  0  0  0  0  0
    4.9947    2.3529   19.6880 C   0  0  0  0  0  0  0  0  0  0  0  0
    3.7780    1.7724   19.2971 C   0  0  0  0  0  0  0  0  0  0  0  0
    3.3387    0.5773   19.8017 C   0  0  0  0  0  0  0  0  0  0  0  0
    4.1102   -0.1042   20.7379 C   0  0  0  0  0  0  0  0  0  0  0  0
    3.6175   -1.3056   21.2123 O   0  0  0  0  0  0  0  0  0  0  0  0
    5.2947    0.4346   21.1358 C   0  0  0  0  0  0  0  0  0  0  0  0
    5.7091    1.6422   20.6070 C   0  0  0  0  0  0  0  0  0  0  0  0
    3.0281   -1.2935   22.0357 H   0  0  0  0  0  0  0  0  0  0  0  0
 30 31  1  0  0  0
 31 32  2  0  0  0
 31 28  1  0  0  0
 28 27  1  0  0  0
 27 26  1  0  0  0
 26 25  1  0  0  0
 25  1  1  0  0  0
  1  2  1  0  0  0
  2  3  1  0  0  0
  3  4  2  0  0  0
  3  5  1  0  0  0
  5  6  1  0  0  0
  6  7  1  0  0  0
  7  8  1  0  0  0
  8  9  1  0  0  0
  9 10  1  0  0  0
 10 11  2  0  0  0
 10 12  1  0  0  0
 12 13  1  0  0  0
 13 14  1  0  0  0
 14 15  1  0  0  0
 15 16  1  0  0  0
 16 17  1  0  0  0
 17 18  2  0  0  0
 17 19  1  0  0  0
 19 36  1  0  0  0
 36 37  1  0  0  0
 37 38  2  0  0  0
 38 39  1  0  0  0
 39 40  2  0  0  0
 40 41  1  0  0  0
 40 42  1  0  0  0
 42 43  2  0  0  0
 19 20  1  0  0  0
 20 21  1  0  0  0
 21 22  2  0  0  0
 21  1  1  0  0  0
  9  5  1  0  0  0
 16 12  1  0  0  0
 43 37  1  0  0  0
 30 33  1  0  0  0
 30 34  1  0  0  0
 32 35  1  0  0  0
 28 29  1  0  0  0
  2 23  1  0  0  0
 41 44  1  0  0  0
 20 24  1  0  0  0
M  END
> <minimizedAffinity>
-7.87200

> <CNNscore>
0.3723171055

> <CNNaffinity>
6.2560782433

> <CNN_VS>
2.3292448521

> <CNNaffinity_variance>
0.1213837266

$$$$
[H]N=C(N([H])[H])N([H])C([H])([H])C([H])([H])C([H])([H])[C@@]1([H])C(=O)N([H])[C@@]([H])(C([H])([H])c2c([H])c([H])c(O[H])c([H])c2[H])C(=O)N2C([H])([H])C([H])([H])C([H])([H])[C@@]2([H])C(=O)N2C([H])([H])C([H])([H])C([H])([H])[C@@]2([H])C(=O)N1[H]


 44 47  0  0  0  0  0  0  0  0999 V2000
    4.6912    3.7430   19.3598 C   0  0  0  0  0  0  0  0  0  0  0  0
    4.1460    5.0084   19.8411 N   0  0  0  0  0  0  0  0  0  0  0  0
    4.6784    6.0022   20.6476 C   0  0  0  0  0  0  0  0  0  0  0  0
    4.2559    6.1859   21.8609 O   0  0  0  0  0  0  0  0  0  0  0  0
    5.7660    6.9835   20.2757 C   0  0  0  0  0  0  0  0  0  0  0  0
    6.6376    7.1803   21.4975 C   0  0  0  0  0  0  0  0  0  0  0  0
    5.9128    8.2077   22.2818 C   0  0  0  0  0  0  0  0  0  0  0  0
    4.8475    8.8005   21.4467 C   0  0  0  0  0  0  0  0  0  0  0  0
    5.0364    8.2401   20.0934 N   0  0  0  0  0  0  0  0  0  0  0  0
    4.6380    8.6777   18.8153 C   0  0  0  0  0  0  0  0  0  0  0  0
    3.3903    9.0249   18.7420 O   0  0  0  0  0  0  0  0  0  0  0  0
    5.3755    8.8034   17.6078 C   0  0  0  0  0  0  0  0  0  0  0  0
    4.7278    9.8324   16.6341 C   0  0  0  0  0  0  0  0  0  0  0  0
    5.3968    9.5464   15.3055 C   0  0  0  0  0  0  0  0  0  0  0  0
    6.4857    8.6009   15.7510 C   0  0  0  0  0  0  0  0  0  0  0  0
    5.6537    7.7489   16.6911 N   0  0  0  0  0  0  0  0  0  0  0  0
    5.3591    6.4100   16.5901 C   0  0  0  0  0  0  0  0  0  0  0  0
    6.4018    5.6248   16.7384 O   0  0  0  0  0  0  0  0  0  0  0  0
    4.1655    5.5876   16.3503 C   0  0  0  0  0  0  0  0  0  0  0  0
    4.2616    4.2316   16.8352 N   0  0  0  0  0  0  0  0  0  0  0  0
    4.9538    3.6885   17.9264 C   0  0  0  0  0  0  0  0  0  0  0  0
    6.0504    2.9903   17.6938 O   0  0  0  0  0  0  0  0  0  0  0  0
    3.1333    5.1552   19.5054 H   0  0  0  0  0  0  0  0  0  0  0  0
    3.7186    3.5164   16.2375 H   0  0  0  0  0  0  0  0  0  0  0  0
    3.6640    2.7322   19.7860 C   0  0  0  0  0  0  0  0  0  0  0  0
    4.0023    1.4362   20.3426 C   0  0  0  0  0  0  0  0  0  0  0  0
    4.9031    1.3471   21.5155 C   0  0  0  0  0  0  0  0  0  0  0  0
    4.2546    1.8786   22.7183 N   0  0  0  0  0  0  0  0  0  0  0  0
    3.5766    1.2672   23.2091 H   0  0  0  0  0  0  0  0  0  0  0  0
    5.8525    3.6814   23.1679 N   0  0  0  0  0  0  0  0  0  0  0  0
    4.5304    3.1735   23.2040 C   0  0  0  0  0  0  0  0  0  0  0  0
    3.5932    3.9110   23.6845 N   0  0  0  0  0  0  0  0  0  0  0  0
    6.0222    4.6938   22.9600 H   0  0  0  0  0  0  0  0  0  0  0  0
    6.6611    3.0457   23.3492 H   0  0  0  0  0  0  0  0  0  0  0  0
    3.7799    4.8574   24.0421 H   0  0  0  0  0  0  0  0  0  0  0  0
    2.8349    6.2321   16.5113 C   0  0  0  0  0  0  0  0  0  0  0  0
    2.1574    6.5468   15.2347 C   0  0  0  0  0  0  0  0  0  0  0  0
    2.5006    7.7324   14.5663 C   0  0  0  0  0  0  0  0  0  0  0  0
    1.9141    8.1065   13.3865 C   0  0  0  0  0  0  0  0  0  0  0  0
    0.9394    7.2974   12.8109 C   0  0  0  0  0  0  0  0  0  0  0  0
    0.3824    7.7246   11.6200 O   0  0  0  0  0  0  0  0  0  0  0  0
    0.5862    6.1417   13.4366 C   0  0  0  0  0  0  0  0  0  0  0  0
    1.1975    5.7932   14.6259 C   0  0  0  0  0  0  0  0  0  0  0  0
   -0.4422    8.3114   11.6565 H   0  0  0  0  0  0  0  0  0  0  0  0
 30 31  1  0  0  0
 31 32  2  0  0  0
 31 28  1  0  0  0
 28 27  1  0  0  0
 27 26  1  0  0  0
 26 25  1  0  0  0
 25  1  1  0  0  0
  1  2  1  0  0  0
  2  3  1  0  0  0
  3  4  2  0  0  0
  3  5  1  0  0  0
  5  6  1  0  0  0
  6  7  1  0  0  0
  7  8  1  0  0  0
  8  9  1  0  0  0
  9 10  1  0  0  0
 10 11  2  0  0  0
 10 12  1  0  0  0
 12 13  1  0  0  0
 13 14  1  0  0  0
 14 15  1  0  0  0
 15 16  1  0  0  0
 16 17  1  0  0  0
 17 18  2  0  0  0
 17 19  1  0  0  0
 19 36  1  0  0  0
 36 37  1  0  0  0
 37 38  2  0  0  0
 38 39  1  0  0  0
 39 40  2  0  0  0
 40 41  1  0  0  0
 40 42  1  0  0  0
 42 43  2  0  0  0
 19 20  1  0  0  0
 20 21  1  0  0  0
 21 22  2  0  0  0
 21  1  1  0  0  0
  9  5  1  0  0  0
 16 12  1  0  0  0
 43 37  1  0  0  0
 30 33  1  0  0  0
 30 34  1  0  0  0
 32 35  1  0  0  0
 28 29  1  0  0  0
  2 23  1  0  0  0
 41 44  1  0  0  0
 20 24  1  0  0  0
M  END
> <minimizedAffinity>
-6.27105

> <CNNscore>
0.3697457910

> <CNNaffinity>
6.3535699844

> <CNN_VS>
2.3492057323

> <CNNaffinity_variance>
0.7986940145

$$$$
[H]N=C(N([H])[H])N([H])C([H])([H])C([H])([H])C([H])([H])[C@@]1([H])C(=O)N([H])[C@@]([H])(C([H])([H])c2c([H])c([H])c(O[H])c([H])c2[H])C(=O)N2C([H])([H])C([H])([H])C([H])([H])[C@@]2([H])C(=O)N2C([H])([H])C([H])([H])C([H])([H])[C@@]2([H])C(=O)N1[H]


 44 47  0  0  0  0  0  0  0  0999 V2000
    6.1304    7.7373   18.8465 C   0  0  0  0  0  0  0  0  0  0  0  0
    7.1046    6.8229   19.4337 N   0  0  0  0  0  0  0  0  0  0  0  0
    7.8475    6.8826   20.6025 C   0  0  0  0  0  0  0  0  0  0  0  0
    9.1288    7.0875   20.5786 O   0  0  0  0  0  0  0  0  0  0  0  0
    7.3294    6.7227   22.0132 C   0  0  0  0  0  0  0  0  0  0  0  0
    8.0876    7.6971   22.8889 C   0  0  0  0  0  0  0  0  0  0  0  0
    9.3386    6.9728   23.2154 C   0  0  0  0  0  0  0  0  0  0  0  0
    9.2032    5.5565   22.8164 C   0  0  0  0  0  0  0  0  0  0  0  0
    7.7980    5.3885   22.3938 N   0  0  0  0  0  0  0  0  0  0  0  0
    6.9605    4.2608   22.2926 C   0  0  0  0  0  0  0  0  0  0  0  0
    7.5015    3.2557   21.6763 O   0  0  0  0  0  0  0  0  0  0  0  0
    5.6348    4.0471   22.7558 C   0  0  0  0  0  0  0  0  0  0  0  0
    5.3196    2.5330   22.9415 C   0  0  0  0  0  0  0  0  0  0  0  0
    3.8093    2.4867   23.0486 C   0  0  0  0  0  0  0  0  0  0  0  0
    3.5031    3.9598   23.1675 C   0  0  0  0  0  0  0  0  0  0  0  0
    4.4454    4.4589   22.0882 N   0  0  0  0  0  0  0  0  0  0  0  0
    4.1305    5.0993   20.9133 C   0  0  0  0  0  0  0  0  0  0  0  0
    3.6256    6.3001   21.0825 O   0  0  0  0  0  0  0  0  0  0  0  0
    4.1997    4.8026   19.4760 C   0  0  0  0  0  0  0  0  0  0  0  0
    4.2307    5.9659   18.6223 N   0  0  0  0  0  0  0  0  0  0  0  0
    4.7564    7.2488   18.8290 C   0  0  0  0  0  0  0  0  0  0  0  0
    3.9195    8.2448   19.0555 O   0  0  0  0  0  0  0  0  0  0  0  0
    7.2675    5.9631   18.8060 H   0  0  0  0  0  0  0  0  0  0  0  0
    3.7469    5.8191   17.6693 H   0  0  0  0  0  0  0  0  0  0  0  0
    6.6633    7.9782   17.4622 C   0  0  0  0  0  0  0  0  0  0  0  0
    6.2449    9.0882   16.6276 C   0  0  0  0  0  0  0  0  0  0  0  0
    5.9038    8.8565   15.2047 C   0  0  0  0  0  0  0  0  0  0  0  0
    5.0370    7.6833   15.0559 N   0  0  0  0  0  0  0  0  0  0  0  0
    5.4743    6.7999   14.7356 H   0  0  0  0  0  0  0  0  0  0  0  0
    2.9277    8.9301   15.1004 N   0  0  0  0  0  0  0  0  0  0  0  0
    3.6553    7.7369   15.3330 C   0  0  0  0  0  0  0  0  0  0  0  0
    3.0358    6.7107   15.7982 N   0  0  0  0  0  0  0  0  0  0  0  0
    1.9445    8.8859   14.7421 H   0  0  0  0  0  0  0  0  0  0  0  0
    3.3716    9.8570   15.2865 H   0  0  0  0  0  0  0  0  0  0  0  0
    2.0283    6.7355   16.0047 H   0  0  0  0  0  0  0  0  0  0  0  0
    5.0568    3.6673   19.0423 C   0  0  0  0  0  0  0  0  0  0  0  0
    4.3081    2.5339   18.4569 C   0  0  0  0  0  0  0  0  0  0  0  0
    3.9602    2.5886   17.0982 C   0  0  0  0  0  0  0  0  0  0  0  0
    3.2573    1.5892   16.4793 C   0  0  0  0  0  0  0  0  0  0  0  0
    2.8626    0.4691   17.2044 C   0  0  0  0  0  0  0  0  0  0  0  0
    2.1561   -0.5079   16.5280 O   0  0  0  0  0  0  0  0  0  0  0  0
    3.1858    0.3887   18.5238 C   0  0  0  0  0  0  0  0  0  0  0  0
    3.8960    1.4144   19.1180 C   0  0  0  0  0  0  0  0  0  0  0  0
    1.1458   -0.4426   16.5037 H   0  0  0  0  0  0  0  0  0  0  0  0
 30 31  1  0  0  0
 31 32  2  0  0  0
 31 28  1  0  0  0
 28 27  1  0  0  0
 27 26  1  0  0  0
 26 25  1  0  0  0
 25  1  1  0  0  0
  1  2  1  0  0  0
  2  3  1  0  0  0
  3  4  2  0  0  0
  3  5  1  0  0  0
  5  6  1  0  0  0
  6  7  1  0  0  0
  7  8  1  0  0  0
  8  9  1  0  0  0
  9 10  1  0  0  0
 10 11  2  0  0  0
 10 12  1  0  0  0
 12 13  1  0  0  0
 13 14  1  0  0  0
 14 15  1  0  0  0
 15 16  1  0  0  0
 16 17  1  0  0  0
 17 18  2  0  0  0
 17 19  1  0  0  0
 19 36  1  0  0  0
 36 37  1  0  0  0
 37 38  2  0  0  0
 38 39  1  0  0  0
 39 40  2  0  0  0
 40 41  1  0  0  0
 40 42  1  0  0  0
 42 43  2  0  0  0
 19 20  1  0  0  0
 20 21  1  0  0  0
 21 22  2  0  0  0
 21  1  1  0  0  0
  9  5  1  0  0  0
 16 12  1  0  0  0
 43 37  1  0  0  0
 30 33  1  0  0  0
 30 34  1  0  0  0
 32 35  1  0  0  0
 28 29  1  0  0  0
  2 23  1  0  0  0
 41 44  1  0  0  0
 20 24  1  0  0  0
M  END
> <minimizedAffinity>
-8.73114

> <CNNscore>
0.3587152064

> <CNNaffinity>
6.5142936707

> <CNN_VS>
2.3367762566

> <CNNaffinity_variance>
0.1074183956

$$$$
[H]N=C(N([H])[H])N([H])C([H])([H])C([H])([H])C([H])([H])[C@@]1([H])C(=O)N([H])[C@@]([H])(C([H])([H])c2c([H])c([H])c(O[H])c([H])c2[H])C(=O)N2C([H])([H])C([H])([H])C([H])([H])[C@@]2([H])C(=O)N2C([H])([H])C([H])([H])C([H])([H])[C@@]2([H])C(=O)N1[H]


 44 47  0  0  0  0  0  0  0  0999 V2000
    3.9871    4.6172   17.3467 C   0  0  0  0  0  0  0  0  0  0  0  0
    3.5700    6.0027   17.1563 N   0  0  0  0  0  0  0  0  0  0  0  0
    4.2888    7.1665   16.9315 C   0  0  0  0  0  0  0  0  0  0  0  0
    4.3975    8.0805   17.8464 O   0  0  0  0  0  0  0  0  0  0  0  0
    5.0161    7.5502   15.6635 C   0  0  0  0  0  0  0  0  0  0  0  0
    6.2950    8.2520   16.0678 C   0  0  0  0  0  0  0  0  0  0  0  0
    5.8665    9.6511   16.3020 C   0  0  0  0  0  0  0  0  0  0  0  0
    4.4959    9.8375   15.7822 C   0  0  0  0  0  0  0  0  0  0  0  0
    4.1554    8.5825   15.0820 N   0  0  0  0  0  0  0  0  0  0  0  0
    3.2165    8.2744   14.0785 C   0  0  0  0  0  0  0  0  0  0  0  0
    2.0250    8.7305   14.3130 O   0  0  0  0  0  0  0  0  0  0  0  0
    3.3635    7.5565   12.8615 C   0  0  0  0  0  0  0  0  0  0  0  0
    2.2679    7.9403   11.8229 C   0  0  0  0  0  0  0  0  0  0  0  0
    2.3436    6.8351   10.7897 C   0  0  0  0  0  0  0  0  0  0  0  0
    3.6076    6.1394   11.2326 C   0  0  0  0  0  0  0  0  0  0  0  0
    3.3361    6.1386   12.7254 N   0  0  0  0  0  0  0  0  0  0  0  0
    3.1621    5.0588   13.5580 C   0  0  0  0  0  0  0  0  0  0  0  0
    4.2438    4.3301   13.7148 O   0  0  0  0  0  0  0  0  0  0  0  0
    2.0668    4.4721   14.3422 C   0  0  0  0  0  0  0  0  0  0  0  0
    2.4926    3.6442   15.4450 N   0  0  0  0  0  0  0  0  0  0  0  0
    3.6289    3.7093   16.2631 C   0  0  0  0  0  0  0  0  0  0  0  0
    4.5910    2.8237   16.0785 O   0  0  0  0  0  0  0  0  0  0  0  0
    2.5008    6.1071   17.2310 H   0  0  0  0  0  0  0  0  0  0  0  0
    1.8238    2.8249   15.6574 H   0  0  0  0  0  0  0  0  0  0  0  0
    3.3400    4.2302   18.6467 C   0  0  0  0  0  0  0  0  0  0  0  0
    4.0546    4.1708   19.9076 C   0  0  0  0  0  0  0  0  0  0  0  0
    3.7242    5.1259   20.9908 C   0  0  0  0  0  0  0  0  0  0  0  0
    4.0252    6.5031   20.5877 N   0  0  0  0  0  0  0  0  0  0  0  0
    3.5209    6.8850   19.7667 H   0  0  0  0  0  0  0  0  0  0  0  0
    4.5850    8.5517   21.8106 N   0  0  0  0  0  0  0  0  0  0  0  0
    4.9652    7.2943   21.2799 C   0  0  0  0  0  0  0  0  0  0  0  0
    6.1754    6.8910   21.4408 N   0  0  0  0  0  0  0  0  0  0  0  0
    4.9742    8.8757   22.7274 H   0  0  0  0  0  0  0  0  0  0  0  0
    3.9151    9.1584   21.2871 H   0  0  0  0  0  0  0  0  0  0  0  0
    6.8715    7.4576   21.9436 H   0  0  0  0  0  0  0  0  0  0  0  0
    0.8690    5.3150   14.5998 C   0  0  0  0  0  0  0  0  0  0  0  0
   -0.0800    5.3792   13.4670 C   0  0  0  0  0  0  0  0  0  0  0  0
   -1.0497    6.3939   13.4595 C   0  0  0  0  0  0  0  0  0  0  0  0
   -1.9741    6.5190   12.4566 C   0  0  0  0  0  0  0  0  0  0  0  0
   -1.9711    5.6182   11.3961 C   0  0  0  0  0  0  0  0  0  0  0  0
   -2.9266    5.7930   10.4125 O   0  0  0  0  0  0  0  0  0  0  0  0
   -1.0423    4.6238   11.3767 C   0  0  0  0  0  0  0  0  0  0  0  0
   -0.1235    4.5256   12.4042 C   0  0  0  0  0  0  0  0  0  0  0  0
   -3.8181    5.3243   10.5177 H   0  0  0  0  0  0  0  0  0  0  0  0
 30 31  1  0  0  0
 31 32  2  0  0  0
 31 28  1  0  0  0
 28 27  1  0  0  0
 27 26  1  0  0  0
 26 25  1  0  0  0
 25  1  1  0  0  0
  1  2  1  0  0  0
  2  3  1  0  0  0
  3  4  2  0  0  0
  3  5  1  0  0  0
  5  6  1  0  0  0
  6  7  1  0  0  0
  7  8  1  0  0  0
  8  9  1  0  0  0
  9 10  1  0  0  0
 10 11  2  0  0  0
 10 12  1  0  0  0
 12 13  1  0  0  0
 13 14  1  0  0  0
 14 15  1  0  0  0
 15 16  1  0  0  0
 16 17  1  0  0  0
 17 18  2  0  0  0
 17 19  1  0  0  0
 19 36  1  0  0  0
 36 37  1  0  0  0
 37 38  2  0  0  0
 38 39  1  0  0  0
 39 40  2  0  0  0
 40 41  1  0  0  0
 40 42  1  0  0  0
 42 43  2  0  0  0
 19 20  1  0  0  0
 20 21  1  0  0  0
 21 22  2  0  0  0
 21  1  1  0  0  0
  9  5  1  0  0  0
 16 12  1  0  0  0
 43 37  1  0  0  0
 30 33  1  0  0  0
 30 34  1  0  0  0
 32 35  1  0  0  0
 28 29  1  0  0  0
  2 23  1  0  0  0
 41 44  1  0  0  0
 20 24  1  0  0  0
M  END
> <minimizedAffinity>
-7.48625

> <CNNscore>
0.3107932508

> <CNNaffinity>
5.8213710785

> <CNN_VS>
1.8092428446

> <CNNaffinity_variance>
0.1588519961

$$$$
[H]N=C(N([H])[H])N([H])C([H])([H])C([H])([H])C([H])([H])[C@@]1([H])C(=O)N([H])[C@@]([H])(C([H])([H])c2c([H])c([H])c(O[H])c([H])c2[H])C(=O)N2C([H])([H])C([H])([H])C([H])([H])[C@@]2([H])C(=O)N2C([H])([H])C([H])([H])C([H])([H])[C@@]2([H])C(=O)N1[H]


 44 47  0  0  0  0  0  0  0  0999 V2000
    3.7497    4.6717   16.9958 C   0  0  0  0  0  0  0  0  0  0  0  0
    3.3545    6.0580   16.7674 N   0  0  0  0  0  0  0  0  0  0  0  0
    4.0914    7.2031   16.5081 C   0  0  0  0  0  0  0  0  0  0  0  0
    4.2177    8.1406   17.3966 O   0  0  0  0  0  0  0  0  0  0  0  0
    4.8210    7.5390   15.2278 C   0  0  0  0  0  0  0  0  0  0  0  0
    6.1123    8.2309   15.6089 C   0  0  0  0  0  0  0  0  0  0  0  0
    5.7073    9.6429   15.8046 C   0  0  0  0  0  0  0  0  0  0  0  0
    4.3384    9.8369   15.2833 C   0  0  0  0  0  0  0  0  0  0  0  0
    3.9755    8.5684   14.6197 N   0  0  0  0  0  0  0  0  0  0  0  0
    3.0286    8.2475   13.6276 C   0  0  0  0  0  0  0  0  0  0  0  0
    1.8455    8.7294   13.8523 O   0  0  0  0  0  0  0  0  0  0  0  0
    3.1603    7.4933   12.4311 C   0  0  0  0  0  0  0  0  0  0  0  0
    2.0679    7.8654   11.3849 C   0  0  0  0  0  0  0  0  0  0  0  0
    2.1225    6.7304   10.3831 C   0  0  0  0  0  0  0  0  0  0  0  0
    3.3764    6.0270   10.8422 C   0  0  0  0  0  0  0  0  0  0  0  0
    3.1095    6.0728   12.3351 N   0  0  0  0  0  0  0  0  0  0  0  0
    2.9205    5.0198   13.1982 C   0  0  0  0  0  0  0  0  0  0  0  0
    3.9907    4.2783   13.3728 O   0  0  0  0  0  0  0  0  0  0  0  0
    1.8183    4.4734   14.0015 C   0  0  0  0  0  0  0  0  0  0  0  0
    2.2339    3.6701   15.1262 N   0  0  0  0  0  0  0  0  0  0  0  0
    3.3736    3.7397   15.9392 C   0  0  0  0  0  0  0  0  0  0  0  0
    4.3206    2.8337   15.7772 O   0  0  0  0  0  0  0  0  0  0  0  0
    2.2874    6.1819   16.8420 H   0  0  0  0  0  0  0  0  0  0  0  0
    1.5525    2.8680   15.3633 H   0  0  0  0  0  0  0  0  0  0  0  0
    3.1004    4.3321   18.3079 C   0  0  0  0  0  0  0  0  0  0  0  0
    3.8476    4.0249   19.5126 C   0  0  0  0  0  0  0  0  0  0  0  0
    4.9257    3.0096   19.4756 C   0  0  0  0  0  0  0  0  0  0  0  0
    5.3410    2.6337   20.8307 N   0  0  0  0  0  0  0  0  0  0  0  0
    5.3284    3.3708   21.5592 H   0  0  0  0  0  0  0  0  0  0  0  0
    4.8272    0.2481   21.0548 N   0  0  0  0  0  0  0  0  0  0  0  0
    5.7472    1.3214   21.1493 C   0  0  0  0  0  0  0  0  0  0  0  0
    6.9514    1.0775   21.5282 N   0  0  0  0  0  0  0  0  0  0  0  0
    5.1470   -0.6917   20.7208 H   0  0  0  0  0  0  0  0  0  0  0  0
    3.8271    0.3929   21.3188 H   0  0  0  0  0  0  0  0  0  0  0  0
    7.2614    0.1253   21.7636 H   0  0  0  0  0  0  0  0  0  0  0  0
    0.6350    5.3426   14.2383 C   0  0  0  0  0  0  0  0  0  0  0  0
   -0.3462    5.3427   13.1315 C   0  0  0  0  0  0  0  0  0  0  0  0
   -1.3992    6.2701   13.1671 C   0  0  0  0  0  0  0  0  0  0  0  0
   -2.3577    6.3309   12.1906 C   0  0  0  0  0  0  0  0  0  0  0  0
   -2.3061    5.4505   11.1143 C   0  0  0  0  0  0  0  0  0  0  0  0
   -3.2993    5.5578   10.1587 O   0  0  0  0  0  0  0  0  0  0  0  0
   -1.2964    4.5403   11.0532 C   0  0  0  0  0  0  0  0  0  0  0  0
   -0.3451    4.5054   12.0549 C   0  0  0  0  0  0  0  0  0  0  0  0
   -4.1442    5.0125   10.2782 H   0  0  0  0  0  0  0  0  0  0  0  0
 30 31  1  0  0  0
 31 32  2  0  0  0
 31 28  1  0  0  0
 28 27  1  0  0  0
 27 26  1  0  0  0
 26 25  1  0  0  0
 25  1  1  0  0  0
  1  2  1  0  0  0
  2  3  1  0  0  0
  3  4  2  0  0  0
  3  5  1  0  0  0
  5  6  1  0  0  0
  6  7  1  0  0  0
  7  8  1  0  0  0
  8  9  1  0  0  0
  9 10  1  0  0  0
 10 11  2  0  0  0
 10 12  1  0  0  0
 12 13  1  0  0  0
 13 14  1  0  0  0
 14 15  1  0  0  0
 15 16  1  0  0  0
 16 17  1  0  0  0
 17 18  2  0  0  0
 17 19  1  0  0  0
 19 36  1  0  0  0
 36 37  1  0  0  0
 37 38  2  0  0  0
 38 39  1  0  0  0
 39 40  2  0  0  0
 40 41  1  0  0  0
 40 42  1  0  0  0
 42 43  2  0  0  0
 19 20  1  0  0  0
 20 21  1  0  0  0
 21 22  2  0  0  0
 21  1  1  0  0  0
  9  5  1  0  0  0
 16 12  1  0  0  0
 43 37  1  0  0  0
 30 33  1  0  0  0
 30 34  1  0  0  0
 32 35  1  0  0  0
 28 29  1  0  0  0
  2 23  1  0  0  0
 41 44  1  0  0  0
 20 24  1  0  0  0
M  END
> <minimizedAffinity>
-6.90002

> <CNNscore>
0.3061790764

> <CNNaffinity>
6.0179243088

> <CNN_VS>
1.8425625563

> <CNNaffinity_variance>
0.1864097118

$$$$
[H]c1nc(N([H])c2c([H])c([H])c(OC([H])([H])c3nc([H])c([H])c([H])c3[H])c(Cl)c2[H])c2c(O[C@]([H])(C(=O)N(C([H])([H])[H])C([H])([H])[H])C([H])([H])[H])c([H])c([H])c([H])c2n1


 35 38  0  0  0  0  0  0  0  0999 V2000
    4.6336    2.6074   19.9749 C   0  0  0  0  0  0  0  0  0  0  0  0
    4.5856    2.5452   21.3747 C   0  0  0  0  0  0  0  0  0  0  0  0
    3.8995    1.5265   21.9910 C   0  0  0  0  0  0  0  0  0  0  0  0
    3.2543    0.5596   21.2722 C   0  0  0  0  0  0  0  0  0  0  0  0
    3.2757    0.5824   19.8799 C   0  0  0  0  0  0  0  0  0  0  0  0
    2.6345   -0.4012   19.2176 N   0  0  0  0  0  0  0  0  0  0  0  0
    2.6717   -0.3761   17.8835 C   0  0  0  0  0  0  0  0  0  0  0  0
    3.3150    0.5817   17.2512 N   0  0  0  0  0  0  0  0  0  0  0  0
    3.9836    1.6077   17.8998 C   0  0  0  0  0  0  0  0  0  0  0  0
    3.9707    1.6160   19.2564 C   0  0  0  0  0  0  0  0  0  0  0  0
    4.5540    2.6066   17.1123 N   0  0  0  0  0  0  0  0  0  0  0  0
    5.4925    2.9467   17.1207 H   0  0  0  0  0  0  0  0  0  0  0  0
    3.6999    3.2990   16.1511 C   0  0  0  0  0  0  0  0  0  0  0  0
    2.7593    4.1942   16.6243 C   0  0  0  0  0  0  0  0  0  0  0  0
    1.9449    4.9092   15.7943 C   0  0  0  0  0  0  0  0  0  0  0  0
    2.0571    4.7390   14.4329 C   0  0  0  0  0  0  0  0  0  0  0  0
    2.9815    3.8579   13.9277 C   0  0  0  0  0  0  0  0  0  0  0  0
    3.1492    3.6150   12.1869 Cl  0  0  0  0  0  0  0  0  0  0  0  0
    3.8107    3.1322   14.7974 C   0  0  0  0  0  0  0  0  0  0  0  0
    1.2225    5.4706   13.5725 O   0  0  0  0  0  0  0  0  0  0  0  0
    0.4239    6.5138   14.1030 C   0  0  0  0  0  0  0  0  0  0  0  0
   -0.9354    6.4202   13.5249 C   0  0  0  0  0  0  0  0  0  0  0  0
   -2.0115    7.1004   14.0589 C   0  0  0  0  0  0  0  0  0  0  0  0
   -3.2703    7.0040   13.5070 C   0  0  0  0  0  0  0  0  0  0  0  0
   -3.4386    6.1974   12.3867 C   0  0  0  0  0  0  0  0  0  0  0  0
   -2.3701    5.5256   11.8613 C   0  0  0  0  0  0  0  0  0  0  0  0
   -1.1519    5.6554   12.4436 N   0  0  0  0  0  0  0  0  0  0  0  0
    5.3120    3.6057   19.3532 O   0  0  0  0  0  0  0  0  0  0  0  0
    6.1419    5.4831   20.6199 C   0  0  0  0  0  0  0  0  0  0  0  0
    5.1887    4.9693   19.5410 C   0  0  0  0  0  0  0  0  0  0  0  0
    5.5175    5.7392   18.2830 C   0  0  0  0  0  0  0  0  0  0  0  0
    6.3973    5.2428   17.5324 O   0  0  0  0  0  0  0  0  0  0  0  0
    4.8860    6.9491   17.9477 N   0  0  0  0  0  0  0  0  0  0  0  0
    3.8609    7.5695   18.7606 C   0  0  0  0  0  0  0  0  0  0  0  0
    5.2825    7.6281   16.7085 C   0  0  0  0  0  0  0  0  0  0  0  0
 29 30  1  0  0  0
 30 28  1  0  0  0
 28  1  1  0  0  0
  1  2  2  0  0  0
  2  3  1  0  0  0
  3  4  2  0  0  0
  4  5  1  0  0  0
  5  6  2  0  0  0
  6  7  1  0  0  0
  7  8  2  0  0  0
  8  9  1  0  0  0
  9 11  1  0  0  0
 11 13  1  0  0  0
 13 14  2  0  0  0
 14 15  1  0  0  0
 15 16  2  0  0  0
 16 20  1  0  0  0
 20 21  1  0  0  0
 21 22  1  0  0  0
 22 23  2  0  0  0
 23 24  1  0  0  0
 24 25  2  0  0  0
 25 26  1  0  0  0
 26 27  2  0  0  0
 16 17  1  0  0  0
 17 18  1  0  0  0
 17 19  2  0  0  0
  9 10  2  0  0  0
 30 31  1  0  0  0
 31 32  2  0  0  0
 31 33  1  0  0  0
 33 34  1  0  0  0
 33 35  1  0  0  0
 10  1  1  0  0  0
 10  5  1  0  0  0
 19 13  1  0  0  0
 27 22  1  0  0  0
 11 12  1  0  0  0
M  END
> <minimizedAffinity>
-8.68312

> <CNNscore>
0.7083494067

> <CNNaffinity>
7.1683073044

> <CNN_VS>
5.0776662827

> <CNNaffinity_variance>
0.2344094068

$$$$
[H]c1nc(N([H])c2c([H])c([H])c(OC([H])([H])c3nc([H])c([H])c([H])c3[H])c(Cl)c2[H])c2c(O[C@]([H])(C(=O)N(C([H])([H])[H])C([H])([H])[H])C([H])([H])[H])c([H])c([H])c([H])c2n1


 35 38  0  0  0  0  0  0  0  0999 V2000
    4.3478    2.0904   20.5578 C   0  0  0  0  0  0  0  0  0  0  0  0
    4.0265    1.6574   21.8519 C   0  0  0  0  0  0  0  0  0  0  0  0
    3.2223    0.5566   22.0250 C   0  0  0  0  0  0  0  0  0  0  0  0
    2.7198   -0.1382   20.9607 C   0  0  0  0  0  0  0  0  0  0  0  0
    3.0132    0.2566   19.6578 C   0  0  0  0  0  0  0  0  0  0  0  0
    2.5034   -0.4696   18.6429 N   0  0  0  0  0  0  0  0  0  0  0  0
    2.8008   -0.0893   17.3985 C   0  0  0  0  0  0  0  0  0  0  0  0
    3.5655    0.9601   17.1856 N   0  0  0  0  0  0  0  0  0  0  0  0
    4.1053    1.7290   18.2043 C   0  0  0  0  0  0  0  0  0  0  0  0
    3.8276    1.3731   19.4837 C   0  0  0  0  0  0  0  0  0  0  0  0
    4.8292    2.8642   17.8429 N   0  0  0  0  0  0  0  0  0  0  0  0
    5.6105    3.2784   18.3061 H   0  0  0  0  0  0  0  0  0  0  0  0
    4.4114    3.5983   16.6516 C   0  0  0  0  0  0  0  0  0  0  0  0
    4.0093    2.8833   15.5393 C   0  0  0  0  0  0  0  0  0  0  0  0
    3.5709    3.4893   14.3974 C   0  0  0  0  0  0  0  0  0  0  0  0
    3.5239    4.8639   14.3418 C   0  0  0  0  0  0  0  0  0  0  0  0
    3.9155    5.6061   15.4289 C   0  0  0  0  0  0  0  0  0  0  0  0
    3.8692    7.3707   15.3894 Cl  0  0  0  0  0  0  0  0  0  0  0  0
    4.3626    4.9647   16.5948 C   0  0  0  0  0  0  0  0  0  0  0  0
    3.0744    5.4946   13.1703 O   0  0  0  0  0  0  0  0  0  0  0  0
    4.0190    6.0867   12.2959 C   0  0  0  0  0  0  0  0  0  0  0  0
    4.4593    5.0762   11.3082 C   0  0  0  0  0  0  0  0  0  0  0  0
    3.5755    4.2094   10.6972 C   0  0  0  0  0  0  0  0  0  0  0  0
    4.0017    3.2757    9.7779 C   0  0  0  0  0  0  0  0  0  0  0  0
    5.3575    3.2222    9.4732 C   0  0  0  0  0  0  0  0  0  0  0  0
    6.2292    4.0826   10.0808 C   0  0  0  0  0  0  0  0  0  0  0  0
    5.7569    4.9828   10.9789 N   0  0  0  0  0  0  0  0  0  0  0  0
    5.1452    3.1735   20.3725 O   0  0  0  0  0  0  0  0  0  0  0  0
    6.6775    3.9828   22.0503 C   0  0  0  0  0  0  0  0  0  0  0  0
    5.3952    4.2114   21.2501 C   0  0  0  0  0  0  0  0  0  0  0  0
    5.5758    5.5251   20.5259 C   0  0  0  0  0  0  0  0  0  0  0  0
    6.7274    6.0319   20.5566 O   0  0  0  0  0  0  0  0  0  0  0  0
    4.5262    6.1664   19.8457 N   0  0  0  0  0  0  0  0  0  0  0  0
    3.1821    5.6345   19.7636 C   0  0  0  0  0  0  0  0  0  0  0  0
    4.7988    7.4462   19.1812 C   0  0  0  0  0  0  0  0  0  0  0  0
 29 30  1  0  0  0
 30 28  1  0  0  0
 28  1  1  0  0  0
  1  2  2  0  0  0
  2  3  1  0  0  0
  3  4  2  0  0  0
  4  5  1  0  0  0
  5  6  2  0  0  0
  6  7  1  0  0  0
  7  8  2  0  0  0
  8  9  1  0  0  0
  9 11  1  0  0  0
 11 13  1  0  0  0
 13 14  2  0  0  0
 14 15  1  0  0  0
 15 16  2  0  0  0
 16 20  1  0  0  0
 20 21  1  0  0  0
 21 22  1  0  0  0
 22 23  2  0  0  0
 23 24  1  0  0  0
 24 25  2  0  0  0
 25 26  1  0  0  0
 26 27  2  0  0  0
 16 17  1  0  0  0
 17 18  1  0  0  0
 17 19  2  0  0  0
  9 10  2  0  0  0
 30 31  1  0  0  0
 31 32  2  0  0  0
 31 33  1  0  0  0
 33 34  1  0  0  0
 33 35  1  0  0  0
 10  1  1  0  0  0
 10  5  1  0  0  0
 19 13  1  0  0  0
 27 22  1  0  0  0
 11 12  1  0  0  0
M  END
> <minimizedAffinity>
-8.14391

> <CNNscore>
0.6390226483

> <CNNaffinity>
7.2787675858

> <CNN_VS>
4.6512975693

> <CNNaffinity_variance>
0.2451239079

$$$$
[H]c1nc(N([H])c2c([H])c([H])c(OC([H])([H])c3nc([H])c([H])c([H])c3[H])c(Cl)c2[H])c2c(O[C@]([H])(C(=O)N(C([H])([H])[H])C([H])([H])[H])C([H])([H])[H])c([H])c([H])c([H])c2n1


 35 38  0  0  0  0  0  0  0  0999 V2000
    4.7360    2.7968   20.6240 C   0  0  0  0  0  0  0  0  0  0  0  0
    4.7769    2.8836   22.0227 C   0  0  0  0  0  0  0  0  0  0  0  0
    4.1150    1.9517   22.7856 C   0  0  0  0  0  0  0  0  0  0  0  0
    3.4091    0.9298   22.2155 C   0  0  0  0  0  0  0  0  0  0  0  0
    3.3414    0.8052   20.8301 C   0  0  0  0  0  0  0  0  0  0  0  0
    2.6427   -0.2275   20.3175 N   0  0  0  0  0  0  0  0  0  0  0  0
    2.5946   -0.3441   18.9887 C   0  0  0  0  0  0  0  0  0  0  0  0
    3.2117    0.5266   18.2191 N   0  0  0  0  0  0  0  0  0  0  0  0
    3.9375    1.5993   18.7118 C   0  0  0  0  0  0  0  0  0  0  0  0
    4.0119    1.7508   20.0579 C   0  0  0  0  0  0  0  0  0  0  0  0
    4.4726    2.4962   17.7884 N   0  0  0  0  0  0  0  0  0  0  0  0
    5.3295    3.0058   17.8394 H   0  0  0  0  0  0  0  0  0  0  0  0
    3.7024    2.7853   16.5817 C   0  0  0  0  0  0  0  0  0  0  0  0
    3.5723    1.7962   15.6252 C   0  0  0  0  0  0  0  0  0  0  0  0
    2.8417    1.9702   14.4853 C   0  0  0  0  0  0  0  0  0  0  0  0
    2.2069    3.1727   14.2713 C   0  0  0  0  0  0  0  0  0  0  0  0
    2.3142    4.1778   15.2011 C   0  0  0  0  0  0  0  0  0  0  0  0
    1.5140    5.7324   14.9557 Cl  0  0  0  0  0  0  0  0  0  0  0  0
    3.0694    3.9796   16.3677 C   0  0  0  0  0  0  0  0  0  0  0  0
    1.4538    3.3595   13.1008 O   0  0  0  0  0  0  0  0  0  0  0  0
    2.1238    3.6181   11.8795 C   0  0  0  0  0  0  0  0  0  0  0  0
    2.0986    2.3936   11.0486 C   0  0  0  0  0  0  0  0  0  0  0  0
    0.9306    1.7069   10.7838 C   0  0  0  0  0  0  0  0  0  0  0  0
    0.9244    0.5694   10.0062 C   0  0  0  0  0  0  0  0  0  0  0  0
    2.1333    0.1200    9.4863 C   0  0  0  0  0  0  0  0  0  0  0  0
    3.2876    0.8031    9.7511 C   0  0  0  0  0  0  0  0  0  0  0  0
    3.2379    1.9176   10.5228 N   0  0  0  0  0  0  0  0  0  0  0  0
    5.3894    3.7080   19.8585 O   0  0  0  0  0  0  0  0  0  0  0  0
    3.6199    5.3399   20.0116 C   0  0  0  0  0  0  0  0  0  0  0  0
    5.0768    5.0394   19.6598 C   0  0  0  0  0  0  0  0  0  0  0  0
    5.9183    5.9468   20.5268 C   0  0  0  0  0  0  0  0  0  0  0  0
    5.6224    5.9917   21.7492 O   0  0  0  0  0  0  0  0  0  0  0  0
    6.9821    6.7105   20.0163 N   0  0  0  0  0  0  0  0  0  0  0  0
    7.3808    6.6985   18.6244 C   0  0  0  0  0  0  0  0  0  0  0  0
    7.7338    7.5709   20.9374 C   0  0  0  0  0  0  0  0  0  0  0  0
 29 30  1  0  0  0
 30 28  1  0  0  0
 28  1  1  0  0  0
  1  2  2  0  0  0
  2  3  1  0  0  0
  3  4  2  0  0  0
  4  5  1  0  0  0
  5  6  2  0  0  0
  6  7  1  0  0  0
  7  8  2  0  0  0
  8  9  1  0  0  0
  9 11  1  0  0  0
 11 13  1  0  0  0
 13 14  2  0  0  0
 14 15  1  0  0  0
 15 16  2  0  0  0
 16 20  1  0  0  0
 20 21  1  0  0  0
 21 22  1  0  0  0
 22 23  2  0  0  0
 23 24  1  0  0  0
 24 25  2  0  0  0
 25 26  1  0  0  0
 26 27  2  0  0  0
 16 17  1  0  0  0
 17 18  1  0  0  0
 17 19  2  0  0  0
  9 10  2  0  0  0
 30 31  1  0  0  0
 31 32  2  0  0  0
 31 33  1  0  0  0
 33 34  1  0  0  0
 33 35  1  0  0  0
 10  1  1  0  0  0
 10  5  1  0  0  0
 19 13  1  0  0  0
 27 22  1  0  0  0
 11 12  1  0  0  0
M  END
> <minimizedAffinity>
-8.28397

> <CNNscore>
0.6258846521

> <CNNaffinity>
7.2910590172

> <CNN_VS>
4.5633621216

> <CNNaffinity_variance>
0.2503761351

$$$$
[H]c1nc(N([H])c2c([H])c([H])c(OC([H])([H])c3nc([H])c([H])c([H])c3[H])c(Cl)c2[H])c2c(O[C@]([H])(C(=O)N(C([H])([H])[H])C([H])([H])[H])C([H])([H])[H])c([H])c([H])c([H])c2n1


 35 38  0  0  0  0  0  0  0  0999 V2000
    4.5029    2.0959   20.1938 C   0  0  0  0  0  0  0  0  0  0  0  0
    4.2006    1.7718   21.5239 C   0  0  0  0  0  0  0  0  0  0  0  0
    3.3278    0.7460   21.7966 C   0  0  0  0  0  0  0  0  0  0  0  0
    2.7379    0.0227   20.7983 C   0  0  0  0  0  0  0  0  0  0  0  0
    3.0092    0.3102   19.4630 C   0  0  0  0  0  0  0  0  0  0  0  0
    2.4116   -0.4407   18.5163 N   0  0  0  0  0  0  0  0  0  0  0  0
    2.6883   -0.1641   17.2401 C   0  0  0  0  0  0  0  0  0  0  0  0
    3.5166    0.8108   16.9324 N   0  0  0  0  0  0  0  0  0  0  0  0
    4.1473    1.6023   17.8791 C   0  0  0  0  0  0  0  0  0  0  0  0
    3.8933    1.3508   19.1878 C   0  0  0  0  0  0  0  0  0  0  0  0
    4.9354    2.6560   17.4189 N   0  0  0  0  0  0  0  0  0  0  0  0
    5.8749    2.8854   17.6663 H   0  0  0  0  0  0  0  0  0  0  0  0
    4.3452    3.5949   16.4687 C   0  0  0  0  0  0  0  0  0  0  0  0
    3.6500    3.0925   15.3850 C   0  0  0  0  0  0  0  0  0  0  0  0
    3.0382    3.8984   14.4688 C   0  0  0  0  0  0  0  0  0  0  0  0
    3.1107    5.2646   14.6213 C   0  0  0  0  0  0  0  0  0  0  0  0
    3.7929    5.7986   15.6869 C   0  0  0  0  0  0  0  0  0  0  0  0
    3.9063    7.5463   15.9101 Cl  0  0  0  0  0  0  0  0  0  0  0  0
    4.4150    4.9533   16.6193 C   0  0  0  0  0  0  0  0  0  0  0  0
    2.4842    6.1003   13.6826 O   0  0  0  0  0  0  0  0  0  0  0  0
    1.2561    6.7217   14.0187 C   0  0  0  0  0  0  0  0  0  0  0  0
    0.2334    6.3365   13.0205 C   0  0  0  0  0  0  0  0  0  0  0  0
   -1.1171    6.3500   13.3067 C   0  0  0  0  0  0  0  0  0  0  0  0
   -2.0565    5.9904   12.3650 C   0  0  0  0  0  0  0  0  0  0  0  0
   -1.6124    5.6083   11.1038 C   0  0  0  0  0  0  0  0  0  0  0  0
   -0.2741    5.5964   10.8248 C   0  0  0  0  0  0  0  0  0  0  0  0
    0.6088    5.9597   11.7884 N   0  0  0  0  0  0  0  0  0  0  0  0
    5.3672    3.1039   19.9104 O   0  0  0  0  0  0  0  0  0  0  0  0
    3.7474    4.7905   20.5016 C   0  0  0  0  0  0  0  0  0  0  0  0
    5.1757    4.4636   20.0659 C   0  0  0  0  0  0  0  0  0  0  0  0
    6.0848    5.0388   21.1270 C   0  0  0  0  0  0  0  0  0  0  0  0
    6.1031    4.4442   22.2361 O   0  0  0  0  0  0  0  0  0  0  0  0
    6.8786    6.1779   20.9091 N   0  0  0  0  0  0  0  0  0  0  0  0
    6.9120    6.9029   19.6562 C   0  0  0  0  0  0  0  0  0  0  0  0
    7.7214    6.6667   22.0066 C   0  0  0  0  0  0  0  0  0  0  0  0
 29 30  1  0  0  0
 30 28  1  0  0  0
 28  1  1  0  0  0
  1  2  2  0  0  0
  2  3  1  0  0  0
  3  4  2  0  0  0
  4  5  1  0  0  0
  5  6  2  0  0  0
  6  7  1  0  0  0
  7  8  2  0  0  0
  8  9  1  0  0  0
  9 11  1  0  0  0
 11 13  1  0  0  0
 13 14  2  0  0  0
 14 15  1  0  0  0
 15 16  2  0  0  0
 16 20  1  0  0  0
 20 21  1  0  0  0
 21 22  1  0  0  0
 22 23  2  0  0  0
 23 24  1  0  0  0
 24 25  2  0  0  0
 25 26  1  0  0  0
 26 27  2  0  0  0
 16 17  1  0  0  0
 17 18  1  0  0  0
 17 19  2  0  0  0
  9 10  2  0  0  0
 30 31  1  0  0  0
 31 32  2  0  0  0
 31 33  1  0  0  0
 33 34  1  0  0  0
 33 35  1  0  0  0
 10  1  1  0  0  0
 10  5  1  0  0  0
 19 13  1  0  0  0
 27 22  1  0  0  0
 11 12  1  0  0  0
M  END
> <minimizedAffinity>
-8.55337

> <CNNscore>
0.5893028975

> <CNNaffinity>
7.1632370949

> <CNN_VS>
4.2213163376

> <CNNaffinity_variance>
0.1898302436

$$$$
[H]c1nc(N([H])c2c([H])c([H])c(OC([H])([H])c3nc([H])c([H])c([H])c3[H])c(Cl)c2[H])c2c(O[C@]([H])(C(=O)N(C([H])([H])[H])C([H])([H])[H])C([H])([H])[H])c([H])c([H])c([H])c2n1


 35 38  0  0  0  0  0  0  0  0999 V2000
    4.7045    2.6877   19.8795 C   0  0  0  0  0  0  0  0  0  0  0  0
    4.7609    2.5176   21.2699 C   0  0  0  0  0  0  0  0  0  0  0  0
    4.1356    1.4419   21.8534 C   0  0  0  0  0  0  0  0  0  0  0  0
    3.4518    0.5210   21.1104 C   0  0  0  0  0  0  0  0  0  0  0  0
    3.3700    0.6507   19.7263 C   0  0  0  0  0  0  0  0  0  0  0  0
    2.6945   -0.2911   19.0378 N   0  0  0  0  0  0  0  0  0  0  0  0
    2.6327   -0.1634   17.7106 C   0  0  0  0  0  0  0  0  0  0  0  0
    3.2149    0.8520   17.1096 N   0  0  0  0  0  0  0  0  0  0  0  0
    3.9161    1.8377   17.7857 C   0  0  0  0  0  0  0  0  0  0  0  0
    4.0034    1.7419   19.1361 C   0  0  0  0  0  0  0  0  0  0  0  0
    4.4135    2.9045   17.0389 N   0  0  0  0  0  0  0  0  0  0  0  0
    5.2659    3.4088   17.1642 H   0  0  0  0  0  0  0  0  0  0  0  0
    3.6046    3.4083   15.9322 C   0  0  0  0  0  0  0  0  0  0  0  0
    2.8452    4.5459   16.1301 C   0  0  0  0  0  0  0  0  0  0  0  0
    2.0884    5.1036   15.1404 C   0  0  0  0  0  0  0  0  0  0  0  0
    2.0743    4.5180   13.8947 C   0  0  0  0  0  0  0  0  0  0  0  0
    2.8175    3.3866   13.6624 C   0  0  0  0  0  0  0  0  0  0  0  0
    2.8197    2.6101   12.0766 Cl  0  0  0  0  0  0  0  0  0  0  0  0
    3.5903    2.8284   14.6928 C   0  0  0  0  0  0  0  0  0  0  0  0
    1.2978    5.0855   12.8714 O   0  0  0  0  0  0  0  0  0  0  0  0
   -0.0991    4.8500   12.8498 C   0  0  0  0  0  0  0  0  0  0  0  0
   -0.5777    4.9247   11.4512 C   0  0  0  0  0  0  0  0  0  0  0  0
    0.1040    4.3328   10.4067 C   0  0  0  0  0  0  0  0  0  0  0  0
   -0.3565    4.4099    9.1104 C   0  0  0  0  0  0  0  0  0  0  0  0
   -1.5370    5.1049    8.8708 C   0  0  0  0  0  0  0  0  0  0  0  0
   -2.2087    5.6895    9.9081 C   0  0  0  0  0  0  0  0  0  0  0  0
   -1.7115    5.5833   11.1657 N   0  0  0  0  0  0  0  0  0  0  0  0
    5.3219    3.7433   19.2896 O   0  0  0  0  0  0  0  0  0  0  0  0
    3.5090    5.2650   19.7539 C   0  0  0  0  0  0  0  0  0  0  0  0
    4.9690    5.0784   19.3414 C   0  0  0  0  0  0  0  0  0  0  0  0
    5.7959    5.8366   20.3536 C   0  0  0  0  0  0  0  0  0  0  0  0
    5.4327    5.7512   21.5556 O   0  0  0  0  0  0  0  0  0  0  0  0
    6.9174    6.6039   19.9945 N   0  0  0  0  0  0  0  0  0  0  0  0
    7.3942    6.7370   18.6338 C   0  0  0  0  0  0  0  0  0  0  0  0
    7.6498    7.3133   21.0500 C   0  0  0  0  0  0  0  0  0  0  0  0
 29 30  1  0  0  0
 30 28  1  0  0  0
 28  1  1  0  0  0
  1  2  2  0  0  0
  2  3  1  0  0  0
  3  4  2  0  0  0
  4  5  1  0  0  0
  5  6  2  0  0  0
  6  7  1  0  0  0
  7  8  2  0  0  0
  8  9  1  0  0  0
  9 11  1  0  0  0
 11 13  1  0  0  0
 13 14  2  0  0  0
 14 15  1  0  0  0
 15 16  2  0  0  0
 16 20  1  0  0  0
 20 21  1  0  0  0
 21 22  1  0  0  0
 22 23  2  0  0  0
 23 24  1  0  0  0
 24 25  2  0  0  0
 25 26  1  0  0  0
 26 27  2  0  0  0
 16 17  1  0  0  0
 17 18  1  0  0  0
 17 19  2  0  0  0
  9 10  2  0  0  0
 30 31  1  0  0  0
 31 32  2  0  0  0
 31 33  1  0  0  0
 33 34  1  0  0  0
 33 35  1  0  0  0
 10  1  1  0  0  0
 10  5  1  0  0  0
 19 13  1  0  0  0
 27 22  1  0  0  0
 11 12  1  0  0  0
M  END
> <minimizedAffinity>
-7.73683

> <CNNscore>
0.5550138950

> <CNNaffinity>
7.0454001427

> <CNN_VS>
3.9102950096

> <CNNaffinity_variance>
0.2671101689

$$$$
[H]c1nc(N([H])c2c([H])c([H])c(OC([H])([H])c3nc([H])c([H])c([H])c3[H])c(Cl)c2[H])c2c(O[C@]([H])(C(=O)N(C([H])([H])[H])C([H])([H])[H])C([H])([H])[H])c([H])c([H])c([H])c2n1


 35 38  0  0  0  0  0  0  0  0999 V2000
    4.2652    1.1586   19.8210 C   0  0  0  0  0  0  0  0  0  0  0  0
    3.6619    0.1276   20.5549 C   0  0  0  0  0  0  0  0  0  0  0  0
    2.7042   -0.6620   19.9652 C   0  0  0  0  0  0  0  0  0  0  0  0
    2.3169   -0.4708   18.6686 C   0  0  0  0  0  0  0  0  0  0  0  0
    2.8895    0.5414   17.9025 C   0  0  0  0  0  0  0  0  0  0  0  0
    2.4820    0.6806   16.6251 N   0  0  0  0  0  0  0  0  0  0  0  0
    3.0462    1.6463   15.8965 C   0  0  0  0  0  0  0  0  0  0  0  0
    3.9659    2.4276   16.4208 N   0  0  0  0  0  0  0  0  0  0  0  0
    4.4075    2.3132   17.7293 C   0  0  0  0  0  0  0  0  0  0  0  0
    3.8594    1.3418   18.5017 C   0  0  0  0  0  0  0  0  0  0  0  0
    5.3254    3.2575   18.1865 N   0  0  0  0  0  0  0  0  0  0  0  0
    6.2175    3.1059   18.6081 H   0  0  0  0  0  0  0  0  0  0  0  0
    4.9702    4.6704   18.0842 C   0  0  0  0  0  0  0  0  0  0  0  0
    3.8772    5.1323   18.7927 C   0  0  0  0  0  0  0  0  0  0  0  0
    3.4968    6.4432   18.7813 C   0  0  0  0  0  0  0  0  0  0  0  0
    4.2228    7.3469   18.0390 C   0  0  0  0  0  0  0  0  0  0  0  0
    5.3153    6.9228   17.3229 C   0  0  0  0  0  0  0  0  0  0  0  0
    6.2665    8.0561   16.3593 Cl  0  0  0  0  0  0  0  0  0  0  0  0
    5.6915    5.5706   17.3479 C   0  0  0  0  0  0  0  0  0  0  0  0
    3.8374    8.6972   18.0218 O   0  0  0  0  0  0  0  0  0  0  0  0
    3.5840    9.3613   19.2474 C   0  0  0  0  0  0  0  0  0  0  0  0
    4.8577    9.5086   19.9867 C   0  0  0  0  0  0  0  0  0  0  0  0
    4.9516    9.2812   21.3452 C   0  0  0  0  0  0  0  0  0  0  0  0
    6.1460    9.4207   22.0179 C   0  0  0  0  0  0  0  0  0  0  0  0
    7.2702    9.8003   21.2928 C   0  0  0  0  0  0  0  0  0  0  0  0
    7.1726   10.0244   19.9477 C   0  0  0  0  0  0  0  0  0  0  0  0
    5.9724    9.8728   19.3341 N   0  0  0  0  0  0  0  0  0  0  0  0
    5.2161    1.9431   20.3899 O   0  0  0  0  0  0  0  0  0  0  0  0
    6.5689    1.7850   22.3805 C   0  0  0  0  0  0  0  0  0  0  0  0
    5.3161    2.3459   21.7080 C   0  0  0  0  0  0  0  0  0  0  0  0
    5.4074    3.8494   21.8280 C   0  0  0  0  0  0  0  0  0  0  0  0
    6.3216    4.4126   21.1715 O   0  0  0  0  0  0  0  0  0  0  0  0
    4.5273    4.6012   22.6253 N   0  0  0  0  0  0  0  0  0  0  0  0
    3.4499    4.0184   23.3973 C   0  0  0  0  0  0  0  0  0  0  0  0
    4.7042    6.0569   22.6853 C   0  0  0  0  0  0  0  0  0  0  0  0
 29 30  1  0  0  0
 30 28  1  0  0  0
 28  1  1  0  0  0
  1  2  2  0  0  0
  2  3  1  0  0  0
  3  4  2  0  0  0
  4  5  1  0  0  0
  5  6  2  0  0  0
  6  7  1  0  0  0
  7  8  2  0  0  0
  8  9  1  0  0  0
  9 11  1  0  0  0
 11 13  1  0  0  0
 13 14  2  0  0  0
 14 15  1  0  0  0
 15 16  2  0  0  0
 16 20  1  0  0  0
 20 21  1  0  0  0
 21 22  1  0  0  0
 22 23  2  0  0  0
 23 24  1  0  0  0
 24 25  2  0  0  0
 25 26  1  0  0  0
 26 27  2  0  0  0
 16 17  1  0  0  0
 17 18  1  0  0  0
 17 19  2  0  0  0
  9 10  2  0  0  0
 30 31  1  0  0  0
 31 32  2  0  0  0
 31 33  1  0  0  0
 33 34  1  0  0  0
 33 35  1  0  0  0
 10  1  1  0  0  0
 10  5  1  0  0  0
 19 13  1  0  0  0
 27 22  1  0  0  0
 11 12  1  0  0  0
M  END
> <minimizedAffinity>
-8.41160

> <CNNscore>
0.4800013304

> <CNNaffinity>
7.1246886253

> <CNN_VS>
3.4198601246

> <CNNaffinity_variance>
0.0531710610

$$$$
[H]c1nc(N([H])c2c([H])c([H])c(OC([H])([H])c3nc([H])c([H])c([H])c3[H])c(Cl)c2[H])c2c(O[C@]([H])(C(=O)N(C([H])([H])[H])C([H])([H])[H])C([H])([H])[H])c([H])c([H])c([H])c2n1


 35 38  0  0  0  0  0  0  0  0999 V2000
    4.8704    4.2142   21.2126 C   0  0  0  0  0  0  0  0  0  0  0  0
    4.7203    4.9870   22.3726 C   0  0  0  0  0  0  0  0  0  0  0  0
    4.0805    4.4591   23.4683 C   0  0  0  0  0  0  0  0  0  0  0  0
    3.5797    3.1875   23.4619 C   0  0  0  0  0  0  0  0  0  0  0  0
    3.7062    2.3846   22.3311 C   0  0  0  0  0  0  0  0  0  0  0  0
    3.2064    1.1336   22.3800 N   0  0  0  0  0  0  0  0  0  0  0  0
    3.3439    0.3686   21.2947 C   0  0  0  0  0  0  0  0  0  0  0  0
    3.9477    0.8335   20.2221 N   0  0  0  0  0  0  0  0  0  0  0  0
    4.4721    2.1134   20.1372 C   0  0  0  0  0  0  0  0  0  0  0  0
    4.3541    2.9210   21.2208 C   0  0  0  0  0  0  0  0  0  0  0  0
    5.0118    2.5108   18.9149 N   0  0  0  0  0  0  0  0  0  0  0  0
    5.9419    2.8121   18.7130 H   0  0  0  0  0  0  0  0  0  0  0  0
    4.1335    2.5348   17.7483 C   0  0  0  0  0  0  0  0  0  0  0  0
    3.8549    1.3445   17.1035 C   0  0  0  0  0  0  0  0  0  0  0  0
    3.0174    1.2719   16.0280 C   0  0  0  0  0  0  0  0  0  0  0  0
    2.4231    2.4221   15.5605 C   0  0  0  0  0  0  0  0  0  0  0  0
    2.6771    3.6226   16.1774 C   0  0  0  0  0  0  0  0  0  0  0  0
    1.9325    5.1162   15.6012 Cl  0  0  0  0  0  0  0  0  0  0  0  0
    3.5407    3.6770   17.2828 C   0  0  0  0  0  0  0  0  0  0  0  0
    1.5607    2.3555   14.4542 O   0  0  0  0  0  0  0  0  0  0  0  0
    2.1027    2.4317   13.1473 C   0  0  0  0  0  0  0  0  0  0  0  0
    1.0944    3.0279   12.2427 C   0  0  0  0  0  0  0  0  0  0  0  0
    0.9467    2.6190   10.9324 C   0  0  0  0  0  0  0  0  0  0  0  0
    0.0012    3.1831   10.1040 C   0  0  0  0  0  0  0  0  0  0  0  0
   -0.8124    4.1861   10.6197 C   0  0  0  0  0  0  0  0  0  0  0  0
   -0.6627    4.5879   11.9178 C   0  0  0  0  0  0  0  0  0  0  0  0
    0.2840    3.9993   12.6907 N   0  0  0  0  0  0  0  0  0  0  0  0
    5.5046    4.7216   20.1247 O   0  0  0  0  0  0  0  0  0  0  0  0
    7.1745    6.4545   20.2883 C   0  0  0  0  0  0  0  0  0  0  0  0
    5.7742    6.0451   19.8320 C   0  0  0  0  0  0  0  0  0  0  0  0
    5.7174    6.3121   18.3459 C   0  0  0  0  0  0  0  0  0  0  0  0
    6.5139    5.6567   17.6247 O   0  0  0  0  0  0  0  0  0  0  0  0
    4.8288    7.2398   17.7757 N   0  0  0  0  0  0  0  0  0  0  0  0
    3.8817    8.0189   18.5453 C   0  0  0  0  0  0  0  0  0  0  0  0
    4.8571    7.4367   16.3216 C   0  0  0  0  0  0  0  0  0  0  0  0
 29 30  1  0  0  0
 30 28  1  0  0  0
 28  1  1  0  0  0
  1  2  2  0  0  0
  2  3  1  0  0  0
  3  4  2  0  0  0
  4  5  1  0  0  0
  5  6  2  0  0  0
  6  7  1  0  0  0
  7  8  2  0  0  0
  8  9  1  0  0  0
  9 11  1  0  0  0
 11 13  1  0  0  0
 13 14  2  0  0  0
 14 15  1  0  0  0
 15 16  2  0  0  0
 16 20  1  0  0  0
 20 21  1  0  0  0
 21 22  1  0  0  0
 22 23  2  0  0  0
 23 24  1  0  0  0
 24 25  2  0  0  0
 25 26  1  0  0  0
 26 27  2  0  0  0
 16 17  1  0  0  0
 17 18  1  0  0  0
 17 19  2  0  0  0
  9 10  2  0  0  0
 30 31  1  0  0  0
 31 32  2  0  0  0
 31 33  1  0  0  0
 33 34  1  0  0  0
 33 35  1  0  0  0
 10  1  1  0  0  0
 10  5  1  0  0  0
 19 13  1  0  0  0
 27 22  1  0  0  0
 11 12  1  0  0  0
M  END
> <minimizedAffinity>
-8.32894

> <CNNscore>
0.3556309640

> <CNNaffinity>
6.9472684860

> <CNN_VS>
2.4706637859

> <CNNaffinity_variance>
0.3154938221

$$$$
[H]c1nc(N([H])c2c([H])c([H])c(OC([H])([H])c3nc([H])c([H])c([H])c3[H])c(Cl)c2[H])c2c(O[C@]([H])(C(=O)N(C([H])([H])[H])C([H])([H])[H])C([H])([H])[H])c([H])c([H])c([H])c2n1


 35 38  0  0  0  0  0  0  0  0999 V2000
    5.0835    3.7070   21.1954 C   0  0  0  0  0  0  0  0  0  0  0  0
    5.0719    4.0342   22.5586 C   0  0  0  0  0  0  0  0  0  0  0  0
    4.4215    3.2180   23.4526 C   0  0  0  0  0  0  0  0  0  0  0  0
    3.7774    2.0824   23.0485 C   0  0  0  0  0  0  0  0  0  0  0  0
    3.7633    1.7190   21.7042 C   0  0  0  0  0  0  0  0  0  0  0  0
    3.1249    0.5831   21.3588 N   0  0  0  0  0  0  0  0  0  0  0  0
    3.1280    0.2382   20.0694 C   0  0  0  0  0  0  0  0  0  0  0  0
    3.7364    0.9910   19.1781 N   0  0  0  0  0  0  0  0  0  0  0  0
    4.4010    2.1642   19.4977 C   0  0  0  0  0  0  0  0  0  0  0  0
    4.4221    2.5476   20.7989 C   0  0  0  0  0  0  0  0  0  0  0  0
    4.9318    2.9127   18.4483 N   0  0  0  0  0  0  0  0  0  0  0  0
    5.8622    3.2568   18.3368 H   0  0  0  0  0  0  0  0  0  0  0  0
    4.0422    3.2950   17.3550 C   0  0  0  0  0  0  0  0  0  0  0  0
    3.3086    4.4603   17.4737 C   0  0  0  0  0  0  0  0  0  0  0  0
    2.4805    4.9091   16.4857 C   0  0  0  0  0  0  0  0  0  0  0  0
    2.3650    4.1806   15.3234 C   0  0  0  0  0  0  0  0  0  0  0  0
    3.0798    3.0179   15.1711 C   0  0  0  0  0  0  0  0  0  0  0  0
    2.9526    2.0594   13.6938 Cl  0  0  0  0  0  0  0  0  0  0  0  0
    3.9270    2.5729   16.1982 C   0  0  0  0  0  0  0  0  0  0  0  0
    1.5147    4.6357   14.3026 O   0  0  0  0  0  0  0  0  0  0  0  0
    2.0769    5.0978   13.0869 C   0  0  0  0  0  0  0  0  0  0  0  0
    2.6188    6.4593   13.2947 C   0  0  0  0  0  0  0  0  0  0  0  0
    1.8119    7.5322   13.6163 C   0  0  0  0  0  0  0  0  0  0  0  0
    2.3330    8.7932   13.8086 C   0  0  0  0  0  0  0  0  0  0  0  0
    3.7058    8.9669   13.6705 C   0  0  0  0  0  0  0  0  0  0  0  0
    4.5011    7.9016   13.3518 C   0  0  0  0  0  0  0  0  0  0  0  0
    3.9368    6.6810   13.1732 N   0  0  0  0  0  0  0  0  0  0  0  0
    5.7263    4.5021   20.3021 O   0  0  0  0  0  0  0  0  0  0  0  0
    7.0261    6.4274   20.9514 C   0  0  0  0  0  0  0  0  0  0  0  0
    5.7735    5.8828   20.2653 C   0  0  0  0  0  0  0  0  0  0  0  0
    5.8062    6.4036   18.8472 C   0  0  0  0  0  0  0  0  0  0  0  0
    6.5312    5.7752   18.0327 O   0  0  0  0  0  0  0  0  0  0  0  0
    5.0727    7.5298   18.4361 N   0  0  0  0  0  0  0  0  0  0  0  0
    4.2136    8.2917   19.3181 C   0  0  0  0  0  0  0  0  0  0  0  0
    5.1790    7.9649   17.0385 C   0  0  0  0  0  0  0  0  0  0  0  0
 29 30  1  0  0  0
 30 28  1  0  0  0
 28  1  1  0  0  0
  1  2  2  0  0  0
  2  3  1  0  0  0
  3  4  2  0  0  0
  4  5  1  0  0  0
  5  6  2  0  0  0
  6  7  1  0  0  0
  7  8  2  0  0  0
  8  9  1  0  0  0
  9 11  1  0  0  0
 11 13  1  0  0  0
 13 14  2  0  0  0
 14 15  1  0  0  0
 15 16  2  0  0  0
 16 20  1  0  0  0
 20 21  1  0  0  0
 21 22  1  0  0  0
 22 23  2  0  0  0
 23 24  1  0  0  0
 24 25  2  0  0  0
 25 26  1  0  0  0
 26 27  2  0  0  0
 16 17  1  0  0  0
 17 18  1  0  0  0
 17 19  2  0  0  0
  9 10  2  0  0  0
 30 31  1  0  0  0
 31 32  2  0  0  0
 31 33  1  0  0  0
 33 34  1  0  0  0
 33 35  1  0  0  0
 10  1  1  0  0  0
 10  5  1  0  0  0
 19 13  1  0  0  0
 27 22  1  0  0  0
 11 12  1  0  0  0
M  END
> <minimizedAffinity>
-8.29678

> <CNNscore>
0.3247697055

> <CNNaffinity>
6.8158774376

> <CNN_VS>
2.2135906219

> <CNNaffinity_variance>
0.3436148763

$$$$
[H]c1nc(N([H])c2c([H])c([H])c(OC([H])([H])c3nc([H])c([H])c([H])c3[H])c(Cl)c2[H])c2c(O[C@]([H])(C(=O)N(C([H])([H])[H])C([H])([H])[H])C([H])([H])[H])c([H])c([H])c([H])c2n1


 35 38  0  0  0  0  0  0  0  0999 V2000
    4.2088    1.5348   19.5501 C   0  0  0  0  0  0  0  0  0  0  0  0
    3.6147    0.7404   20.5408 C   0  0  0  0  0  0  0  0  0  0  0  0
    2.6420   -0.1676   20.1974 C   0  0  0  0  0  0  0  0  0  0  0  0
    2.2308   -0.3221   18.9033 C   0  0  0  0  0  0  0  0  0  0  0  0
    2.7935    0.4460   17.8872 C   0  0  0  0  0  0  0  0  0  0  0  0
    2.3622    0.2466   16.6256 N   0  0  0  0  0  0  0  0  0  0  0  0
    2.9170    0.9799   15.6580 C   0  0  0  0  0  0  0  0  0  0  0  0
    3.8504    1.8629   15.9411 N   0  0  0  0  0  0  0  0  0  0  0  0
    4.3165    2.0941   17.2255 C   0  0  0  0  0  0  0  0  0  0  0  0
    3.7786    1.3667   18.2365 C   0  0  0  0  0  0  0  0  0  0  0  0
    5.2476    3.1166   17.4008 N   0  0  0  0  0  0  0  0  0  0  0  0
    6.1424    3.0755   17.8416 H   0  0  0  0  0  0  0  0  0  0  0  0
    4.9046    4.4518   16.9188 C   0  0  0  0  0  0  0  0  0  0  0  0
    3.8004    4.5980   16.1006 C   0  0  0  0  0  0  0  0  0  0  0  0
    3.3892    5.8133   15.6342 C   0  0  0  0  0  0  0  0  0  0  0  0
    4.0944    6.9417   15.9866 C   0  0  0  0  0  0  0  0  0  0  0  0
    5.1967    6.8335   16.7987 C   0  0  0  0  0  0  0  0  0  0  0  0
    6.1241    8.2610   17.2674 Cl  0  0  0  0  0  0  0  0  0  0  0  0
    5.6036    5.5750   17.2690 C   0  0  0  0  0  0  0  0  0  0  0  0
    3.6779    8.1954   15.5104 O   0  0  0  0  0  0  0  0  0  0  0  0
    4.2502    8.7101   14.3210 C   0  0  0  0  0  0  0  0  0  0  0  0
    3.4074    8.3131   13.1709 C   0  0  0  0  0  0  0  0  0  0  0  0
    2.0303    8.4056   13.2001 C   0  0  0  0  0  0  0  0  0  0  0  0
    1.2603    8.0338   12.1196 C   0  0  0  0  0  0  0  0  0  0  0  0
    1.9055    7.5568   10.9838 C   0  0  0  0  0  0  0  0  0  0  0  0
    3.2695    7.4668   10.9593 C   0  0  0  0  0  0  0  0  0  0  0  0
    3.9802    7.8463   12.0506 N   0  0  0  0  0  0  0  0  0  0  0  0
    5.1743    2.4324   19.8748 O   0  0  0  0  0  0  0  0  0  0  0  0
    3.8668    4.4182   20.2805 C   0  0  0  0  0  0  0  0  0  0  0  0
    5.0648    3.5544   20.6742 C   0  0  0  0  0  0  0  0  0  0  0  0
    4.8652    3.1890   22.1267 C   0  0  0  0  0  0  0  0  0  0  0  0
    3.8772    3.7086   22.7079 O   0  0  0  0  0  0  0  0  0  0  0  0
    5.7256    2.3155   22.8139 N   0  0  0  0  0  0  0  0  0  0  0  0
    6.8730    1.6772   22.2038 C   0  0  0  0  0  0  0  0  0  0  0  0
    5.4540    2.0309   24.2278 C   0  0  0  0  0  0  0  0  0  0  0  0
 29 30  1  0  0  0
 30 28  1  0  0  0
 28  1  1  0  0  0
  1  2  2  0  0  0
  2  3  1  0  0  0
  3  4  2  0  0  0
  4  5  1  0  0  0
  5  6  2  0  0  0
  6  7  1  0  0  0
  7  8  2  0  0  0
  8  9  1  0  0  0
  9 11  1  0  0  0
 11 13  1  0  0  0
 13 14  2  0  0  0
 14 15  1  0  0  0
 15 16  2  0  0  0
 16 20  1  0  0  0
 20 21  1  0  0  0
 21 22  1  0  0  0
 22 23  2  0  0  0
 23 24  1  0  0  0
 24 25  2  0  0  0
 25 26  1  0  0  0
 26 27  2  0  0  0
 16 17  1  0  0  0
 17 18  1  0  0  0
 17 19  2  0  0  0
  9 10  2  0  0  0
 30 31  1  0  0  0
 31 32  2  0  0  0
 31 33  1  0  0  0
 33 34  1  0  0  0
 33 35  1  0  0  0
 10  1  1  0  0  0
 10  5  1  0  0  0
 19 13  1  0  0  0
 27 22  1  0  0  0
 11 12  1  0  0  0
M  END
> <minimizedAffinity>
-7.90864

> <CNNscore>
0.3156072795

> <CNNaffinity>
6.7630624771

> <CNN_VS>
2.1344716549

> <CNNaffinity_variance>
0.1429523975

$$$$
[H]c1nc2c(C(=O)OC3([H])C([H])([H])C4([H])N(C([H])([H])[H])C([H])(C([H])([H])C4([H])[H])C3([H])[H])c([H])n(C([H])([H])C([H])(F)F)c2c([H])c1[H]


 25 28  0  0  0  0  0  0  0  0999 V2000
    3.5869    1.3814   17.8320 C   0  0  0  0  0  0  0  0  0  0  0  0
    4.3038    2.5564   17.7998 C   0  0  0  0  0  0  0  0  0  0  0  0
    4.6889    2.9127   19.0192 N   0  0  0  0  0  0  0  0  0  0  0  0
    4.2168    1.9560   19.8641 C   0  0  0  0  0  0  0  0  0  0  0  0
    4.3404    1.8544   21.2279 C   0  0  0  0  0  0  0  0  0  0  0  0
    3.7518    0.7615   21.8324 C   0  0  0  0  0  0  0  0  0  0  0  0
    3.0701   -0.1812   21.0780 C   0  0  0  0  0  0  0  0  0  0  0  0
    2.9587   -0.0636   19.7321 N   0  0  0  0  0  0  0  0  0  0  0  0
    3.5299    0.9945   19.1557 C   0  0  0  0  0  0  0  0  0  0  0  0
    3.0274    0.7300   16.6631 C   0  0  0  0  0  0  0  0  0  0  0  0
    2.3493   -0.3120   16.8145 O   0  0  0  0  0  0  0  0  0  0  0  0
    3.2047    1.2028   15.3801 O   0  0  0  0  0  0  0  0  0  0  0  0
    0.8982    4.9830   12.1897 C   0  0  0  0  0  0  0  0  0  0  0  0
    1.4278    4.0167   13.1001 N   0  0  0  0  0  0  0  0  0  0  0  0
    1.1482    2.6501   12.7406 C   0  0  0  0  0  0  0  0  0  0  0  0
    2.1095    2.3398   11.5867 C   0  0  0  0  0  0  0  0  0  0  0  0
    3.2000    3.3423   11.7903 C   0  0  0  0  0  0  0  0  0  0  0  0
    2.8779    4.0364   13.0804 C   0  0  0  0  0  0  0  0  0  0  0  0
    3.4590    3.2386   14.2168 C   0  0  0  0  0  0  0  0  0  0  0  0
    2.4776    2.2915   14.8405 C   0  0  0  0  0  0  0  0  0  0  0  0
    1.4745    1.7325   13.8761 C   0  0  0  0  0  0  0  0  0  0  0  0
    5.4575    4.0897   19.3543 C   0  0  0  0  0  0  0  0  0  0  0  0
    5.4607    5.0467   18.1545 C   0  0  0  0  0  0  0  0  0  0  0  0
    6.5974    4.8576   17.3982 F   0  0  0  0  0  0  0  0  0  0  0  0
    5.4860    6.3551   18.5951 F   0  0  0  0  0  0  0  0  0  0  0  0
 13 14  1  0  0  0
 14 15  1  0  0  0
 15 16  1  0  0  0
 16 17  1  0  0  0
 17 18  1  0  0  0
 18 19  1  0  0  0
 19 20  1  0  0  0
 20 21  1  0  0  0
 20 12  1  0  0  0
 12 10  1  0  0  0
 10 11  2  0  0  0
 10  1  1  0  0  0
  1  2  2  0  0  0
  2  3  1  0  0  0
  3 22  1  0  0  0
 22 23  1  0  0  0
 23 24  1  0  0  0
 23 25  1  0  0  0
  3  4  1  0  0  0
  4  5  2  0  0  0
  5  6  1  0  0  0
  6  7  2  0  0  0
  7  8  1  0  0  0
  8  9  2  0  0  0
 18 14  1  0  0  0
  9  1  1  0  0  0
 21 15  1  0  0  0
  9  4  1  0  0  0
M  END
> <minimizedAffinity>
-7.45509

> <CNNscore>
0.9448560476

> <CNNaffinity>
6.3538928032

> <CNN_VS>
6.0035138130

> <CNNaffinity_variance>
0.1583048552

$$$$
[H]c1nc2c(C(=O)OC3([H])C([H])([H])C4([H])N(C([H])([H])[H])C([H])(C([H])([H])C4([H])[H])C3([H])[H])c([H])n(C([H])([H])C([H])(F)F)c2c([H])c1[H]


 25 28  0  0  0  0  0  0  0  0999 V2000
    4.4285    2.8838   18.8077 C   0  0  0  0  0  0  0  0  0  0  0  0
    4.8789    3.6030   19.8920 C   0  0  0  0  0  0  0  0  0  0  0  0
    4.6190    2.9658   21.0272 N   0  0  0  0  0  0  0  0  0  0  0  0
    3.9882    1.8106   20.6815 C   0  0  0  0  0  0  0  0  0  0  0  0
    3.5101    0.8014   21.4806 C   0  0  0  0  0  0  0  0  0  0  0  0
    2.9059   -0.2673   20.8490 C   0  0  0  0  0  0  0  0  0  0  0  0
    2.7962   -0.3015   19.4673 C   0  0  0  0  0  0  0  0  0  0  0  0
    3.2744    0.7047   18.6948 N   0  0  0  0  0  0  0  0  0  0  0  0
    3.8567    1.7334   19.3122 C   0  0  0  0  0  0  0  0  0  0  0  0
    4.5616    3.3109   17.4280 C   0  0  0  0  0  0  0  0  0  0  0  0
    5.6612    3.7643   17.0358 O   0  0  0  0  0  0  0  0  0  0  0  0
    3.5300    3.2429   16.5158 O   0  0  0  0  0  0  0  0  0  0  0  0
    3.0117    3.1355   11.0835 C   0  0  0  0  0  0  0  0  0  0  0  0
    3.2516    3.1890   12.4917 N   0  0  0  0  0  0  0  0  0  0  0  0
    2.6918    4.3453   13.1433 C   0  0  0  0  0  0  0  0  0  0  0  0
    1.1886    4.0566   13.2388 C   0  0  0  0  0  0  0  0  0  0  0  0
    1.1358    2.5645   13.1584 C   0  0  0  0  0  0  0  0  0  0  0  0
    2.5641    2.1064   13.1690 C   0  0  0  0  0  0  0  0  0  0  0  0
    3.0173    1.9696   14.5979 C   0  0  0  0  0  0  0  0  0  0  0  0
    3.7276    3.1851   15.1147 C   0  0  0  0  0  0  0  0  0  0  0  0
    3.2289    4.4744   14.5335 C   0  0  0  0  0  0  0  0  0  0  0  0
    4.9518    3.4306   22.3544 C   0  0  0  0  0  0  0  0  0  0  0  0
    6.4489    3.2047   22.6057 C   0  0  0  0  0  0  0  0  0  0  0  0
    7.1747    4.2894   22.1625 F   0  0  0  0  0  0  0  0  0  0  0  0
    6.8874    2.1094   21.8884 F   0  0  0  0  0  0  0  0  0  0  0  0
 13 14  1  0  0  0
 14 15  1  0  0  0
 15 16  1  0  0  0
 16 17  1  0  0  0
 17 18  1  0  0  0
 18 19  1  0  0  0
 19 20  1  0  0  0
 20 21  1  0  0  0
 20 12  1  0  0  0
 12 10  1  0  0  0
 10 11  2  0  0  0
 10  1  1  0  0  0
  1  2  2  0  0  0
  2  3  1  0  0  0
  3 22  1  0  0  0
 22 23  1  0  0  0
 23 24  1  0  0  0
 23 25  1  0  0  0
  3  4  1  0  0  0
  4  5  2  0  0  0
  5  6  1  0  0  0
  6  7  2  0  0  0
  7  8  1  0  0  0
  8  9  2  0  0  0
 18 14  1  0  0  0
  9  1  1  0  0  0
 21 15  1  0  0  0
  9  4  1  0  0  0
M  END
> <minimizedAffinity>
-7.29588

> <CNNscore>
0.7566296458

> <CNNaffinity>
6.2500143051

> <CNN_VS>
4.7289462090

> <CNNaffinity_variance>
0.2589703798

$$$$
[H]c1nc2c(C(=O)OC3([H])C([H])([H])C4([H])N(C([H])([H])[H])C([H])(C([H])([H])C4([H])[H])C3([H])[H])c([H])n(C([H])([H])C([H])(F)F)c2c([H])c1[H]


 25 28  0  0  0  0  0  0  0  0999 V2000
    4.2446    2.1306   18.7106 C   0  0  0  0  0  0  0  0  0  0  0  0
    4.8267    3.3475   18.9865 C   0  0  0  0  0  0  0  0  0  0  0  0
    4.8682    3.5697   20.2946 N   0  0  0  0  0  0  0  0  0  0  0  0
    4.3042    2.4814   20.8855 C   0  0  0  0  0  0  0  0  0  0  0  0
    4.1041    2.2137   22.2174 C   0  0  0  0  0  0  0  0  0  0  0  0
    3.4994    1.0134   22.5331 C   0  0  0  0  0  0  0  0  0  0  0  0
    3.1181    0.1302   21.5346 C   0  0  0  0  0  0  0  0  0  0  0  0
    3.3239    0.4121   20.2247 N   0  0  0  0  0  0  0  0  0  0  0  0
    3.9085    1.5733   19.9278 C   0  0  0  0  0  0  0  0  0  0  0  0
    4.0521    1.5976   17.3755 C   0  0  0  0  0  0  0  0  0  0  0  0
    3.7173    0.3981   17.2427 O   0  0  0  0  0  0  0  0  0  0  0  0
    4.2202    2.3503   16.2326 O   0  0  0  0  0  0  0  0  0  0  0  0
    0.6863    4.5490   12.7019 C   0  0  0  0  0  0  0  0  0  0  0  0
    1.5385    3.9903   13.7043 N   0  0  0  0  0  0  0  0  0  0  0  0
    1.6623    2.5565   13.6431 C   0  0  0  0  0  0  0  0  0  0  0  0
    2.5984    2.2904   12.4579 C   0  0  0  0  0  0  0  0  0  0  0  0
    3.3462    3.5793   12.3352 C   0  0  0  0  0  0  0  0  0  0  0  0
    2.9109    4.4141   13.5029 C   0  0  0  0  0  0  0  0  0  0  0  0
    3.7753    4.0760   14.6879 C   0  0  0  0  0  0  0  0  0  0  0  0
    3.1663    3.0471   15.5931 C   0  0  0  0  0  0  0  0  0  0  0  0
    2.3205    2.0342   14.8808 C   0  0  0  0  0  0  0  0  0  0  0  0
    5.4113    4.7448   20.9369 C   0  0  0  0  0  0  0  0  0  0  0  0
    4.2970    5.7868   21.1044 C   0  0  0  0  0  0  0  0  0  0  0  0
    4.8403    7.0276   21.3592 F   0  0  0  0  0  0  0  0  0  0  0  0
    3.5090    5.4638   22.1914 F   0  0  0  0  0  0  0  0  0  0  0  0
 13 14  1  0  0  0
 14 15  1  0  0  0
 15 16  1  0  0  0
 16 17  1  0  0  0
 17 18  1  0  0  0
 18 19  1  0  0  0
 19 20  1  0  0  0
 20 21  1  0  0  0
 20 12  1  0  0  0
 12 10  1  0  0  0
 10 11  2  0  0  0
 10  1  1  0  0  0
  1  2  2  0  0  0
  2  3  1  0  0  0
  3 22  1  0  0  0
 22 23  1  0  0  0
 23 24  1  0  0  0
 23 25  1  0  0  0
  3  4  1  0  0  0
  4  5  2  0  0  0
  5  6  1  0  0  0
  6  7  2  0  0  0
  7  8  1  0  0  0
  8  9  2  0  0  0
 18 14  1  0  0  0
  9  1  1  0  0  0
 21 15  1  0  0  0
  9  4  1  0  0  0
M  END
> <minimizedAffinity>
-7.77723

> <CNNscore>
0.6699898243

> <CNNaffinity>
6.1873445511

> <CNN_VS>
4.1454577446

> <CNNaffinity_variance>
0.5378017426

$$$$
[H]c1nc2c(C(=O)OC3([H])C([H])([H])C4([H])N(C([H])([H])[H])C([H])(C([H])([H])C4([H])[H])C3([H])[H])c([H])n(C([H])([H])C([H])(F)F)c2c([H])c1[H]


 25 28  0  0  0  0  0  0  0  0999 V2000
    4.8100    2.9958   18.9412 C   0  0  0  0  0  0  0  0  0  0  0  0
    5.2204    3.7867   19.9908 C   0  0  0  0  0  0  0  0  0  0  0  0
    4.8341    3.2739   21.1528 N   0  0  0  0  0  0  0  0  0  0  0  0
    4.1598    2.1287   20.8600 C   0  0  0  0  0  0  0  0  0  0  0  0
    3.5586    1.2271   21.7033 C   0  0  0  0  0  0  0  0  0  0  0  0
    2.9381    0.1397   21.1213 C   0  0  0  0  0  0  0  0  0  0  0  0
    2.9330   -0.0172   19.7437 C   0  0  0  0  0  0  0  0  0  0  0  0
    3.5320    0.8840   18.9272 N   0  0  0  0  0  0  0  0  0  0  0  0
    4.1292    1.9315   19.4968 C   0  0  0  0  0  0  0  0  0  0  0  0
    5.0756    3.2840   17.5447 C   0  0  0  0  0  0  0  0  0  0  0  0
    5.9465    4.1362   17.2552 O   0  0  0  0  0  0  0  0  0  0  0  0
    4.4125    2.6622   16.5081 O   0  0  0  0  0  0  0  0  0  0  0  0
    0.6547    4.2502   12.8823 C   0  0  0  0  0  0  0  0  0  0  0  0
    1.5687    3.8606   13.9099 N   0  0  0  0  0  0  0  0  0  0  0  0
    1.7335    2.4361   14.0458 C   0  0  0  0  0  0  0  0  0  0  0  0
    2.6221    2.0262   12.8649 C   0  0  0  0  0  0  0  0  0  0  0  0
    3.3236    3.3019   12.5245 C   0  0  0  0  0  0  0  0  0  0  0  0
    2.9168    4.2840   13.5827 C   0  0  0  0  0  0  0  0  0  0  0  0
    3.8445    4.1390   14.7591 C   0  0  0  0  0  0  0  0  0  0  0  0
    3.3095    3.2354   15.8298 C   0  0  0  0  0  0  0  0  0  0  0  0
    2.4634    2.1114   15.3105 C   0  0  0  0  0  0  0  0  0  0  0  0
    5.0928    3.8412   22.4564 C   0  0  0  0  0  0  0  0  0  0  0  0
    3.9234    4.7545   22.8486 C   0  0  0  0  0  0  0  0  0  0  0  0
    2.9352    4.0218   23.4701 F   0  0  0  0  0  0  0  0  0  0  0  0
    3.3589    5.3098   21.7174 F   0  0  0  0  0  0  0  0  0  0  0  0
 13 14  1  0  0  0
 14 15  1  0  0  0
 15 16  1  0  0  0
 16 17  1  0  0  0
 17 18  1  0  0  0
 18 19  1  0  0  0
 19 20  1  0  0  0
 20 21  1  0  0  0
 20 12  1  0  0  0
 12 10  1  0  0  0
 10 11  2  0  0  0
 10  1  1  0  0  0
  1  2  2  0  0  0
  2  3  1  0  0  0
  3 22  1  0  0  0
 22 23  1  0  0  0
 23 24  1  0  0  0
 23 25  1  0  0  0
  3  4  1  0  0  0
  4  5  2  0  0  0
  5  6  1  0  0  0
  6  7  2  0  0  0
  7  8  1  0  0  0
  8  9  2  0  0  0
 18 14  1  0  0  0
  9  1  1  0  0  0
 21 15  1  0  0  0
  9  4  1  0  0  0
M  END
> <minimizedAffinity>
-8.05632

> <CNNscore>
0.6592120528

> <CNNaffinity>
6.2396087646

> <CNN_VS>
4.1132254601

> <CNNaffinity_variance>
0.4608495235

$$$$
[H]c1nc2c(C(=O)OC3([H])C([H])([H])C4([H])N(C([H])([H])[H])C([H])(C([H])([H])C4([H])[H])C3([H])[H])c([H])n(C([H])([H])C([H])(F)F)c2c([H])c1[H]


 25 28  0  0  0  0  0  0  0  0999 V2000
    3.5262    2.3746   16.1377 C   0  0  0  0  0  0  0  0  0  0  0  0
    3.2131    1.8582   14.9004 C   0  0  0  0  0  0  0  0  0  0  0  0
    3.1178    2.8220   13.9925 N   0  0  0  0  0  0  0  0  0  0  0  0
    3.3725    3.9887   14.6451 C   0  0  0  0  0  0  0  0  0  0  0  0
    3.3990    5.2739   14.1623 C   0  0  0  0  0  0  0  0  0  0  0  0
    3.6900    6.2779   15.0642 C   0  0  0  0  0  0  0  0  0  0  0  0
    3.9414    5.9812   16.3950 C   0  0  0  0  0  0  0  0  0  0  0  0
    3.9105    4.7057   16.8531 N   0  0  0  0  0  0  0  0  0  0  0  0
    3.6289    3.7415   15.9760 C   0  0  0  0  0  0  0  0  0  0  0  0
    3.7001    1.5793   17.3381 C   0  0  0  0  0  0  0  0  0  0  0  0
    3.0219    0.5359   17.4790 O   0  0  0  0  0  0  0  0  0  0  0  0
    4.5824    1.9152   18.3429 O   0  0  0  0  0  0  0  0  0  0  0  0
    4.2410    3.3019   23.6107 C   0  0  0  0  0  0  0  0  0  0  0  0
    4.2397    2.9953   22.2145 N   0  0  0  0  0  0  0  0  0  0  0  0
    5.2404    3.6986   21.4538 C   0  0  0  0  0  0  0  0  0  0  0  0
    6.5590    2.9875   21.7817 C   0  0  0  0  0  0  0  0  0  0  0  0
    6.1004    1.6356   22.2264 C   0  0  0  0  0  0  0  0  0  0  0  0
    4.6187    1.6128   21.9942 C   0  0  0  0  0  0  0  0  0  0  0  0
    4.3584    1.1858   20.5745 C   0  0  0  0  0  0  0  0  0  0  0  0
    4.1756    2.3378   19.6318 C   0  0  0  0  0  0  0  0  0  0  0  0
    4.9847    3.5492   19.9874 C   0  0  0  0  0  0  0  0  0  0  0  0
    2.8043    2.6394   12.5937 C   0  0  0  0  0  0  0  0  0  0  0  0
    1.2833    2.5133   12.4314 C   0  0  0  0  0  0  0  0  0  0  0  0
    0.6401    3.3825   13.2861 F   0  0  0  0  0  0  0  0  0  0  0  0
    0.8765    1.2393   12.7749 F   0  0  0  0  0  0  0  0  0  0  0  0
 13 14  1  0  0  0
 14 15  1  0  0  0
 15 16  1  0  0  0
 16 17  1  0  0  0
 17 18  1  0  0  0
 18 19  1  0  0  0
 19 20  1  0  0  0
 20 21  1  0  0  0
 20 12  1  0  0  0
 12 10  1  0  0  0
 10 11  2  0  0  0
 10  1  1  0  0  0
  1  2  2  0  0  0
  2  3  1  0  0  0
  3 22  1  0  0  0
 22 23  1  0  0  0
 23 24  1  0  0  0
 23 25  1  0  0  0
  3  4  1  0  0  0
  4  5  2  0  0  0
  5  6  1  0  0  0
  6  7  2  0  0  0
  7  8  1  0  0  0
  8  9  2  0  0  0
 18 14  1  0  0  0
  9  1  1  0  0  0
 21 15  1  0  0  0
  9  4  1  0  0  0
M  END
> <minimizedAffinity>
-7.00194

> <CNNscore>
0.6190026999

> <CNNaffinity>
6.3085298538

> <CNN_VS>
3.9049971104

> <CNNaffinity_variance>
0.2338492423

$$$$
[H]c1nc2c(C(=O)OC3([H])C([H])([H])C4([H])N(C([H])([H])[H])C([H])(C([H])([H])C4([H])[H])C3([H])[H])c([H])n(C([H])([H])C([H])(F)F)c2c([H])c1[H]


 25 28  0  0  0  0  0  0  0  0999 V2000
    4.2777    2.2551   19.1057 C   0  0  0  0  0  0  0  0  0  0  0  0
    4.9464    1.6303   20.1344 C   0  0  0  0  0  0  0  0  0  0  0  0
    5.2546    2.4928   21.0953 N   0  0  0  0  0  0  0  0  0  0  0  0
    4.7805    3.7023   20.6900 C   0  0  0  0  0  0  0  0  0  0  0  0
    4.8395    4.9212   21.3195 C   0  0  0  0  0  0  0  0  0  0  0  0
    4.2669    5.9942   20.6660 C   0  0  0  0  0  0  0  0  0  0  0  0
    3.6635    5.8278   19.4288 C   0  0  0  0  0  0  0  0  0  0  0  0
    3.6152    4.6161   18.8228 N   0  0  0  0  0  0  0  0  0  0  0  0
    4.1703    3.5847   19.4603 C   0  0  0  0  0  0  0  0  0  0  0  0
    3.8052    1.5859   17.9088 C   0  0  0  0  0  0  0  0  0  0  0  0
    3.1866    0.5029   18.0225 O   0  0  0  0  0  0  0  0  0  0  0  0
    4.0034    2.0849   16.6389 O   0  0  0  0  0  0  0  0  0  0  0  0
    0.8996    4.5586   12.8925 C   0  0  0  0  0  0  0  0  0  0  0  0
    1.6313    3.9244   13.9439 N   0  0  0  0  0  0  0  0  0  0  0  0
    1.7462    2.4951   13.8056 C   0  0  0  0  0  0  0  0  0  0  0  0
    2.8034    2.2868   12.7144 C   0  0  0  0  0  0  0  0  0  0  0  0
    3.5735    3.5678   12.7556 C   0  0  0  0  0  0  0  0  0  0  0  0
    3.0218    4.3361   13.9198 C   0  0  0  0  0  0  0  0  0  0  0  0
    3.7480    3.9104   15.1677 C   0  0  0  0  0  0  0  0  0  0  0  0
    3.0330    2.8380   15.9345 C   0  0  0  0  0  0  0  0  0  0  0  0
    2.2596    1.8859   15.0718 C   0  0  0  0  0  0  0  0  0  0  0  0
    5.9558    2.1811   22.3198 C   0  0  0  0  0  0  0  0  0  0  0  0
    4.9338    1.9758   23.4463 C   0  0  0  0  0  0  0  0  0  0  0  0
    3.7341    1.5394   22.9266 F   0  0  0  0  0  0  0  0  0  0  0  0
    4.6827    3.1767   24.0798 F   0  0  0  0  0  0  0  0  0  0  0  0
 13 14  1  0  0  0
 14 15  1  0  0  0
 15 16  1  0  0  0
 16 17  1  0  0  0
 17 18  1  0  0  0
 18 19  1  0  0  0
 19 20  1  0  0  0
 20 21  1  0  0  0
 20 12  1  0  0  0
 12 10  1  0  0  0
 10 11  2  0  0  0
 10  1  1  0  0  0
  1  2  2  0  0  0
  2  3  1  0  0  0
  3 22  1  0  0  0
 22 23  1  0  0  0
 23 24  1  0  0  0
 23 25  1  0  0  0
  3  4  1  0  0  0
  4  5  2  0  0  0
  5  6  1  0  0  0
  6  7  2  0  0  0
  7  8  1  0  0  0
  8  9  2  0  0  0
 18 14  1  0  0  0
  9  1  1  0  0  0
 21 15  1  0  0  0
  9  4  1  0  0  0
M  END
> <minimizedAffinity>
-7.44282

> <CNNscore>
0.6080122590

> <CNNaffinity>
6.1539096832

> <CNN_VS>
3.7416524887

> <CNNaffinity_variance>
0.4315759242

$$$$
[H]c1nc2c(C(=O)OC3([H])C([H])([H])C4([H])N(C([H])([H])[H])C([H])(C([H])([H])C4([H])[H])C3([H])[H])c([H])n(C([H])([H])C([H])(F)F)c2c([H])c1[H]


 25 28  0  0  0  0  0  0  0  0999 V2000
    4.6941    2.8434   19.3079 C   0  0  0  0  0  0  0  0  0  0  0  0
    5.4479    3.1608   20.4155 C   0  0  0  0  0  0  0  0  0  0  0  0
    5.3063    2.2450   21.3661 N   0  0  0  0  0  0  0  0  0  0  0  0
    4.4461    1.3126   20.8738 C   0  0  0  0  0  0  0  0  0  0  0  0
    3.9709    0.1647   21.4586 C   0  0  0  0  0  0  0  0  0  0  0  0
    3.0967   -0.6035   20.7158 C   0  0  0  0  0  0  0  0  0  0  0  0
    2.7269   -0.2159   19.4370 C   0  0  0  0  0  0  0  0  0  0  0  0
    3.2066    0.9213   18.8763 N   0  0  0  0  0  0  0  0  0  0  0  0
    4.0504    1.6579   19.6000 C   0  0  0  0  0  0  0  0  0  0  0  0
    4.6334    3.6445   18.1004 C   0  0  0  0  0  0  0  0  0  0  0  0
    4.9628    3.1249   17.0095 O   0  0  0  0  0  0  0  0  0  0  0  0
    4.2277    4.9622   18.0903 O   0  0  0  0  0  0  0  0  0  0  0  0
    6.4401    9.8314   19.1791 C   0  0  0  0  0  0  0  0  0  0  0  0
    5.9420    8.5114   18.9495 N   0  0  0  0  0  0  0  0  0  0  0  0
    4.7663    8.1818   19.7137 C   0  0  0  0  0  0  0  0  0  0  0  0
    3.6190    8.9196   19.0127 C   0  0  0  0  0  0  0  0  0  0  0  0
    4.1520    9.1150   17.6294 C   0  0  0  0  0  0  0  0  0  0  0  0
    5.4573    8.3772   17.5891 C   0  0  0  0  0  0  0  0  0  0  0  0
    5.1889    6.9389   17.2353 C   0  0  0  0  0  0  0  0  0  0  0  0
    5.0748    6.0439   18.4332 C   0  0  0  0  0  0  0  0  0  0  0  0
    4.4879    6.7138   19.6396 C   0  0  0  0  0  0  0  0  0  0  0  0
    5.9511    2.2605   22.6593 C   0  0  0  0  0  0  0  0  0  0  0  0
    4.9433    2.7280   23.7182 C   0  0  0  0  0  0  0  0  0  0  0  0
    4.5450    1.6638   24.4984 F   0  0  0  0  0  0  0  0  0  0  0  0
    3.8090    3.2212   23.1044 F   0  0  0  0  0  0  0  0  0  0  0  0
 13 14  1  0  0  0
 14 15  1  0  0  0
 15 16  1  0  0  0
 16 17  1  0  0  0
 17 18  1  0  0  0
 18 19  1  0  0  0
 19 20  1  0  0  0
 20 21  1  0  0  0
 20 12  1  0  0  0
 12 10  1  0  0  0
 10 11  2  0  0  0
 10  1  1  0  0  0
  1  2  2  0  0  0
  2  3  1  0  0  0
  3 22  1  0  0  0
 22 23  1  0  0  0
 23 24  1  0  0  0
 23 25  1  0  0  0
  3  4  1  0  0  0
  4  5  2  0  0  0
  5  6  1  0  0  0
  6  7  2  0  0  0
  7  8  1  0  0  0
  8  9  2  0  0  0
 18 14  1  0  0  0
  9  1  1  0  0  0
 21 15  1  0  0  0
  9  4  1  0  0  0
M  END
> <minimizedAffinity>
-7.30254

> <CNNscore>
0.5518459082

> <CNNaffinity>
5.9927511215

> <CNN_VS>
3.3070752621

> <CNNaffinity_variance>
0.1509502232

$$$$
[H]c1nc2c(C(=O)OC3([H])C([H])([H])C4([H])N(C([H])([H])[H])C([H])(C([H])([H])C4([H])[H])C3([H])[H])c([H])n(C([H])([H])C([H])(F)F)c2c([H])c1[H]


 25 28  0  0  0  0  0  0  0  0999 V2000
    4.6847    3.5720   18.4677 C   0  0  0  0  0  0  0  0  0  0  0  0
    4.7839    2.9575   19.6959 C   0  0  0  0  0  0  0  0  0  0  0  0
    4.2418    1.7461   19.6672 N   0  0  0  0  0  0  0  0  0  0  0  0
    3.7799    1.5636   18.4002 C   0  0  0  0  0  0  0  0  0  0  0  0
    3.1377    0.4818   17.8500 C   0  0  0  0  0  0  0  0  0  0  0  0
    2.7780    0.5742   16.5203 C   0  0  0  0  0  0  0  0  0  0  0  0
    3.0616    1.7178   15.7894 C   0  0  0  0  0  0  0  0  0  0  0  0
    3.6965    2.7761   16.3504 N   0  0  0  0  0  0  0  0  0  0  0  0
    4.0407    2.6792   17.6350 C   0  0  0  0  0  0  0  0  0  0  0  0
    5.1820    4.9024   18.1740 C   0  0  0  0  0  0  0  0  0  0  0  0
    5.6483    5.5963   19.1066 O   0  0  0  0  0  0  0  0  0  0  0  0
    5.1683    5.4492   16.9084 O   0  0  0  0  0  0  0  0  0  0  0  0
    2.9738    9.8375   14.5175 C   0  0  0  0  0  0  0  0  0  0  0  0
    3.4578    8.6797   15.2020 N   0  0  0  0  0  0  0  0  0  0  0  0
    3.4774    7.4835   14.3997 C   0  0  0  0  0  0  0  0  0  0  0  0
    4.6870    7.6492   13.4717 C   0  0  0  0  0  0  0  0  0  0  0  0
    5.5407    8.6245   14.2172 C   0  0  0  0  0  0  0  0  0  0  0  0
    4.8604    8.8332   15.5376 C   0  0  0  0  0  0  0  0  0  0  0  0
    5.3221    7.7657   16.4932 C   0  0  0  0  0  0  0  0  0  0  0  0
    4.3996    6.5849   16.5555 C   0  0  0  0  0  0  0  0  0  0  0  0
    3.7121    6.2809   15.2579 C   0  0  0  0  0  0  0  0  0  0  0  0
    4.1704    0.8240   20.7777 C   0  0  0  0  0  0  0  0  0  0  0  0
    4.1762    1.6174   22.0914 C   0  0  0  0  0  0  0  0  0  0  0  0
    5.4548    1.6833   22.6018 F   0  0  0  0  0  0  0  0  0  0  0  0
    3.4010    0.9728   23.0349 F   0  0  0  0  0  0  0  0  0  0  0  0
 13 14  1  0  0  0
 14 15  1  0  0  0
 15 16  1  0  0  0
 16 17  1  0  0  0
 17 18  1  0  0  0
 18 19  1  0  0  0
 19 20  1  0  0  0
 20 21  1  0  0  0
 20 12  1  0  0  0
 12 10  1  0  0  0
 10 11  2  0  0  0
 10  1  1  0  0  0
  1  2  2  0  0  0
  2  3  1  0  0  0
  3 22  1  0  0  0
 22 23  1  0  0  0
 23 24  1  0  0  0
 23 25  1  0  0  0
  3  4  1  0  0  0
  4  5  2  0  0  0
  5  6  1  0  0  0
  6  7  2  0  0  0
  7  8  1  0  0  0
  8  9  2  0  0  0
 18 14  1  0  0  0
  9  1  1  0  0  0
 21 15  1  0  0  0
  9  4  1  0  0  0
M  END
> <minimizedAffinity>
-6.82786

> <CNNscore>
0.4538305700

> <CNNaffinity>
5.7281122208

> <CNN_VS>
2.5995924473

> <CNNaffinity_variance>
0.1152016073

$$$$
[H]c1nc2c(C(=O)OC3([H])C([H])([H])C4([H])N(C([H])([H])[H])C([H])(C([H])([H])C4([H])[H])C3([H])[H])c([H])n(C([H])([H])C([H])(F)F)c2c([H])c1[H]


 25 28  0  0  0  0  0  0  0  0999 V2000
    4.0652    2.7116   18.1482 C   0  0  0  0  0  0  0  0  0  0  0  0
    4.4611    1.5648   18.7992 C   0  0  0  0  0  0  0  0  0  0  0  0
    4.6639    1.7964   20.0905 N   0  0  0  0  0  0  0  0  0  0  0  0
    4.3969    3.1159   20.2890 C   0  0  0  0  0  0  0  0  0  0  0  0
    4.4545    3.8566   21.4438 C   0  0  0  0  0  0  0  0  0  0  0  0
    4.1251    5.1941   21.3495 C   0  0  0  0  0  0  0  0  0  0  0  0
    3.7549    5.7464   20.1328 C   0  0  0  0  0  0  0  0  0  0  0  0
    3.7039    4.9989   19.0031 N   0  0  0  0  0  0  0  0  0  0  0  0
    4.0234    3.7080   19.1023 C   0  0  0  0  0  0  0  0  0  0  0  0
    3.7657    2.7881   16.7310 C   0  0  0  0  0  0  0  0  0  0  0  0
    3.5355    1.7305   16.1008 O   0  0  0  0  0  0  0  0  0  0  0  0
    3.7207    3.9767   16.0339 O   0  0  0  0  0  0  0  0  0  0  0  0
    0.9627    6.0140   11.7875 C   0  0  0  0  0  0  0  0  0  0  0  0
    1.6526    5.3821   12.8682 N   0  0  0  0  0  0  0  0  0  0  0  0
    3.0847    5.3492   12.7168 C   0  0  0  0  0  0  0  0  0  0  0  0
    3.5488    6.7766   13.0316 C   0  0  0  0  0  0  0  0  0  0  0  0
    2.4288    7.3084   13.8672 C   0  0  0  0  0  0  0  0  0  0  0  0
    1.5023    6.1500   14.0895 C   0  0  0  0  0  0  0  0  0  0  0  0
    1.9743    5.3773   15.2920 C   0  0  0  0  0  0  0  0  0  0  0  0
    2.8493    4.2106   14.9425 C   0  0  0  0  0  0  0  0  0  0  0  0
    3.6970    4.4291   13.7249 C   0  0  0  0  0  0  0  0  0  0  0  0
    5.0851    0.8206   21.0697 C   0  0  0  0  0  0  0  0  0  0  0  0
    6.5850    0.9970   21.3427 C   0  0  0  0  0  0  0  0  0  0  0  0
    7.2289   -0.2193   21.2652 F   0  0  0  0  0  0  0  0  0  0  0  0
    6.7783    1.4715   22.6249 F   0  0  0  0  0  0  0  0  0  0  0  0
 13 14  1  0  0  0
 14 15  1  0  0  0
 15 16  1  0  0  0
 16 17  1  0  0  0
 17 18  1  0  0  0
 18 19  1  0  0  0
 19 20  1  0  0  0
 20 21  1  0  0  0
 20 12  1  0  0  0
 12 10  1  0  0  0
 10 11  2  0  0  0
 10  1  1  0  0  0
  1  2  2  0  0  0
  2  3  1  0  0  0
  3 22  1  0  0  0
 22 23  1  0  0  0
 23 24  1  0  0  0
 23 25  1  0  0  0
  3  4  1  0  0  0
  4  5  2  0  0  0
  5  6  1  0  0  0
  6  7  2  0  0  0
  7  8  1  0  0  0
  8  9  2  0  0  0
 18 14  1  0  0  0
  9  1  1  0  0  0
 21 15  1  0  0  0
  9  4  1  0  0  0
M  END
> <minimizedAffinity>
-7.09998

> <CNNscore>
0.4202712178

> <CNNaffinity>
5.3548994064

> <CNN_VS>
2.2505099773

> <CNNaffinity_variance>
0.4323452413

$$$$
[H]OC(=O)C([H])([H])[C@@]([H])(C(=O)N([H])[C@]([H])(C(=O)O[H])C([H])([H])c1c([H])c([H])c([H])c([H])c1[H])N([H])C(=O)[C@@]([H])(N([H])[H])C([H])([H])C([H])(C([H])([H])[H])C([H])([H])[H]


 34 34  0  0  0  0  0  0  0  0999 V2000
    4.9333    4.2033   17.7256 C   0  0  0  0  0  0  0  0  0  0  0  0
    3.8744    2.0898   16.9886 C   0  0  0  0  0  0  0  0  0  0  0  0
    4.6257    1.4849   17.7984 O   0  0  0  0  0  0  0  0  0  0  0  0
    3.9829    3.5010   16.9068 N   0  0  0  0  0  0  0  0  0  0  0  0
    3.3773    4.0173   16.2645 H   0  0  0  0  0  0  0  0  0  0  0  0
    2.9229    1.3331   16.1593 C   0  0  0  0  0  0  0  0  0  0  0  0
    2.1753    0.3785   16.9642 N   0  0  0  0  0  0  0  0  0  0  0  0
    2.6602   -0.5446   17.0500 H   0  0  0  0  0  0  0  0  0  0  0  0
    2.1054    0.7355   17.9611 H   0  0  0  0  0  0  0  0  0  0  0  0
    2.0848    2.1405   15.2432 C   0  0  0  0  0  0  0  0  0  0  0  0
    1.2486    1.8929   12.8857 C   0  0  0  0  0  0  0  0  0  0  0  0
    2.4350    2.1464   13.8024 C   0  0  0  0  0  0  0  0  0  0  0  0
    3.3003    3.2650   13.3317 C   0  0  0  0  0  0  0  0  0  0  0  0
    4.4292    4.5531   19.0749 C   0  0  0  0  0  0  0  0  0  0  0  0
    3.1931    4.6498   19.2809 O   0  0  0  0  0  0  0  0  0  0  0  0
    5.2831    4.7909   20.1749 N   0  0  0  0  0  0  0  0  0  0  0  0
    6.3209    4.7287   20.0525 H   0  0  0  0  0  0  0  0  0  0  0  0
    4.7597    5.1291   21.5098 C   0  0  0  0  0  0  0  0  0  0  0  0
    5.2493    6.4944   21.8098 C   0  0  0  0  0  0  0  0  0  0  0  0
    4.4541    7.6289   21.8321 O   0  0  0  0  0  0  0  0  0  0  0  0
    6.4746    6.6819   22.0686 O   0  0  0  0  0  0  0  0  0  0  0  0
    4.5196    8.3856   22.4761 H   0  0  0  0  0  0  0  0  0  0  0  0
    5.2636    4.0631   22.4105 C   0  0  0  0  0  0  0  0  0  0  0  0
    5.0456    2.6775   22.0169 C   0  0  0  0  0  0  0  0  0  0  0  0
    6.0583    1.8571   21.5321 C   0  0  0  0  0  0  0  0  0  0  0  0
    5.8110    0.5539   21.1833 C   0  0  0  0  0  0  0  0  0  0  0  0
    4.5485    0.0134   21.3012 C   0  0  0  0  0  0  0  0  0  0  0  0
    3.4995    0.8056   21.7855 C   0  0  0  0  0  0  0  0  0  0  0  0
    3.7894    2.1211   22.1288 C   0  0  0  0  0  0  0  0  0  0  0  0
    5.5093    5.4041   17.0152 C   0  0  0  0  0  0  0  0  0  0  0  0
    4.5804    6.5305   16.8618 C   0  0  0  0  0  0  0  0  0  0  0  0
    3.2613    6.2487   16.5544 O   0  0  0  0  0  0  0  0  0  0  0  0
    4.9175    7.7250   16.9936 O   0  0  0  0  0  0  0  0  0  0  0  0
    2.5745    6.3884   17.2831 H   0  0  0  0  0  0  0  0  0  0  0  0
 11 12  1  0  0  0
 12 13  1  0  0  0
 12 10  1  0  0  0
 10  6  1  0  0  0
  6  7  1  0  0  0
  6  2  1  0  0  0
  2  3  2  0  0  0
  2  4  1  0  0  0
  4  1  1  0  0  0
  1 30  1  0  0  0
 30 31  1  0  0  0
 31 32  1  0  0  0
 31 33  2  0  0  0
  1 14  1  0  0  0
 14 15  2  0  0  0
 14 16  1  0  0  0
 16 18  1  0  0  0
 18 23  1  0  0  0
 23 24  1  0  0  0
 24 25  2  0  0  0
 25 26  1  0  0  0
 26 27  2  0  0  0
 27 28  1  0  0  0
 28 29  2  0  0  0
 18 19  1  0  0  0
 19 20  1  0  0  0
 19 21  2  0  0  0
 29 24  1  0  0  0
  7  8  1  0  0  0
  7  9  1  0  0  0
  4  5  1  0  0  0
 32 34  1  0  0  0
 16 17  1  0  0  0
 20 22  1  0  0  0
M  END
> <minimizedAffinity>
-7.35588

> <CNNscore>
0.4959385991

> <CNNaffinity>
5.7667427063

> <CNN_VS>
2.8599503040

> <CNNaffinity_variance>
0.2223612070

$$$$
[H]OC(=O)C([H])([H])[C@@]([H])(C(=O)N([H])[C@]([H])(C(=O)O[H])C([H])([H])c1c([H])c([H])c([H])c([H])c1[H])N([H])C(=O)[C@@]([H])(N([H])[H])C([H])([H])C([H])(C([H])([H])[H])C([H])([H])[H]


 34 34  0  0  0  0  0  0  0  0999 V2000
    4.2734    6.9516   19.4450 C   0  0  0  0  0  0  0  0  0  0  0  0
    4.8562    5.1827   21.0769 C   0  0  0  0  0  0  0  0  0  0  0  0
    3.6283    4.9141   21.1545 O   0  0  0  0  0  0  0  0  0  0  0  0
    5.2555    6.2267   20.2046 N   0  0  0  0  0  0  0  0  0  0  0  0
    6.2476    6.4581   20.1155 H   0  0  0  0  0  0  0  0  0  0  0  0
    5.8291    4.4251   21.8802 C   0  0  0  0  0  0  0  0  0  0  0  0
    6.8410    5.3081   22.4410 N   0  0  0  0  0  0  0  0  0  0  0  0
    7.6538    5.4509   21.7979 H   0  0  0  0  0  0  0  0  0  0  0  0
    6.4308    6.2783   22.5701 H   0  0  0  0  0  0  0  0  0  0  0  0
    5.2534    3.4685   22.8532 C   0  0  0  0  0  0  0  0  0  0  0  0
    3.9161    1.4055   22.3297 C   0  0  0  0  0  0  0  0  0  0  0  0
    5.2922    2.0249   22.5166 C   0  0  0  0  0  0  0  0  0  0  0  0
    6.2596    1.6130   21.4601 C   0  0  0  0  0  0  0  0  0  0  0  0
    4.2925    6.6574   17.9923 C   0  0  0  0  0  0  0  0  0  0  0  0
    4.6047    7.5560   17.1709 O   0  0  0  0  0  0  0  0  0  0  0  0
    3.9708    5.3879   17.4625 N   0  0  0  0  0  0  0  0  0  0  0  0
    3.6982    4.6083   18.1057 H   0  0  0  0  0  0  0  0  0  0  0  0
    4.0047    5.1155   16.0152 C   0  0  0  0  0  0  0  0  0  0  0  0
    2.5952    5.1331   15.5603 C   0  0  0  0  0  0  0  0  0  0  0  0
    1.5173    5.4984   16.3506 O   0  0  0  0  0  0  0  0  0  0  0  0
    2.3119    4.7969   14.3729 O   0  0  0  0  0  0  0  0  0  0  0  0
    0.7239    6.0270   16.0628 H   0  0  0  0  0  0  0  0  0  0  0  0
    4.6986    3.8113   15.8775 C   0  0  0  0  0  0  0  0  0  0  0  0
    4.0927    2.6459   16.5077 C   0  0  0  0  0  0  0  0  0  0  0  0
    3.2465    1.7718   15.8342 C   0  0  0  0  0  0  0  0  0  0  0  0
    2.7062    0.6797   16.4637 C   0  0  0  0  0  0  0  0  0  0  0  0
    2.9837    0.4121   17.7871 C   0  0  0  0  0  0  0  0  0  0  0  0
    3.8317    1.2674   18.5026 C   0  0  0  0  0  0  0  0  0  0  0  0
    4.3600    2.3634   17.8302 C   0  0  0  0  0  0  0  0  0  0  0  0
    4.3351    8.4352   19.7160 C   0  0  0  0  0  0  0  0  0  0  0  0
    5.0941    8.8089   20.9158 C   0  0  0  0  0  0  0  0  0  0  0  0
    4.4846    8.6482   22.1474 O   0  0  0  0  0  0  0  0  0  0  0  0
    6.2563    9.2626   20.8828 O   0  0  0  0  0  0  0  0  0  0  0  0
    4.8207    7.8994   22.7378 H   0  0  0  0  0  0  0  0  0  0  0  0
 11 12  1  0  0  0
 12 13  1  0  0  0
 12 10  1  0  0  0
 10  6  1  0  0  0
  6  7  1  0  0  0
  6  2  1  0  0  0
  2  3  2  0  0  0
  2  4  1  0  0  0
  4  1  1  0  0  0
  1 30  1  0  0  0
 30 31  1  0  0  0
 31 32  1  0  0  0
 31 33  2  0  0  0
  1 14  1  0  0  0
 14 15  2  0  0  0
 14 16  1  0  0  0
 16 18  1  0  0  0
 18 23  1  0  0  0
 23 24  1  0  0  0
 24 25  2  0  0  0
 25 26  1  0  0  0
 26 27  2  0  0  0
 27 28  1  0  0  0
 28 29  2  0  0  0
 18 19  1  0  0  0
 19 20  1  0  0  0
 19 21  2  0  0  0
 29 24  1  0  0  0
  7  8  1  0  0  0
  7  9  1  0  0  0
  4  5  1  0  0  0
 32 34  1  0  0  0
 16 17  1  0  0  0
 20 22  1  0  0  0
M  END
> <minimizedAffinity>
-7.71912

> <CNNscore>
0.2956328094

> <CNNaffinity>
5.6055426598

> <CNN_VS>
1.6571823359

> <CNNaffinity_variance>
0.3808699846

$$$$
[H]OC(=O)C([H])([H])[C@@]([H])(C(=O)N([H])[C@]([H])(C(=O)O[H])C([H])([H])c1c([H])c([H])c([H])c([H])c1[H])N([H])C(=O)[C@@]([H])(N([H])[H])C([H])([H])C([H])(C([H])([H])[H])C([H])([H])[H]


 34 34  0  0  0  0  0  0  0  0999 V2000
    3.5968    5.5313   19.0074 C   0  0  0  0  0  0  0  0  0  0  0  0
    4.6140    4.8734   21.1670 C   0  0  0  0  0  0  0  0  0  0  0  0
    3.5315    5.1974   21.7229 O   0  0  0  0  0  0  0  0  0  0  0  0
    4.7097    5.0194   19.7600 N   0  0  0  0  0  0  0  0  0  0  0  0
    5.5744    4.7540   19.2827 H   0  0  0  0  0  0  0  0  0  0  0  0
    5.7343    4.3645   21.9744 C   0  0  0  0  0  0  0  0  0  0  0  0
    6.5539    5.4580   22.4750 N   0  0  0  0  0  0  0  0  0  0  0  0
    7.3097    5.7351   21.8066 H   0  0  0  0  0  0  0  0  0  0  0  0
    5.9566    6.3292   22.5766 H   0  0  0  0  0  0  0  0  0  0  0  0
    5.3822    3.3537   22.9979 C   0  0  0  0  0  0  0  0  0  0  0  0
    3.9489    1.3846   22.3759 C   0  0  0  0  0  0  0  0  0  0  0  0
    5.3528    1.9289   22.5880 C   0  0  0  0  0  0  0  0  0  0  0  0
    6.2978    1.5268   21.5078 C   0  0  0  0  0  0  0  0  0  0  0  0
    3.0295    4.5684   18.0336 C   0  0  0  0  0  0  0  0  0  0  0  0
    2.0421    4.8936   17.3272 O   0  0  0  0  0  0  0  0  0  0  0  0
    3.5501    3.2683   17.8483 N   0  0  0  0  0  0  0  0  0  0  0  0
    4.3682    2.9482   18.4176 H   0  0  0  0  0  0  0  0  0  0  0  0
    2.9754    2.3304   16.8684 C   0  0  0  0  0  0  0  0  0  0  0  0
    2.9493    1.0067   17.5324 C   0  0  0  0  0  0  0  0  0  0  0  0
    3.5144    0.7342   18.7678 O   0  0  0  0  0  0  0  0  0  0  0  0
    2.3814    0.0277   16.9645 O   0  0  0  0  0  0  0  0  0  0  0  0
    3.1346    0.1463   19.4763 H   0  0  0  0  0  0  0  0  0  0  0  0
    3.8524    2.4235   15.6752 C   0  0  0  0  0  0  0  0  0  0  0  0
    3.2241    2.6684   14.3838 C   0  0  0  0  0  0  0  0  0  0  0  0
    2.1945    1.8820   13.8786 C   0  0  0  0  0  0  0  0  0  0  0  0
    1.6235    2.1552   12.6619 C   0  0  0  0  0  0  0  0  0  0  0  0
    2.0523    3.2194   11.8979 C   0  0  0  0  0  0  0  0  0  0  0  0
    3.0871    4.0371   12.3700 C   0  0  0  0  0  0  0  0  0  0  0  0
    3.6403    3.7286   13.6074 C   0  0  0  0  0  0  0  0  0  0  0  0
    3.9168    6.8573   18.3611 C   0  0  0  0  0  0  0  0  0  0  0  0
    4.0394    7.9822   19.2964 C   0  0  0  0  0  0  0  0  0  0  0  0
    3.0233    8.9209   19.3217 O   0  0  0  0  0  0  0  0  0  0  0  0
    5.0091    8.1356   20.0670 O   0  0  0  0  0  0  0  0  0  0  0  0
    2.4140    8.9242   20.1285 H   0  0  0  0  0  0  0  0  0  0  0  0
 11 12  1  0  0  0
 12 13  1  0  0  0
 12 10  1  0  0  0
 10  6  1  0  0  0
  6  7  1  0  0  0
  6  2  1  0  0  0
  2  3  2  0  0  0
  2  4  1  0  0  0
  4  1  1  0  0  0
  1 30  1  0  0  0
 30 31  1  0  0  0
 31 32  1  0  0  0
 31 33  2  0  0  0
  1 14  1  0  0  0
 14 15  2  0  0  0
 14 16  1  0  0  0
 16 18  1  0  0  0
 18 23  1  0  0  0
 23 24  1  0  0  0
 24 25  2  0  0  0
 25 26  1  0  0  0
 26 27  2  0  0  0
 27 28  1  0  0  0
 28 29  2  0  0  0
 18 19  1  0  0  0
 19 20  1  0  0  0
 19 21  2  0  0  0
 29 24  1  0  0  0
  7  8  1  0  0  0
  7  9  1  0  0  0
  4  5  1  0  0  0
 32 34  1  0  0  0
 16 17  1  0  0  0
 20 22  1  0  0  0
M  END
> <minimizedAffinity>
-7.53901

> <CNNscore>
0.2833684385

> <CNNaffinity>
5.3602213860

> <CNN_VS>
1.5189175606

> <CNNaffinity_variance>
0.2083063871

$$$$
[H]OC(=O)C([H])([H])[C@@]([H])(C(=O)N([H])[C@]([H])(C(=O)O[H])C([H])([H])c1c([H])c([H])c([H])c([H])c1[H])N([H])C(=O)[C@@]([H])(N([H])[H])C([H])([H])C([H])(C([H])([H])[H])C([H])([H])[H]


 34 34  0  0  0  0  0  0  0  0999 V2000
    5.5685    6.1499   20.0202 C   0  0  0  0  0  0  0  0  0  0  0  0
    5.4678    6.5764   17.5831 C   0  0  0  0  0  0  0  0  0  0  0  0
    6.4217    5.7653   17.4484 O   0  0  0  0  0  0  0  0  0  0  0  0
    4.9772    6.8159   18.8915 N   0  0  0  0  0  0  0  0  0  0  0  0
    4.1965    7.4625   19.0273 H   0  0  0  0  0  0  0  0  0  0  0  0
    4.8978    7.2470   16.4035 C   0  0  0  0  0  0  0  0  0  0  0  0
    5.9445    7.8466   15.5892 N   0  0  0  0  0  0  0  0  0  0  0  0
    6.1807    8.8210   15.8884 H   0  0  0  0  0  0  0  0  0  0  0  0
    6.8469    7.3032   15.7178 H   0  0  0  0  0  0  0  0  0  0  0  0
    3.9066    6.4611   15.6333 C   0  0  0  0  0  0  0  0  0  0  0  0
    2.3631    4.8648   16.8114 C   0  0  0  0  0  0  0  0  0  0  0  0
    3.6611    5.0573   16.0431 C   0  0  0  0  0  0  0  0  0  0  0  0
    3.8772    4.0121   15.0027 C   0  0  0  0  0  0  0  0  0  0  0  0
    4.7128    5.0987   20.6202 C   0  0  0  0  0  0  0  0  0  0  0  0
    3.4660    5.2503   20.6658 O   0  0  0  0  0  0  0  0  0  0  0  0
    5.2334    3.9012   21.1593 N   0  0  0  0  0  0  0  0  0  0  0  0
    6.2663    3.7311   21.1506 H   0  0  0  0  0  0  0  0  0  0  0  0
    4.3633    2.8658   21.7433 C   0  0  0  0  0  0  0  0  0  0  0  0
    4.5318    2.9671   23.2114 C   0  0  0  0  0  0  0  0  0  0  0  0
    5.4232    2.2111   23.9556 O   0  0  0  0  0  0  0  0  0  0  0  0
    3.8306    3.7895   23.8711 O   0  0  0  0  0  0  0  0  0  0  0  0
    5.9659    2.5263   24.7288 H   0  0  0  0  0  0  0  0  0  0  0  0
    4.8151    1.5877   21.1404 C   0  0  0  0  0  0  0  0  0  0  0  0
    4.1020    1.0959   19.9690 C   0  0  0  0  0  0  0  0  0  0  0  0
    3.1200    0.1136   20.0342 C   0  0  0  0  0  0  0  0  0  0  0  0
    2.4654   -0.3125   18.9069 C   0  0  0  0  0  0  0  0  0  0  0  0
    2.7600    0.2191   17.6697 C   0  0  0  0  0  0  0  0  0  0  0  0
    3.7429    1.2112   17.5595 C   0  0  0  0  0  0  0  0  0  0  0  0
    4.3839    1.6170   18.7243 C   0  0  0  0  0  0  0  0  0  0  0  0
    6.0607    7.1298   21.0574 C   0  0  0  0  0  0  0  0  0  0  0  0
    5.3415    8.4095   21.0829 C   0  0  0  0  0  0  0  0  0  0  0  0
    4.4452    8.6314   22.1132 O   0  0  0  0  0  0  0  0  0  0  0  0
    5.4957    9.3043   20.2266 O   0  0  0  0  0  0  0  0  0  0  0  0
    4.7103    9.3005   22.8234 H   0  0  0  0  0  0  0  0  0  0  0  0
 11 12  1  0  0  0
 12 13  1  0  0  0
 12 10  1  0  0  0
 10  6  1  0  0  0
  6  7  1  0  0  0
  6  2  1  0  0  0
  2  3  2  0  0  0
  2  4  1  0  0  0
  4  1  1  0  0  0
  1 30  1  0  0  0
 30 31  1  0  0  0
 31 32  1  0  0  0
 31 33  2  0  0  0
  1 14  1  0  0  0
 14 15  2  0  0  0
 14 16  1  0  0  0
 16 18  1  0  0  0
 18 23  1  0  0  0
 23 24  1  0  0  0
 24 25  2  0  0  0
 25 26  1  0  0  0
 26 27  2  0  0  0
 27 28  1  0  0  0
 28 29  2  0  0  0
 18 19  1  0  0  0
 19 20  1  0  0  0
 19 21  2  0  0  0
 29 24  1  0  0  0
  7  8  1  0  0  0
  7  9  1  0  0  0
  4  5  1  0  0  0
 32 34  1  0  0  0
 16 17  1  0  0  0
 20 22  1  0  0  0
M  END
> <minimizedAffinity>
-7.42321

> <CNNscore>
0.2417959273

> <CNNaffinity>
5.3630738258

> <CNN_VS>
1.2967693806

> <CNNaffinity_variance>
0.4436183572

$$$$
[H]OC(=O)C([H])([H])[C@@]([H])(C(=O)N([H])[C@]([H])(C(=O)O[H])C([H])([H])c1c([H])c([H])c([H])c([H])c1[H])N([H])C(=O)[C@@]([H])(N([H])[H])C([H])([H])C([H])(C([H])([H])[H])C([H])([H])[H]


 34 34  0  0  0  0  0  0  0  0999 V2000
    5.8901    5.8553   20.9152 C   0  0  0  0  0  0  0  0  0  0  0  0
    4.9658    4.0683   22.3587 C   0  0  0  0  0  0  0  0  0  0  0  0
    4.1845    4.9284   22.8444 O   0  0  0  0  0  0  0  0  0  0  0  0
    5.8721    4.4854   21.3514 N   0  0  0  0  0  0  0  0  0  0  0  0
    6.5103    3.8044   20.9334 H   0  0  0  0  0  0  0  0  0  0  0  0
    4.9242    2.6785   22.8410 C   0  0  0  0  0  0  0  0  0  0  0  0
    4.9971    2.6291   24.2937 N   0  0  0  0  0  0  0  0  0  0  0  0
    5.9812    2.6033   24.6480 H   0  0  0  0  0  0  0  0  0  0  0  0
    4.5925    3.5230   24.6981 H   0  0  0  0  0  0  0  0  0  0  0  0
    3.8614    1.8273   22.2586 C   0  0  0  0  0  0  0  0  0  0  0  0
    5.7478    0.7188   21.0212 C   0  0  0  0  0  0  0  0  0  0  0  0
    4.2447    0.8605   21.2016 C   0  0  0  0  0  0  0  0  0  0  0  0
    3.5375   -0.4515   21.2106 C   0  0  0  0  0  0  0  0  0  0  0  0
    5.4863    6.0466   19.5018 C   0  0  0  0  0  0  0  0  0  0  0  0
    5.8417    7.0785   18.8785 O   0  0  0  0  0  0  0  0  0  0  0  0
    4.7022    5.1083   18.7944 N   0  0  0  0  0  0  0  0  0  0  0  0
    4.3760    4.2357   19.2720 H   0  0  0  0  0  0  0  0  0  0  0  0
    4.3195    5.3151   17.3870 C   0  0  0  0  0  0  0  0  0  0  0  0
    2.8389    5.3509   17.3644 C   0  0  0  0  0  0  0  0  0  0  0  0
    2.0759    5.6693   16.2525 O   0  0  0  0  0  0  0  0  0  0  0  0
    2.1857    5.0788   18.4145 O   0  0  0  0  0  0  0  0  0  0  0  0
    1.2197    5.2405   15.9790 H   0  0  0  0  0  0  0  0  0  0  0  0
    4.9374    4.1899   16.6429 C   0  0  0  0  0  0  0  0  0  0  0  0
    4.2234    2.9205   16.6086 C   0  0  0  0  0  0  0  0  0  0  0  0
    4.2279    2.0175   17.6661 C   0  0  0  0  0  0  0  0  0  0  0  0
    3.5322    0.8376   17.5957 C   0  0  0  0  0  0  0  0  0  0  0  0
    2.8049    0.5068   16.4725 C   0  0  0  0  0  0  0  0  0  0  0  0
    2.7735    1.3886   15.3844 C   0  0  0  0  0  0  0  0  0  0  0  0
    3.4908    2.5743   15.4935 C   0  0  0  0  0  0  0  0  0  0  0  0
    7.2096    6.5240   21.2153 C   0  0  0  0  0  0  0  0  0  0  0  0
    7.4018    6.8991   22.6216 C   0  0  0  0  0  0  0  0  0  0  0  0
    6.2834    6.9802   23.4319 O   0  0  0  0  0  0  0  0  0  0  0  0
    8.5176    7.1480   23.1224 O   0  0  0  0  0  0  0  0  0  0  0  0
    6.1605    6.2570   24.1277 H   0  0  0  0  0  0  0  0  0  0  0  0
 11 12  1  0  0  0
 12 13  1  0  0  0
 12 10  1  0  0  0
 10  6  1  0  0  0
  6  7  1  0  0  0
  6  2  1  0  0  0
  2  3  2  0  0  0
  2  4  1  0  0  0
  4  1  1  0  0  0
  1 30  1  0  0  0
 30 31  1  0  0  0
 31 32  1  0  0  0
 31 33  2  0  0  0
  1 14  1  0  0  0
 14 15  2  0  0  0
 14 16  1  0  0  0
 16 18  1  0  0  0
 18 23  1  0  0  0
 23 24  1  0  0  0
 24 25  2  0  0  0
 25 26  1  0  0  0
 26 27  2  0  0  0
 27 28  1  0  0  0
 28 29  2  0  0  0
 18 19  1  0  0  0
 19 20  1  0  0  0
 19 21  2  0  0  0
 29 24  1  0  0  0
  7  8  1  0  0  0
  7  9  1  0  0  0
  4  5  1  0  0  0
 32 34  1  0  0  0
 16 17  1  0  0  0
 20 22  1  0  0  0
M  END
> <minimizedAffinity>
-7.97873

> <CNNscore>
0.2268927097

> <CNNaffinity>
5.4845104218

> <CNN_VS>
1.2443953753

> <CNNaffinity_variance>
0.4033698440

$$$$
[H]OC(=O)C([H])([H])[C@@]([H])(C(=O)N([H])[C@]([H])(C(=O)O[H])C([H])([H])c1c([H])c([H])c([H])c([H])c1[H])N([H])C(=O)[C@@]([H])(N([H])[H])C([H])([H])C([H])(C([H])([H])[H])C([H])([H])[H]


 34 34  0  0  0  0  0  0  0  0999 V2000
    4.3543    6.8212   17.7748 C   0  0  0  0  0  0  0  0  0  0  0  0
    3.3404    6.2253   15.5957 C   0  0  0  0  0  0  0  0  0  0  0  0
    4.2649    5.3830   15.4481 O   0  0  0  0  0  0  0  0  0  0  0  0
    3.3288    6.9998   16.7832 N   0  0  0  0  0  0  0  0  0  0  0  0
    2.5832    7.6838   16.9322 H   0  0  0  0  0  0  0  0  0  0  0  0
    2.3159    6.3864   14.5515 C   0  0  0  0  0  0  0  0  0  0  0  0
    1.7900    7.7434   14.5433 N   0  0  0  0  0  0  0  0  0  0  0  0
    0.9820    7.8674   15.1963 H   0  0  0  0  0  0  0  0  0  0  0  0
    2.5302    8.4113   14.9069 H   0  0  0  0  0  0  0  0  0  0  0  0
    2.6763    5.8684   13.2117 C   0  0  0  0  0  0  0  0  0  0  0  0
    2.5309    3.3589   13.2067 C   0  0  0  0  0  0  0  0  0  0  0  0
    1.9538    4.6749   12.7093 C   0  0  0  0  0  0  0  0  0  0  0  0
    0.4657    4.7174   12.7819 C   0  0  0  0  0  0  0  0  0  0  0  0
    3.9743    5.9128   18.8828 C   0  0  0  0  0  0  0  0  0  0  0  0
    2.8187    5.4206   18.9267 O   0  0  0  0  0  0  0  0  0  0  0  0
    4.8624    5.5580   19.9226 N   0  0  0  0  0  0  0  0  0  0  0  0
    5.8342    5.9471   19.9338 H   0  0  0  0  0  0  0  0  0  0  0  0
    4.4660    4.6464   21.0097 C   0  0  0  0  0  0  0  0  0  0  0  0
    4.8399    5.3248   22.2722 C   0  0  0  0  0  0  0  0  0  0  0  0
    4.5015    4.8745   23.5382 O   0  0  0  0  0  0  0  0  0  0  0  0
    5.5155    6.3951   22.2365 O   0  0  0  0  0  0  0  0  0  0  0  0
    5.0776    4.9012   24.3500 H   0  0  0  0  0  0  0  0  0  0  0  0
    5.1820    3.3758   20.7371 C   0  0  0  0  0  0  0  0  0  0  0  0
    4.3850    2.1737   20.5317 C   0  0  0  0  0  0  0  0  0  0  0  0
    3.8194    1.4496   21.5755 C   0  0  0  0  0  0  0  0  0  0  0  0
    3.0662    0.3287   21.3362 C   0  0  0  0  0  0  0  0  0  0  0  0
    2.8449   -0.1184   20.0512 C   0  0  0  0  0  0  0  0  0  0  0  0
    3.3964    0.5820   18.9706 C   0  0  0  0  0  0  0  0  0  0  0  0
    4.1534    1.7131   19.2533 C   0  0  0  0  0  0  0  0  0  0  0  0
    4.8770    8.1410   18.2878 C   0  0  0  0  0  0  0  0  0  0  0  0
    3.9932    8.8220   19.2420 C   0  0  0  0  0  0  0  0  0  0  0  0
    4.2283    8.6369   20.5928 O   0  0  0  0  0  0  0  0  0  0  0  0
    3.0441    9.5566   18.8994 O   0  0  0  0  0  0  0  0  0  0  0  0
    4.6128    9.4170   21.1085 H   0  0  0  0  0  0  0  0  0  0  0  0
 11 12  1  0  0  0
 12 13  1  0  0  0
 12 10  1  0  0  0
 10  6  1  0  0  0
  6  7  1  0  0  0
  6  2  1  0  0  0
  2  3  2  0  0  0
  2  4  1  0  0  0
  4  1  1  0  0  0
  1 30  1  0  0  0
 30 31  1  0  0  0
 31 32  1  0  0  0
 31 33  2  0  0  0
  1 14  1  0  0  0
 14 15  2  0  0  0
 14 16  1  0  0  0
 16 18  1  0  0  0
 18 23  1  0  0  0
 23 24  1  0  0  0
 24 25  2  0  0  0
 25 26  1  0  0  0
 26 27  2  0  0  0
 27 28  1  0  0  0
 28 29  2  0  0  0
 18 19  1  0  0  0
 19 20  1  0  0  0
 19 21  2  0  0  0
 29 24  1  0  0  0
  7  8  1  0  0  0
  7  9  1  0  0  0
  4  5  1  0  0  0
 32 34  1  0  0  0
 16 17  1  0  0  0
 20 22  1  0  0  0
M  END
> <minimizedAffinity>
-7.10426

> <CNNscore>
0.2191379964

> <CNNaffinity>
5.2587890625

> <CNN_VS>
1.1524004936

> <CNNaffinity_variance>
0.1469985545

$$$$
[H]OC(=O)C([H])([H])[C@@]([H])(C(=O)N([H])[C@]([H])(C(=O)O[H])C([H])([H])c1c([H])c([H])c([H])c([H])c1[H])N([H])C(=O)[C@@]([H])(N([H])[H])C([H])([H])C([H])(C([H])([H])[H])C([H])([H])[H]


 34 34  0  0  0  0  0  0  0  0999 V2000
    5.4857    5.6786   17.4414 C   0  0  0  0  0  0  0  0  0  0  0  0
    3.7334    5.6327   15.6925 C   0  0  0  0  0  0  0  0  0  0  0  0
    3.0041    6.3025   16.4707 O   0  0  0  0  0  0  0  0  0  0  0  0
    5.0332    5.2809   16.1360 N   0  0  0  0  0  0  0  0  0  0  0  0
    5.6492    4.7459   15.5194 H   0  0  0  0  0  0  0  0  0  0  0  0
    3.2286    5.2347   14.3686 C   0  0  0  0  0  0  0  0  0  0  0  0
    4.3022    5.2168   13.3861 N   0  0  0  0  0  0  0  0  0  0  0  0
    4.4450    6.1460   12.9270 H   0  0  0  0  0  0  0  0  0  0  0  0
    5.2235    5.0168   13.8733 H   0  0  0  0  0  0  0  0  0  0  0  0
    2.3655    4.0315   14.3446 C   0  0  0  0  0  0  0  0  0  0  0  0
    3.1099    1.8038   15.2400 C   0  0  0  0  0  0  0  0  0  0  0  0
    2.9986    2.7265   14.0365 C   0  0  0  0  0  0  0  0  0  0  0  0
    2.5169    2.0247   12.8129 C   0  0  0  0  0  0  0  0  0  0  0  0
    4.8877    4.9014   18.5529 C   0  0  0  0  0  0  0  0  0  0  0  0
    4.2074    3.8732   18.3090 O   0  0  0  0  0  0  0  0  0  0  0  0
    5.0432    5.2604   19.9104 N   0  0  0  0  0  0  0  0  0  0  0  0
    5.5959    6.1124   20.1645 H   0  0  0  0  0  0  0  0  0  0  0  0
    4.4468    4.4682   20.9998 C   0  0  0  0  0  0  0  0  0  0  0  0
    4.2951    5.3939   22.1461 C   0  0  0  0  0  0  0  0  0  0  0  0
    4.2040    6.7723   22.0383 O   0  0  0  0  0  0  0  0  0  0  0  0
    4.2418    4.9342   23.3247 O   0  0  0  0  0  0  0  0  0  0  0  0
    3.6163    7.3709   22.5750 H   0  0  0  0  0  0  0  0  0  0  0  0
    5.3809    3.3364   21.2188 C   0  0  0  0  0  0  0  0  0  0  0  0
    4.8245    1.9907   21.2614 C   0  0  0  0  0  0  0  0  0  0  0  0
    3.5030    1.7254   21.6036 C   0  0  0  0  0  0  0  0  0  0  0  0
    3.0173    0.4429   21.6203 C   0  0  0  0  0  0  0  0  0  0  0  0
    3.8241   -0.6274   21.2986 C   0  0  0  0  0  0  0  0  0  0  0  0
    5.1618   -0.4043   20.9478 C   0  0  0  0  0  0  0  0  0  0  0  0
    5.6172    0.9091   20.9421 C   0  0  0  0  0  0  0  0  0  0  0  0
    5.3421    7.1655   17.6579 C   0  0  0  0  0  0  0  0  0  0  0  0
    6.2841    7.9911   16.8922 C   0  0  0  0  0  0  0  0  0  0  0  0
    7.3619    8.5405   17.5633 O   0  0  0  0  0  0  0  0  0  0  0  0
    6.1636    8.2225   15.6717 O   0  0  0  0  0  0  0  0  0  0  0  0
    8.2752    8.1504   17.3734 H   0  0  0  0  0  0  0  0  0  0  0  0
 11 12  1  0  0  0
 12 13  1  0  0  0
 12 10  1  0  0  0
 10  6  1  0  0  0
  6  7  1  0  0  0
  6  2  1  0  0  0
  2  3  2  0  0  0
  2  4  1  0  0  0
  4  1  1  0  0  0
  1 30  1  0  0  0
 30 31  1  0  0  0
 31 32  1  0  0  0
 31 33  2  0  0  0
  1 14  1  0  0  0
 14 15  2  0  0  0
 14 16  1  0  0  0
 16 18  1  0  0  0
 18 23  1  0  0  0
 23 24  1  0  0  0
 24 25  2  0  0  0
 25 26  1  0  0  0
 26 27  2  0  0  0
 27 28  1  0  0  0
 28 29  2  0  0  0
 18 19  1  0  0  0
 19 20  1  0  0  0
 19 21  2  0  0  0
 29 24  1  0  0  0
  7  8  1  0  0  0
  7  9  1  0  0  0
  4  5  1  0  0  0
 32 34  1  0  0  0
 16 17  1  0  0  0
 20 22  1  0  0  0
M  END
> <minimizedAffinity>
-6.67739

> <CNNscore>
0.2167287916

> <CNNaffinity>
5.3569946289

> <CNN_VS>
1.1610149145

> <CNNaffinity_variance>
0.4339022040

$$$$
[H]OC(=O)C([H])([H])[C@@]([H])(C(=O)N([H])[C@]([H])(C(=O)O[H])C([H])([H])c1c([H])c([H])c([H])c([H])c1[H])N([H])C(=O)[C@@]([H])(N([H])[H])C([H])([H])C([H])(C([H])([H])[H])C([H])([H])[H]


 34 34  0  0  0  0  0  0  0  0999 V2000
    5.2240    7.0735   18.8156 C   0  0  0  0  0  0  0  0  0  0  0  0
    4.3225    5.1153   17.5974 C   0  0  0  0  0  0  0  0  0  0  0  0
    5.4599    4.5848   17.7018 O   0  0  0  0  0  0  0  0  0  0  0  0
    4.1349    6.4039   18.1581 N   0  0  0  0  0  0  0  0  0  0  0  0
    3.2180    6.8527   18.0958 H   0  0  0  0  0  0  0  0  0  0  0  0
    3.2367    4.4019   16.9061 C   0  0  0  0  0  0  0  0  0  0  0  0
    2.0479    5.2353   16.8052 N   0  0  0  0  0  0  0  0  0  0  0  0
    1.4216    5.1482   17.6387 H   0  0  0  0  0  0  0  0  0  0  0  0
    2.3331    6.2574   16.7930 H   0  0  0  0  0  0  0  0  0  0  0  0
    3.6128    3.7277   15.6422 C   0  0  0  0  0  0  0  0  0  0  0  0
    3.5628    1.5592   16.9125 C   0  0  0  0  0  0  0  0  0  0  0  0
    3.4552    2.2553   15.5649 C   0  0  0  0  0  0  0  0  0  0  0  0
    2.3203    1.7491   14.7420 C   0  0  0  0  0  0  0  0  0  0  0  0
    5.3481    6.7564   20.2583 C   0  0  0  0  0  0  0  0  0  0  0  0
    4.8070    7.4988   21.1161 O   0  0  0  0  0  0  0  0  0  0  0  0
    6.0601    5.6347   20.7385 N   0  0  0  0  0  0  0  0  0  0  0  0
    6.5337    4.9896   20.0637 H   0  0  0  0  0  0  0  0  0  0  0  0
    6.1634    5.3339   22.1769 C   0  0  0  0  0  0  0  0  0  0  0  0
    7.0793    6.3499   22.7449 C   0  0  0  0  0  0  0  0  0  0  0  0
    6.6958    7.3561   23.6169 O   0  0  0  0  0  0  0  0  0  0  0  0
    8.3074    6.3341   22.4366 O   0  0  0  0  0  0  0  0  0  0  0  0
    7.2131    7.6911   24.3992 H   0  0  0  0  0  0  0  0  0  0  0  0
    6.6467    3.9331   22.2511 C   0  0  0  0  0  0  0  0  0  0  0  0
    5.6701    2.8645   22.0874 C   0  0  0  0  0  0  0  0  0  0  0  0
    4.4833    2.8027   22.8095 C   0  0  0  0  0  0  0  0  0  0  0  0
    3.5860    1.7837   22.6156 C   0  0  0  0  0  0  0  0  0  0  0  0
    3.8314    0.7851   21.6976 C   0  0  0  0  0  0  0  0  0  0  0  0
    5.0151    0.8096   20.9489 C   0  0  0  0  0  0  0  0  0  0  0  0
    5.8994    1.8584   21.1735 C   0  0  0  0  0  0  0  0  0  0  0  0
    5.1992    8.5627   18.5705 C   0  0  0  0  0  0  0  0  0  0  0  0
    3.8720    9.1132   18.2694 C   0  0  0  0  0  0  0  0  0  0  0  0
    2.9139    9.0838   19.2670 O   0  0  0  0  0  0  0  0  0  0  0  0
    3.5639    9.6044   17.1642 O   0  0  0  0  0  0  0  0  0  0  0  0
    2.6658    9.9637   19.6989 H   0  0  0  0  0  0  0  0  0  0  0  0
 11 12  1  0  0  0
 12 13  1  0  0  0
 12 10  1  0  0  0
 10  6  1  0  0  0
  6  7  1  0  0  0
  6  2  1  0  0  0
  2  3  2  0  0  0
  2  4  1  0  0  0
  4  1  1  0  0  0
  1 30  1  0  0  0
 30 31  1  0  0  0
 31 32  1  0  0  0
 31 33  2  0  0  0
  1 14  1  0  0  0
 14 15  2  0  0  0
 14 16  1  0  0  0
 16 18  1  0  0  0
 18 23  1  0  0  0
 23 24  1  0  0  0
 24 25  2  0  0  0
 25 26  1  0  0  0
 26 27  2  0  0  0
 27 28  1  0  0  0
 28 29  2  0  0  0
 18 19  1  0  0  0
 19 20  1  0  0  0
 19 21  2  0  0  0
 29 24  1  0  0  0
  7  8  1  0  0  0
  7  9  1  0  0  0
  4  5  1  0  0  0
 32 34  1  0  0  0
 16 17  1  0  0  0
 20 22  1  0  0  0
M  END
> <minimizedAffinity>
-7.64573

> <CNNscore>
0.2161913514

> <CNNaffinity>
5.3765649796

> <CNN_VS>
1.1623668671

> <CNNaffinity_variance>
0.4292941689

$$$$
[H]OC(=O)C([H])([H])[C@@]([H])(C(=O)N([H])[C@]([H])(C(=O)O[H])C([H])([H])c1c([H])c([H])c([H])c([H])c1[H])N([H])C(=O)[C@@]([H])(N([H])[H])C([H])([H])C([H])(C([H])([H])[H])C([H])([H])[H]


 34 34  0  0  0  0  0  0  0  0999 V2000
    6.0423    6.0872   22.1694 C   0  0  0  0  0  0  0  0  0  0  0  0
    5.0778    3.8992   22.8131 C   0  0  0  0  0  0  0  0  0  0  0  0
    3.9370    4.4195   22.6955 O   0  0  0  0  0  0  0  0  0  0  0  0
    6.2101    4.7110   22.5501 N   0  0  0  0  0  0  0  0  0  0  0  0
    7.1476    4.3100   22.6287 H   0  0  0  0  0  0  0  0  0  0  0  0
    5.2076    2.4900   23.2168 C   0  0  0  0  0  0  0  0  0  0  0  0
    5.5971    2.3828   24.6150 N   0  0  0  0  0  0  0  0  0  0  0  0
    6.6348    2.3986   24.7476 H   0  0  0  0  0  0  0  0  0  0  0  0
    5.2486    3.2336   25.1449 H   0  0  0  0  0  0  0  0  0  0  0  0
    4.0848    1.6046   22.8312 C   0  0  0  0  0  0  0  0  0  0  0  0
    5.3938    0.5734   20.9493 C   0  0  0  0  0  0  0  0  0  0  0  0
    4.0505    1.0887   21.4415 C   0  0  0  0  0  0  0  0  0  0  0  0
    2.9211    0.1795   21.0960 C   0  0  0  0  0  0  0  0  0  0  0  0
    5.7271    6.2849   20.7345 C   0  0  0  0  0  0  0  0  0  0  0  0
    6.6404    6.2211   19.8735 O   0  0  0  0  0  0  0  0  0  0  0  0
    4.4208    6.5484   20.2654 N   0  0  0  0  0  0  0  0  0  0  0  0
    3.6269    6.6173   20.9443 H   0  0  0  0  0  0  0  0  0  0  0  0
    4.1290    6.7332   18.8334 C   0  0  0  0  0  0  0  0  0  0  0  0
    3.8176    8.1708   18.6593 C   0  0  0  0  0  0  0  0  0  0  0  0
    3.1150    8.9404   19.5726 O   0  0  0  0  0  0  0  0  0  0  0  0
    4.2014    8.7771   17.6161 O   0  0  0  0  0  0  0  0  0  0  0  0
    3.3038    9.8866   19.8192 H   0  0  0  0  0  0  0  0  0  0  0  0
    3.0119    5.8026   18.5373 C   0  0  0  0  0  0  0  0  0  0  0  0
    3.3341    4.5264   17.9129 C   0  0  0  0  0  0  0  0  0  0  0  0
    4.1754    3.5857   18.4969 C   0  0  0  0  0  0  0  0  0  0  0  0
    4.4431    2.3911   17.8787 C   0  0  0  0  0  0  0  0  0  0  0  0
    3.8869    2.0829   16.6557 C   0  0  0  0  0  0  0  0  0  0  0  0
    3.0335    3.0026   16.0326 C   0  0  0  0  0  0  0  0  0  0  0  0
    2.7861    4.2020   16.6903 C   0  0  0  0  0  0  0  0  0  0  0  0
    7.2087    6.9387   22.6082 C   0  0  0  0  0  0  0  0  0  0  0  0
    8.5205    6.2899   22.4918 C   0  0  0  0  0  0  0  0  0  0  0  0
    9.2020    6.4109   21.2939 O   0  0  0  0  0  0  0  0  0  0  0  0
    9.0509    5.6370   23.4138 O   0  0  0  0  0  0  0  0  0  0  0  0
   10.0176    7.0083   21.2818 H   0  0  0  0  0  0  0  0  0  0  0  0
 11 12  1  0  0  0
 12 13  1  0  0  0
 12 10  1  0  0  0
 10  6  1  0  0  0
  6  7  1  0  0  0
  6  2  1  0  0  0
  2  3  2  0  0  0
  2  4  1  0  0  0
  4  1  1  0  0  0
  1 30  1  0  0  0
 30 31  1  0  0  0
 31 32  1  0  0  0
 31 33  2  0  0  0
  1 14  1  0  0  0
 14 15  2  0  0  0
 14 16  1  0  0  0
 16 18  1  0  0  0
 18 23  1  0  0  0
 23 24  1  0  0  0
 24 25  2  0  0  0
 25 26  1  0  0  0
 26 27  2  0  0  0
 27 28  1  0  0  0
 28 29  2  0  0  0
 18 19  1  0  0  0
 19 20  1  0  0  0
 19 21  2  0  0  0
 29 24  1  0  0  0
  7  8  1  0  0  0
  7  9  1  0  0  0
  4  5  1  0  0  0
 32 34  1  0  0  0
 16 17  1  0  0  0
 20 22  1  0  0  0
M  END
> <minimizedAffinity>
-7.48788

> <CNNscore>
0.2089001983

> <CNNaffinity>
5.4316816330

> <CNN_VS>
1.1346793175

> <CNNaffinity_variance>
0.3406618834

$$$$
[H]c1nc(N([H])c2c([H])c([H])c([N+](=O)[O-])c([H])c2OC([H])([H])[H])nc(N([H])c2c([H])c([H])c([H])c([H])c2S(=O)(=O)C([H])(C([H])([H])[H])C([H])([H])[H])c1Cl


 34 36  0  0  0  0  0  0  0  0999 V2000
    3.1764    1.1074   16.7869 C   0  0  0  0  0  0  0  0  0  0  0  0
    2.4332    0.1011   17.2234 N   0  0  0  0  0  0  0  0  0  0  0  0
    2.4153   -0.3323   18.4904 C   0  0  0  0  0  0  0  0  0  0  0  0
    3.2106    0.2927   19.4106 C   0  0  0  0  0  0  0  0  0  0  0  0
    3.1852   -0.2753   21.0640 Cl  0  0  0  0  0  0  0  0  0  0  0  0
    4.0185    1.3623   19.0103 C   0  0  0  0  0  0  0  0  0  0  0  0
    3.9561    1.7041   17.7379 N   0  0  0  0  0  0  0  0  0  0  0  0
    3.2306    1.6050   15.4527 N   0  0  0  0  0  0  0  0  0  0  0  0
    3.3920    0.8944   14.6713 H   0  0  0  0  0  0  0  0  0  0  0  0
    2.0416    3.2620   14.1977 C   0  0  0  0  0  0  0  0  0  0  0  0
    1.8211    4.5529   13.7714 C   0  0  0  0  0  0  0  0  0  0  0  0
    2.5985    5.6007   14.1725 C   0  0  0  0  0  0  0  0  0  0  0  0
    3.6231    5.3199   15.0282 C   0  0  0  0  0  0  0  0  0  0  0  0
    3.8513    4.0107   15.4641 C   0  0  0  0  0  0  0  0  0  0  0  0
    3.0904    2.9461   15.0792 C   0  0  0  0  0  0  0  0  0  0  0  0
    2.3085    6.8987   13.6904 N   0  0  0  0  0  0  0  0  0  0  0  0
    1.0684    7.4450   13.8580 O   0  0  0  0  0  0  0  0  0  0  0  0
    3.1741    7.5733   13.1030 O   0  0  0  0  0  0  0  0  0  0  0  0
    1.1883    1.8399   12.4192 C   0  0  0  0  0  0  0  0  0  0  0  0
    1.2295    2.2267   13.7670 O   0  0  0  0  0  0  0  0  0  0  0  0
    4.8345    1.9904   19.9808 N   0  0  0  0  0  0  0  0  0  0  0  0
    5.8826    1.9065   19.7694 H   0  0  0  0  0  0  0  0  0  0  0  0
    4.5019    2.6770   21.1415 C   0  0  0  0  0  0  0  0  0  0  0  0
    4.3988    2.0979   22.3793 C   0  0  0  0  0  0  0  0  0  0  0  0
    4.0723    2.8276   23.5390 C   0  0  0  0  0  0  0  0  0  0  0  0
    3.8436    4.1755   23.4513 C   0  0  0  0  0  0  0  0  0  0  0  0
    3.9416    4.7776   22.2174 C   0  0  0  0  0  0  0  0  0  0  0  0
    4.2619    4.0483   21.0924 C   0  0  0  0  0  0  0  0  0  0  0  0
    4.3552    4.8780   19.5884 S   0  0  0  0  0  0  0  0  0  0  0  0
    5.5627    4.5151   18.7741 O   0  0  0  0  0  0  0  0  0  0  0  0
    3.1423    4.6462   18.6996 O   0  0  0  0  0  0  0  0  0  0  0  0
    4.5312    6.6590   19.8352 C   0  0  0  0  0  0  0  0  0  0  0  0
    6.0522    6.8876   19.7632 C   0  0  0  0  0  0  0  0  0  0  0  0
    3.8694    7.4535   18.7677 C   0  0  0  0  0  0  0  0  0  0  0  0
 19 20  1  0  0  0
 20 10  1  0  0  0
 10 11  2  0  0  0
 11 12  1  0  0  0
 12 13  2  0  0  0
 13 14  1  0  0  0
 14 15  2  0  0  0
 15  8  1  0  0  0
  8  1  1  0  0  0
  1  2  2  0  0  0
  2  3  1  0  0  0
  3  4  2  0  0  0
  4  5  1  0  0  0
  4  6  1  0  0  0
  6 21  1  0  0  0
 21 23  1  0  0  0
 23 24  2  0  0  0
 24 25  1  0  0  0
 25 26  2  0  0  0
 26 27  1  0  0  0
 27 28  2  0  0  0
 28 29  1  0  0  0
 29 30  2  0  0  0
 29 31  2  0  0  0
 29 32  1  0  0  0
 32 33  1  0  0  0
 32 34  1  0  0  0
  6  7  2  0  0  0
 12 16  1  0  0  0
 16 17  1  0  0  0
 16 18  2  0  0  0
 15 10  1  0  0  0
  7  1  1  0  0  0
 28 23  1  0  0  0
  8  9  1  0  0  0
 21 22  1  0  0  0
M  CHG 1  16   1
M  CHG 1  17  -1
M  END
> <minimizedAffinity>
-8.34910

> <CNNscore>
0.8132787347

> <CNNaffinity>
7.4604096413

> <CNN_VS>
6.0673923492

> <CNNaffinity_variance>
0.2458370179

$$$$
[H]c1nc(N([H])c2c([H])c([H])c([N+](=O)[O-])c([H])c2OC([H])([H])[H])nc(N([H])c2c([H])c([H])c([H])c([H])c2S(=O)(=O)C([H])(C([H])([H])[H])C([H])([H])[H])c1Cl


 34 36  0  0  0  0  0  0  0  0999 V2000
    3.4457    2.0373   16.0026 C   0  0  0  0  0  0  0  0  0  0  0  0
    3.0614    0.7796   16.1632 N   0  0  0  0  0  0  0  0  0  0  0  0
    2.9841    0.1572   17.3465 C   0  0  0  0  0  0  0  0  0  0  0  0
    3.3202    0.8495   18.4769 C   0  0  0  0  0  0  0  0  0  0  0  0
    3.2184    0.0345   20.0203 Cl  0  0  0  0  0  0  0  0  0  0  0  0
    3.7341    2.1816   18.3719 C   0  0  0  0  0  0  0  0  0  0  0  0
    3.7727    2.6928   17.1566 N   0  0  0  0  0  0  0  0  0  0  0  0
    3.5443    2.7428   14.7683 N   0  0  0  0  0  0  0  0  0  0  0  0
    4.5210    2.8711   14.3545 H   0  0  0  0  0  0  0  0  0  0  0  0
    2.1653    4.6367   14.2727 C   0  0  0  0  0  0  0  0  0  0  0  0
    1.1267    5.2590   13.6162 C   0  0  0  0  0  0  0  0  0  0  0  0
    0.3322    4.6080   12.7172 C   0  0  0  0  0  0  0  0  0  0  0  0
    0.6078    3.2921   12.4860 C   0  0  0  0  0  0  0  0  0  0  0  0
    1.6613    2.6556   13.1500 C   0  0  0  0  0  0  0  0  0  0  0  0
    2.4699    3.2819   14.0523 C   0  0  0  0  0  0  0  0  0  0  0  0
   -0.7155    5.3164   12.0834 N   0  0  0  0  0  0  0  0  0  0  0  0
   -0.4640    6.4708   11.3991 O   0  0  0  0  0  0  0  0  0  0  0  0
   -1.8896    4.9060   12.1335 O   0  0  0  0  0  0  0  0  0  0  0  0
    3.6586    6.4820   14.8002 C   0  0  0  0  0  0  0  0  0  0  0  0
    2.9481    5.3330   15.1779 O   0  0  0  0  0  0  0  0  0  0  0  0
    4.0792    2.8752   19.5559 N   0  0  0  0  0  0  0  0  0  0  0  0
    4.2255    2.2268   20.3977 H   0  0  0  0  0  0  0  0  0  0  0  0
    4.2483    4.2324   19.7981 C   0  0  0  0  0  0  0  0  0  0  0  0
    3.6783    5.2280   19.0485 C   0  0  0  0  0  0  0  0  0  0  0  0
    3.8603    6.5959   19.3309 C   0  0  0  0  0  0  0  0  0  0  0  0
    4.6360    6.9723   20.3954 C   0  0  0  0  0  0  0  0  0  0  0  0
    5.2184    5.9884   21.1618 C   0  0  0  0  0  0  0  0  0  0  0  0
    5.0302    4.6541   20.8712 C   0  0  0  0  0  0  0  0  0  0  0  0
    5.8014    3.4896   21.8752 S   0  0  0  0  0  0  0  0  0  0  0  0
    6.0977    2.1942   21.1773 O   0  0  0  0  0  0  0  0  0  0  0  0
    7.1162    3.9809   22.4622 O   0  0  0  0  0  0  0  0  0  0  0  0
    4.7309    2.9970   23.2446 C   0  0  0  0  0  0  0  0  0  0  0  0
    3.7113    4.1468   23.3408 C   0  0  0  0  0  0  0  0  0  0  0  0
    4.0070    1.7268   22.9777 C   0  0  0  0  0  0  0  0  0  0  0  0
 19 20  1  0  0  0
 20 10  1  0  0  0
 10 11  2  0  0  0
 11 12  1  0  0  0
 12 13  2  0  0  0
 13 14  1  0  0  0
 14 15  2  0  0  0
 15  8  1  0  0  0
  8  1  1  0  0  0
  1  2  2  0  0  0
  2  3  1  0  0  0
  3  4  2  0  0  0
  4  5  1  0  0  0
  4  6  1  0  0  0
  6 21  1  0  0  0
 21 23  1  0  0  0
 23 24  2  0  0  0
 24 25  1  0  0  0
 25 26  2  0  0  0
 26 27  1  0  0  0
 27 28  2  0  0  0
 28 29  1  0  0  0
 29 30  2  0  0  0
 29 31  2  0  0  0
 29 32  1  0  0  0
 32 33  1  0  0  0
 32 34  1  0  0  0
  6  7  2  0  0  0
 12 16  1  0  0  0
 16 17  1  0  0  0
 16 18  2  0  0  0
 15 10  1  0  0  0
  7  1  1  0  0  0
 28 23  1  0  0  0
  8  9  1  0  0  0
 21 22  1  0  0  0
M  CHG 1  16   1
M  CHG 1  17  -1
M  END
> <minimizedAffinity>
-7.73743

> <CNNscore>
0.4200503528

> <CNNaffinity>
6.9220075607

> <CNN_VS>
2.9075918198

> <CNNaffinity_variance>
0.4047869742

$$$$
[H]c1nc(N([H])c2c([H])c([H])c([N+](=O)[O-])c([H])c2OC([H])([H])[H])nc(N([H])c2c([H])c([H])c([H])c([H])c2S(=O)(=O)C([H])(C([H])([H])[H])C([H])([H])[H])c1Cl


 34 36  0  0  0  0  0  0  0  0999 V2000
    4.5640    2.0869   19.6747 C   0  0  0  0  0  0  0  0  0  0  0  0
    3.9934    1.4959   20.7141 N   0  0  0  0  0  0  0  0  0  0  0  0
    3.8190    2.0721   21.9105 C   0  0  0  0  0  0  0  0  0  0  0  0
    4.2524    3.3564   22.0913 C   0  0  0  0  0  0  0  0  0  0  0  0
    4.0235    4.1061   23.6542 Cl  0  0  0  0  0  0  0  0  0  0  0  0
    4.8633    4.0336   21.0306 C   0  0  0  0  0  0  0  0  0  0  0  0
    4.9827    3.3688   19.8976 N   0  0  0  0  0  0  0  0  0  0  0  0
    4.7722    1.5181   18.3848 N   0  0  0  0  0  0  0  0  0  0  0  0
    5.5101    0.7499   18.3018 H   0  0  0  0  0  0  0  0  0  0  0  0
    3.1557    0.9636   16.7073 C   0  0  0  0  0  0  0  0  0  0  0  0
    2.4353    1.2283   15.5637 C   0  0  0  0  0  0  0  0  0  0  0  0
    2.5807    2.3868   14.8568 C   0  0  0  0  0  0  0  0  0  0  0  0
    3.4831    3.2931   15.3316 C   0  0  0  0  0  0  0  0  0  0  0  0
    4.2172    3.0292   16.4924 C   0  0  0  0  0  0  0  0  0  0  0  0
    4.0916    1.8806   17.2173 C   0  0  0  0  0  0  0  0  0  0  0  0
    1.8041    2.5854   13.6911 N   0  0  0  0  0  0  0  0  0  0  0  0
    1.7550    3.8076   13.0845 O   0  0  0  0  0  0  0  0  0  0  0  0
    1.1480    1.6534   13.1908 O   0  0  0  0  0  0  0  0  0  0  0  0
    1.9904   -0.3593   18.3823 C   0  0  0  0  0  0  0  0  0  0  0  0
    2.9784   -0.2245   17.3956 O   0  0  0  0  0  0  0  0  0  0  0  0
    5.3055    5.3606   21.2440 N   0  0  0  0  0  0  0  0  0  0  0  0
    4.5028    6.0702   21.2946 H   0  0  0  0  0  0  0  0  0  0  0  0
    6.5856    5.8802   21.3883 C   0  0  0  0  0  0  0  0  0  0  0  0
    7.5133    5.4123   22.2818 C   0  0  0  0  0  0  0  0  0  0  0  0
    8.8085    5.9548   22.3923 C   0  0  0  0  0  0  0  0  0  0  0  0
    9.1803    6.9953   21.5824 C   0  0  0  0  0  0  0  0  0  0  0  0
    8.2639    7.4810   20.6776 C   0  0  0  0  0  0  0  0  0  0  0  0
    7.0002    6.9386   20.5829 C   0  0  0  0  0  0  0  0  0  0  0  0
    5.9140    7.6112   19.4309 S   0  0  0  0  0  0  0  0  0  0  0  0
    6.5471    8.6309   18.5298 O   0  0  0  0  0  0  0  0  0  0  0  0
    5.2750    6.5663   18.5282 O   0  0  0  0  0  0  0  0  0  0  0  0
    4.5876    8.5300   20.2433 C   0  0  0  0  0  0  0  0  0  0  0  0
    5.3240    9.3737   21.3001 C   0  0  0  0  0  0  0  0  0  0  0  0
    3.8664    9.4377   19.3133 C   0  0  0  0  0  0  0  0  0  0  0  0
 19 20  1  0  0  0
 20 10  1  0  0  0
 10 11  2  0  0  0
 11 12  1  0  0  0
 12 13  2  0  0  0
 13 14  1  0  0  0
 14 15  2  0  0  0
 15  8  1  0  0  0
  8  1  1  0  0  0
  1  2  2  0  0  0
  2  3  1  0  0  0
  3  4  2  0  0  0
  4  5  1  0  0  0
  4  6  1  0  0  0
  6 21  1  0  0  0
 21 23  1  0  0  0
 23 24  2  0  0  0
 24 25  1  0  0  0
 25 26  2  0  0  0
 26 27  1  0  0  0
 27 28  2  0  0  0
 28 29  1  0  0  0
 29 30  2  0  0  0
 29 31  2  0  0  0
 29 32  1  0  0  0
 32 33  1  0  0  0
 32 34  1  0  0  0
  6  7  2  0  0  0
 12 16  1  0  0  0
 16 17  1  0  0  0
 16 18  2  0  0  0
 15 10  1  0  0  0
  7  1  1  0  0  0
 28 23  1  0  0  0
  8  9  1  0  0  0
 21 22  1  0  0  0
M  CHG 1  16   1
M  CHG 1  17  -1
M  END
> <minimizedAffinity>
-8.46359

> <CNNscore>
0.3155348599

> <CNNaffinity>
6.6404352188

> <CNN_VS>
2.0952887535

> <CNNaffinity_variance>
0.2760108113

$$$$
[H]c1nc(N([H])c2c([H])c([H])c([N+](=O)[O-])c([H])c2OC([H])([H])[H])nc(N([H])c2c([H])c([H])c([H])c([H])c2S(=O)(=O)C([H])(C([H])([H])[H])C([H])([H])[H])c1Cl


 34 36  0  0  0  0  0  0  0  0999 V2000
    4.5411    7.4256   19.7822 C   0  0  0  0  0  0  0  0  0  0  0  0
    4.4262    8.2532   18.7540 N   0  0  0  0  0  0  0  0  0  0  0  0
    5.3179    9.2031   18.4440 C   0  0  0  0  0  0  0  0  0  0  0  0
    6.4284    9.3443   19.2294 C   0  0  0  0  0  0  0  0  0  0  0  0
    7.5908   10.5852   18.8224 Cl  0  0  0  0  0  0  0  0  0  0  0  0
    6.6060    8.4996   20.3303 C   0  0  0  0  0  0  0  0  0  0  0  0
    5.6644    7.6002   20.5411 N   0  0  0  0  0  0  0  0  0  0  0  0
    3.6224    6.4012   20.1529 N   0  0  0  0  0  0  0  0  0  0  0  0
    2.6611    6.7092   20.5032 H   0  0  0  0  0  0  0  0  0  0  0  0
    3.9664    4.3388   21.3200 C   0  0  0  0  0  0  0  0  0  0  0  0
    4.2104    2.9843   21.3702 C   0  0  0  0  0  0  0  0  0  0  0  0
    4.3758    2.2266   20.2469 C   0  0  0  0  0  0  0  0  0  0  0  0
    4.2894    2.8704   19.0472 C   0  0  0  0  0  0  0  0  0  0  0  0
    4.0418    4.2457   18.9909 C   0  0  0  0  0  0  0  0  0  0  0  0
    3.8728    5.0258   20.0969 C   0  0  0  0  0  0  0  0  0  0  0  0
    4.6235    0.8403   20.3805 N   0  0  0  0  0  0  0  0  0  0  0  0
    5.8060    0.3882   20.8920 O   0  0  0  0  0  0  0  0  0  0  0  0
    3.7719    0.0002   20.0362 O   0  0  0  0  0  0  0  0  0  0  0  0
    3.8776    4.4663   23.7468 C   0  0  0  0  0  0  0  0  0  0  0  0
    3.8045    5.0717   22.4835 O   0  0  0  0  0  0  0  0  0  0  0  0
    7.7618    8.6677   21.1290 N   0  0  0  0  0  0  0  0  0  0  0  0
    7.7798    9.6028   21.6540 H   0  0  0  0  0  0  0  0  0  0  0  0
    8.8558    7.8362   21.3315 C   0  0  0  0  0  0  0  0  0  0  0  0
    9.4290    7.0622   20.3567 C   0  0  0  0  0  0  0  0  0  0  0  0
   10.5476    6.2396   20.5940 C   0  0  0  0  0  0  0  0  0  0  0  0
   11.1042    6.1946   21.8450 C   0  0  0  0  0  0  0  0  0  0  0  0
   10.5441    6.9641   22.8393 C   0  0  0  0  0  0  0  0  0  0  0  0
    9.4491    7.7634   22.5898 C   0  0  0  0  0  0  0  0  0  0  0  0
    8.8065    8.6865   23.8913 S   0  0  0  0  0  0  0  0  0  0  0  0
    8.6235   10.1403   23.5661 O   0  0  0  0  0  0  0  0  0  0  0  0
    7.4600    8.1751   24.3816 O   0  0  0  0  0  0  0  0  0  0  0  0
    9.9390    8.7072   25.2986 C   0  0  0  0  0  0  0  0  0  0  0  0
    9.7257   10.1013   25.9167 C   0  0  0  0  0  0  0  0  0  0  0  0
    9.6120    7.6710   26.3126 C   0  0  0  0  0  0  0  0  0  0  0  0
 19 20  1  0  0  0
 20 10  1  0  0  0
 10 11  2  0  0  0
 11 12  1  0  0  0
 12 13  2  0  0  0
 13 14  1  0  0  0
 14 15  2  0  0  0
 15  8  1  0  0  0
  8  1  1  0  0  0
  1  2  2  0  0  0
  2  3  1  0  0  0
  3  4  2  0  0  0
  4  5  1  0  0  0
  4  6  1  0  0  0
  6 21  1  0  0  0
 21 23  1  0  0  0
 23 24  2  0  0  0
 24 25  1  0  0  0
 25 26  2  0  0  0
 26 27  1  0  0  0
 27 28  2  0  0  0
 28 29  1  0  0  0
 29 30  2  0  0  0
 29 31  2  0  0  0
 29 32  1  0  0  0
 32 33  1  0  0  0
 32 34  1  0  0  0
  6  7  2  0  0  0
 12 16  1  0  0  0
 16 17  1  0  0  0
 16 18  2  0  0  0
 15 10  1  0  0  0
  7  1  1  0  0  0
 28 23  1  0  0  0
  8  9  1  0  0  0
 21 22  1  0  0  0
M  CHG 1  16   1
M  CHG 1  17  -1
M  END
> <minimizedAffinity>
-7.01135

> <CNNscore>
0.2823525369

> <CNNaffinity>
6.0919742584

> <CNN_VS>
1.7200844288

> <CNNaffinity_variance>
0.4281609654

$$$$
[H]c1nc(N([H])c2c([H])c([H])c([N+](=O)[O-])c([H])c2OC([H])([H])[H])nc(N([H])c2c([H])c([H])c([H])c([H])c2S(=O)(=O)C([H])(C([H])([H])[H])C([H])([H])[H])c1Cl


 34 36  0  0  0  0  0  0  0  0999 V2000
    4.4740    2.0082   19.7871 C   0  0  0  0  0  0  0  0  0  0  0  0
    3.8662    1.6177   20.8977 N   0  0  0  0  0  0  0  0  0  0  0  0
    3.7692    2.3600   22.0082 C   0  0  0  0  0  0  0  0  0  0  0  0
    4.3286    3.6078   22.0162 C   0  0  0  0  0  0  0  0  0  0  0  0
    4.2004    4.5746   23.4673 Cl  0  0  0  0  0  0  0  0  0  0  0  0
    4.9845    4.0765   20.8730 C   0  0  0  0  0  0  0  0  0  0  0  0
    5.0193    3.2606   19.8372 N   0  0  0  0  0  0  0  0  0  0  0  0
    4.6038    1.2576   18.5827 N   0  0  0  0  0  0  0  0  0  0  0  0
    5.1579    0.3453   18.6318 H   0  0  0  0  0  0  0  0  0  0  0  0
    3.1298    0.7358   16.7691 C   0  0  0  0  0  0  0  0  0  0  0  0
    2.5447    0.9982   15.5502 C   0  0  0  0  0  0  0  0  0  0  0  0
    2.8328    2.1175   14.8240 C   0  0  0  0  0  0  0  0  0  0  0  0
    3.7394    2.9859   15.3578 C   0  0  0  0  0  0  0  0  0  0  0  0
    4.3364    2.7241   16.5951 C   0  0  0  0  0  0  0  0  0  0  0  0
    4.0668    1.6143   17.3409 C   0  0  0  0  0  0  0  0  0  0  0  0
    2.1899    2.3165   13.5797 N   0  0  0  0  0  0  0  0  0  0  0  0
    0.9809    1.7384   13.3179 O   0  0  0  0  0  0  0  0  0  0  0  0
    2.7088    3.0216   12.6948 O   0  0  0  0  0  0  0  0  0  0  0  0
    1.8736   -0.3929   18.5188 C   0  0  0  0  0  0  0  0  0  0  0  0
    2.8100   -0.4118   17.4745 O   0  0  0  0  0  0  0  0  0  0  0  0
    5.5576    5.3698   20.9076 N   0  0  0  0  0  0  0  0  0  0  0  0
    6.4760    5.4099   21.4600 H   0  0  0  0  0  0  0  0  0  0  0  0
    5.1261    6.5703   20.3582 C   0  0  0  0  0  0  0  0  0  0  0  0
    4.0695    6.6890   19.4936 C   0  0  0  0  0  0  0  0  0  0  0  0
    3.6502    7.9256   18.9654 C   0  0  0  0  0  0  0  0  0  0  0  0
    4.3111    9.0731   19.3163 C   0  0  0  0  0  0  0  0  0  0  0  0
    5.3757    8.9768   20.1835 C   0  0  0  0  0  0  0  0  0  0  0  0
    5.7731    7.7583   20.6908 C   0  0  0  0  0  0  0  0  0  0  0  0
    7.1187    7.7267   21.7619 S   0  0  0  0  0  0  0  0  0  0  0  0
    6.7868    7.2095   23.1313 O   0  0  0  0  0  0  0  0  0  0  0  0
    8.2764    6.8853   21.2454 O   0  0  0  0  0  0  0  0  0  0  0  0
    7.7405    9.3931   22.0784 C   0  0  0  0  0  0  0  0  0  0  0  0
    7.0800    9.7801   23.4144 C   0  0  0  0  0  0  0  0  0  0  0  0
    9.2177    9.4329   22.2373 C   0  0  0  0  0  0  0  0  0  0  0  0
 19 20  1  0  0  0
 20 10  1  0  0  0
 10 11  2  0  0  0
 11 12  1  0  0  0
 12 13  2  0  0  0
 13 14  1  0  0  0
 14 15  2  0  0  0
 15  8  1  0  0  0
  8  1  1  0  0  0
  1  2  2  0  0  0
  2  3  1  0  0  0
  3  4  2  0  0  0
  4  5  1  0  0  0
  4  6  1  0  0  0
  6 21  1  0  0  0
 21 23  1  0  0  0
 23 24  2  0  0  0
 24 25  1  0  0  0
 25 26  2  0  0  0
 26 27  1  0  0  0
 27 28  2  0  0  0
 28 29  1  0  0  0
 29 30  2  0  0  0
 29 31  2  0  0  0
 29 32  1  0  0  0
 32 33  1  0  0  0
 32 34  1  0  0  0
  6  7  2  0  0  0
 12 16  1  0  0  0
 16 17  1  0  0  0
 16 18  2  0  0  0
 15 10  1  0  0  0
  7  1  1  0  0  0
 28 23  1  0  0  0
  8  9  1  0  0  0
 21 22  1  0  0  0
M  CHG 1  16   1
M  CHG 1  17  -1
M  END
> <minimizedAffinity>
-8.32783

> <CNNscore>
0.2264727652

> <CNNaffinity>
6.3740110397

> <CNN_VS>
1.4435398579

> <CNNaffinity_variance>
0.4192892909

$$$$
[H]c1nc(N([H])c2c([H])c([H])c([N+](=O)[O-])c([H])c2OC([H])([H])[H])nc(N([H])c2c([H])c([H])c([H])c([H])c2S(=O)(=O)C([H])(C([H])([H])[H])C([H])([H])[H])c1Cl


 34 36  0  0  0  0  0  0  0  0999 V2000
    3.4625    2.0740   15.9705 C   0  0  0  0  0  0  0  0  0  0  0  0
    2.9610    0.8571   16.1222 N   0  0  0  0  0  0  0  0  0  0  0  0
    2.8510    0.2251   17.2978 C   0  0  0  0  0  0  0  0  0  0  0  0
    3.2796    0.8620   18.4295 C   0  0  0  0  0  0  0  0  0  0  0  0
    3.1348    0.0345   19.9628 Cl  0  0  0  0  0  0  0  0  0  0  0  0
    3.8191    2.1491   18.3338 C   0  0  0  0  0  0  0  0  0  0  0  0
    3.8789    2.6748   17.1255 N   0  0  0  0  0  0  0  0  0  0  0  0
    3.6006    2.7875   14.7447 N   0  0  0  0  0  0  0  0  0  0  0  0
    3.9783    2.2474   13.9038 H   0  0  0  0  0  0  0  0  0  0  0  0
    2.3034    4.4331   13.5857 C   0  0  0  0  0  0  0  0  0  0  0  0
    1.9218    5.7296   13.3202 C   0  0  0  0  0  0  0  0  0  0  0  0
    2.4641    6.8013   13.9687 C   0  0  0  0  0  0  0  0  0  0  0  0
    3.4173    6.5390   14.9087 C   0  0  0  0  0  0  0  0  0  0  0  0
    3.8084    5.2244   15.1820 C   0  0  0  0  0  0  0  0  0  0  0  0
    3.2833    4.1362   14.5493 C   0  0  0  0  0  0  0  0  0  0  0  0
    2.0194    8.1034   13.6401 N   0  0  0  0  0  0  0  0  0  0  0  0
    1.3122    8.3315   12.4946 O   0  0  0  0  0  0  0  0  0  0  0  0
    2.2611    9.0710   14.3848 O   0  0  0  0  0  0  0  0  0  0  0  0
    1.9550    3.1728   11.5354 C   0  0  0  0  0  0  0  0  0  0  0  0
    1.7284    3.3734   12.9051 O   0  0  0  0  0  0  0  0  0  0  0  0
    4.2580    2.7855   19.5189 N   0  0  0  0  0  0  0  0  0  0  0  0
    4.5067    2.0954   20.3014 H   0  0  0  0  0  0  0  0  0  0  0  0
    4.4081    4.1318   19.8259 C   0  0  0  0  0  0  0  0  0  0  0  0
    4.5319    5.1279   18.8929 C   0  0  0  0  0  0  0  0  0  0  0  0
    4.6691    6.4862   19.2398 C   0  0  0  0  0  0  0  0  0  0  0  0
    4.6820    6.8521   20.5599 C   0  0  0  0  0  0  0  0  0  0  0  0
    4.5591    5.8674   21.5138 C   0  0  0  0  0  0  0  0  0  0  0  0
    4.4260    4.5426   21.1569 C   0  0  0  0  0  0  0  0  0  0  0  0
    4.2866    3.3753   22.4126 S   0  0  0  0  0  0  0  0  0  0  0  0
    3.7854    3.9419   23.7090 O   0  0  0  0  0  0  0  0  0  0  0  0
    3.3654    2.2181   22.0558 O   0  0  0  0  0  0  0  0  0  0  0  0
    5.8998    2.6880   22.8470 C   0  0  0  0  0  0  0  0  0  0  0  0
    5.6681    2.0667   24.2368 C   0  0  0  0  0  0  0  0  0  0  0  0
    6.3416    1.6248   21.9071 C   0  0  0  0  0  0  0  0  0  0  0  0
 19 20  1  0  0  0
 20 10  1  0  0  0
 10 11  2  0  0  0
 11 12  1  0  0  0
 12 13  2  0  0  0
 13 14  1  0  0  0
 14 15  2  0  0  0
 15  8  1  0  0  0
  8  1  1  0  0  0
  1  2  2  0  0  0
  2  3  1  0  0  0
  3  4  2  0  0  0
  4  5  1  0  0  0
  4  6  1  0  0  0
  6 21  1  0  0  0
 21 23  1  0  0  0
 23 24  2  0  0  0
 24 25  1  0  0  0
 25 26  2  0  0  0
 26 27  1  0  0  0
 27 28  2  0  0  0
 28 29  1  0  0  0
 29 30  2  0  0  0
 29 31  2  0  0  0
 29 32  1  0  0  0
 32 33  1  0  0  0
 32 34  1  0  0  0
  6  7  2  0  0  0
 12 16  1  0  0  0
 16 17  1  0  0  0
 16 18  2  0  0  0
 15 10  1  0  0  0
  7  1  1  0  0  0
 28 23  1  0  0  0
  8  9  1  0  0  0
 21 22  1  0  0  0
M  CHG 1  16   1
M  CHG 1  17  -1
M  END
> <minimizedAffinity>
-7.95313

> <CNNscore>
0.1990841627

> <CNNaffinity>
6.6725873947

> <CNN_VS>
1.3284064531

> <CNNaffinity_variance>
0.2825874388

$$$$
[H]c1nc(N([H])c2c([H])c([H])c([N+](=O)[O-])c([H])c2OC([H])([H])[H])nc(N([H])c2c([H])c([H])c([H])c([H])c2S(=O)(=O)C([H])(C([H])([H])[H])C([H])([H])[H])c1Cl


 34 36  0  0  0  0  0  0  0  0999 V2000
    3.4177    2.1825   15.7345 C   0  0  0  0  0  0  0  0  0  0  0  0
    3.0364    0.9138   15.7605 N   0  0  0  0  0  0  0  0  0  0  0  0
    2.8406    0.2053   16.8800 C   0  0  0  0  0  0  0  0  0  0  0  0
    3.0425    0.8145   18.0876 C   0  0  0  0  0  0  0  0  0  0  0  0
    2.7861   -0.1129   19.5474 Cl  0  0  0  0  0  0  0  0  0  0  0  0
    3.4460    2.1534   18.1253 C   0  0  0  0  0  0  0  0  0  0  0  0
    3.6084    2.7531   16.9618 N   0  0  0  0  0  0  0  0  0  0  0  0
    3.6389    2.9777   14.5729 N   0  0  0  0  0  0  0  0  0  0  0  0
    4.6377    3.0276   14.1968 H   0  0  0  0  0  0  0  0  0  0  0  0
    2.7537    5.1015   13.9096 C   0  0  0  0  0  0  0  0  0  0  0  0
    1.8372    5.8996   13.2614 C   0  0  0  0  0  0  0  0  0  0  0  0
    0.7863    5.3868   12.5572 C   0  0  0  0  0  0  0  0  0  0  0  0
    0.6721    4.0280   12.5164 C   0  0  0  0  0  0  0  0  0  0  0  0
    1.6000    3.2132   13.1729 C   0  0  0  0  0  0  0  0  0  0  0  0
    2.6584    3.6990   13.8830 C   0  0  0  0  0  0  0  0  0  0  0  0
   -0.1131    6.2722   11.9182 N   0  0  0  0  0  0  0  0  0  0  0  0
    0.2005    7.5915   11.7588 O   0  0  0  0  0  0  0  0  0  0  0  0
   -1.2098    5.8718   11.4865 O   0  0  0  0  0  0  0  0  0  0  0  0
    3.5899    6.4256   15.7699 C   0  0  0  0  0  0  0  0  0  0  0  0
    3.8061    5.6615   14.6135 O   0  0  0  0  0  0  0  0  0  0  0  0
    3.6509    2.7599   19.3872 N   0  0  0  0  0  0  0  0  0  0  0  0
    2.8530    3.4165   19.6747 H   0  0  0  0  0  0  0  0  0  0  0  0
    4.7008    2.6483   20.2898 C   0  0  0  0  0  0  0  0  0  0  0  0
    5.2963    1.4647   20.6398 C   0  0  0  0  0  0  0  0  0  0  0  0
    6.3692    1.3895   21.5495 C   0  0  0  0  0  0  0  0  0  0  0  0
    6.8559    2.5350   22.1219 C   0  0  0  0  0  0  0  0  0  0  0  0
    6.2722    3.7350   21.7844 C   0  0  0  0  0  0  0  0  0  0  0  0
    5.2226    3.7906   20.8926 C   0  0  0  0  0  0  0  0  0  0  0  0
    4.5459    5.3307   20.5329 S   0  0  0  0  0  0  0  0  0  0  0  0
    3.1352    5.2650   20.0245 O   0  0  0  0  0  0  0  0  0  0  0  0
    4.5374    6.2751   21.7257 O   0  0  0  0  0  0  0  0  0  0  0  0
    5.4424    6.1400   19.1894 C   0  0  0  0  0  0  0  0  0  0  0  0
    6.5788    6.8888   19.9098 C   0  0  0  0  0  0  0  0  0  0  0  0
    6.0315    5.1713   18.2285 C   0  0  0  0  0  0  0  0  0  0  0  0
 19 20  1  0  0  0
 20 10  1  0  0  0
 10 11  2  0  0  0
 11 12  1  0  0  0
 12 13  2  0  0  0
 13 14  1  0  0  0
 14 15  2  0  0  0
 15  8  1  0  0  0
  8  1  1  0  0  0
  1  2  2  0  0  0
  2  3  1  0  0  0
  3  4  2  0  0  0
  4  5  1  0  0  0
  4  6  1  0  0  0
  6 21  1  0  0  0
 21 23  1  0  0  0
 23 24  2  0  0  0
 24 25  1  0  0  0
 25 26  2  0  0  0
 26 27  1  0  0  0
 27 28  2  0  0  0
 28 29  1  0  0  0
 29 30  2  0  0  0
 29 31  2  0  0  0
 29 32  1  0  0  0
 32 33  1  0  0  0
 32 34  1  0  0  0
  6  7  2  0  0  0
 12 16  1  0  0  0
 16 17  1  0  0  0
 16 18  2  0  0  0
 15 10  1  0  0  0
  7  1  1  0  0  0
 28 23  1  0  0  0
  8  9  1  0  0  0
 21 22  1  0  0  0
M  CHG 1  16   1
M  CHG 1  17  -1
M  END
> <minimizedAffinity>
-7.31871

> <CNNscore>
0.1560392529

> <CNNaffinity>
6.3787589073

> <CNN_VS>
0.9953367710

> <CNNaffinity_variance>
0.3904440701

$$$$
[H]c1nc(N([H])c2c([H])c([H])c([N+](=O)[O-])c([H])c2OC([H])([H])[H])nc(N([H])c2c([H])c([H])c([H])c([H])c2S(=O)(=O)C([H])(C([H])([H])[H])C([H])([H])[H])c1Cl


 34 36  0  0  0  0  0  0  0  0999 V2000
    4.8187    3.3215   18.5036 C   0  0  0  0  0  0  0  0  0  0  0  0
    4.3298    2.6654   19.5457 N   0  0  0  0  0  0  0  0  0  0  0  0
    4.1762    3.1921   20.7674 C   0  0  0  0  0  0  0  0  0  0  0  0
    4.5428    4.4933   20.9734 C   0  0  0  0  0  0  0  0  0  0  0  0
    4.3413    5.1784   22.5693 Cl  0  0  0  0  0  0  0  0  0  0  0  0
    5.0660    5.2385   19.9113 C   0  0  0  0  0  0  0  0  0  0  0  0
    5.1727    4.6181   18.7522 N   0  0  0  0  0  0  0  0  0  0  0  0
    5.0014    2.8070   17.1873 N   0  0  0  0  0  0  0  0  0  0  0  0
    5.9324    2.3284   16.9736 H   0  0  0  0  0  0  0  0  0  0  0  0
    3.2872    1.7291   15.9092 C   0  0  0  0  0  0  0  0  0  0  0  0
    2.3382    1.6973   14.9115 C   0  0  0  0  0  0  0  0  0  0  0  0
    2.0917    2.7663   14.0993 C   0  0  0  0  0  0  0  0  0  0  0  0
    2.8330    3.8912   14.3138 C   0  0  0  0  0  0  0  0  0  0  0  0
    3.7978    3.9286   15.3255 C   0  0  0  0  0  0  0  0  0  0  0  0
    4.0642    2.8757   16.1506 C   0  0  0  0  0  0  0  0  0  0  0  0
    1.1001    2.6560   13.0963 N   0  0  0  0  0  0  0  0  0  0  0  0
    1.1623    1.6655   12.1586 O   0  0  0  0  0  0  0  0  0  0  0  0
    0.1487    3.4570   13.0438 O   0  0  0  0  0  0  0  0  0  0  0  0
    2.4960    0.1012   17.5332 C   0  0  0  0  0  0  0  0  0  0  0  0
    3.5066    0.6225   16.7118 O   0  0  0  0  0  0  0  0  0  0  0  0
    5.4405    6.5818   20.1509 N   0  0  0  0  0  0  0  0  0  0  0  0
    6.1524    6.6862   20.9463 H   0  0  0  0  0  0  0  0  0  0  0  0
    5.0367    7.7613   19.5384 C   0  0  0  0  0  0  0  0  0  0  0  0
    3.7346    8.1789   19.4485 C   0  0  0  0  0  0  0  0  0  0  0  0
    3.3616    9.3889   18.8313 C   0  0  0  0  0  0  0  0  0  0  0  0
    4.3239   10.2002   18.2904 C   0  0  0  0  0  0  0  0  0  0  0  0
    5.6384    9.7998   18.3694 C   0  0  0  0  0  0  0  0  0  0  0  0
    5.9860    8.6122   18.9767 C   0  0  0  0  0  0  0  0  0  0  0  0
    7.6513    8.1836   19.0243 S   0  0  0  0  0  0  0  0  0  0  0  0
    7.9090    6.7343   18.7308 O   0  0  0  0  0  0  0  0  0  0  0  0
    8.5046    8.9851   18.0527 O   0  0  0  0  0  0  0  0  0  0  0  0
    8.3359    8.4079   20.6810 C   0  0  0  0  0  0  0  0  0  0  0  0
    9.5192    7.4233   20.7219 C   0  0  0  0  0  0  0  0  0  0  0  0
    8.8426    9.7862   20.9098 C   0  0  0  0  0  0  0  0  0  0  0  0
 19 20  1  0  0  0
 20 10  1  0  0  0
 10 11  2  0  0  0
 11 12  1  0  0  0
 12 13  2  0  0  0
 13 14  1  0  0  0
 14 15  2  0  0  0
 15  8  1  0  0  0
  8  1  1  0  0  0
  1  2  2  0  0  0
  2  3  1  0  0  0
  3  4  2  0  0  0
  4  5  1  0  0  0
  4  6  1  0  0  0
  6 21  1  0  0  0
 21 23  1  0  0  0
 23 24  2  0  0  0
 24 25  1  0  0  0
 25 26  2  0  0  0
 26 27  1  0  0  0
 27 28  2  0  0  0
 28 29  1  0  0  0
 29 30  2  0  0  0
 29 31  2  0  0  0
 29 32  1  0  0  0
 32 33  1  0  0  0
 32 34  1  0  0  0
  6  7  2  0  0  0
 12 16  1  0  0  0
 16 17  1  0  0  0
 16 18  2  0  0  0
 15 10  1  0  0  0
  7  1  1  0  0  0
 28 23  1  0  0  0
  8  9  1  0  0  0
 21 22  1  0  0  0
M  CHG 1  16   1
M  CHG 1  17  -1
M  END
> <minimizedAffinity>
-7.27080

> <CNNscore>
0.1349091381

> <CNNaffinity>
6.0722150803

> <CNN_VS>
0.8191972971

> <CNNaffinity_variance>
0.2442799807

$$$$
[H]c1nc(N([H])c2c([H])c([H])c([N+](=O)[O-])c([H])c2OC([H])([H])[H])nc(N([H])c2c([H])c([H])c([H])c([H])c2S(=O)(=O)C([H])(C([H])([H])[H])C([H])([H])[H])c1Cl


 34 36  0  0  0  0  0  0  0  0999 V2000
    4.2614    2.8096   16.8719 C   0  0  0  0  0  0  0  0  0  0  0  0
    3.5973    1.6689   16.7561 N   0  0  0  0  0  0  0  0  0  0  0  0
    2.7400    1.3896   15.7659 C   0  0  0  0  0  0  0  0  0  0  0  0
    2.5216    2.3323   14.7996 C   0  0  0  0  0  0  0  0  0  0  0  0
    1.4017    1.9650   13.5082 Cl  0  0  0  0  0  0  0  0  0  0  0  0
    3.1936    3.5573   14.8673 C   0  0  0  0  0  0  0  0  0  0  0  0
    4.0144    3.7238   15.8863 N   0  0  0  0  0  0  0  0  0  0  0  0
    5.1819    3.1538   17.9038 N   0  0  0  0  0  0  0  0  0  0  0  0
    6.1374    3.5259   17.6034 H   0  0  0  0  0  0  0  0  0  0  0  0
    4.6519    4.2318   19.9753 C   0  0  0  0  0  0  0  0  0  0  0  0
    4.3998    4.2297   21.3293 C   0  0  0  0  0  0  0  0  0  0  0  0
    4.4130    3.0872   22.0762 C   0  0  0  0  0  0  0  0  0  0  0  0
    4.6904    1.9227   21.4220 C   0  0  0  0  0  0  0  0  0  0  0  0
    4.9471    1.9194   20.0472 C   0  0  0  0  0  0  0  0  0  0  0  0
    4.9403    3.0456   19.2777 C   0  0  0  0  0  0  0  0  0  0  0  0
    4.1440    3.1667   23.4627 N   0  0  0  0  0  0  0  0  0  0  0  0
    3.1836    4.0115   23.9405 O   0  0  0  0  0  0  0  0  0  0  0  0
    4.7743    2.4704   24.2796 O   0  0  0  0  0  0  0  0  0  0  0  0
    3.4725    6.2039   19.1794 C   0  0  0  0  0  0  0  0  0  0  0  0
    4.6288    5.4131   19.2536 O   0  0  0  0  0  0  0  0  0  0  0  0
    2.9482    4.5171   13.8570 N   0  0  0  0  0  0  0  0  0  0  0  0
    2.0094    5.0224   13.9737 H   0  0  0  0  0  0  0  0  0  0  0  0
    3.7095    4.8959   12.7586 C   0  0  0  0  0  0  0  0  0  0  0  0
    4.4221    4.0260   11.9753 C   0  0  0  0  0  0  0  0  0  0  0  0
    5.1735    4.4434   10.8594 C   0  0  0  0  0  0  0  0  0  0  0  0
    5.2089    5.7708   10.5225 C   0  0  0  0  0  0  0  0  0  0  0  0
    4.5004    6.6620   11.2960 C   0  0  0  0  0  0  0  0  0  0  0  0
    3.7704    6.2366   12.3851 C   0  0  0  0  0  0  0  0  0  0  0  0
    2.9209    7.4178   13.3027 S   0  0  0  0  0  0  0  0  0  0  0  0
    2.4659    8.5969   12.4930 O   0  0  0  0  0  0  0  0  0  0  0  0
    1.6870    6.8629   13.9986 O   0  0  0  0  0  0  0  0  0  0  0  0
    3.9852    8.1552   14.5625 C   0  0  0  0  0  0  0  0  0  0  0  0
    3.3196    9.5134   14.8513 C   0  0  0  0  0  0  0  0  0  0  0  0
    4.0262    7.3580   15.8161 C   0  0  0  0  0  0  0  0  0  0  0  0
 19 20  1  0  0  0
 20 10  1  0  0  0
 10 11  2  0  0  0
 11 12  1  0  0  0
 12 13  2  0  0  0
 13 14  1  0  0  0
 14 15  2  0  0  0
 15  8  1  0  0  0
  8  1  1  0  0  0
  1  2  2  0  0  0
  2  3  1  0  0  0
  3  4  2  0  0  0
  4  5  1  0  0  0
  4  6  1  0  0  0
  6 21  1  0  0  0
 21 23  1  0  0  0
 23 24  2  0  0  0
 24 25  1  0  0  0
 25 26  2  0  0  0
 26 27  1  0  0  0
 27 28  2  0  0  0
 28 29  1  0  0  0
 29 30  2  0  0  0
 29 31  2  0  0  0
 29 32  1  0  0  0
 32 33  1  0  0  0
 32 34  1  0  0  0
  6  7  2  0  0  0
 12 16  1  0  0  0
 16 17  1  0  0  0
 16 18  2  0  0  0
 15 10  1  0  0  0
  7  1  1  0  0  0
 28 23  1  0  0  0
  8  9  1  0  0  0
 21 22  1  0  0  0
M  CHG 1  16   1
M  CHG 1  17  -1
M  END
> <minimizedAffinity>
-7.33960

> <CNNscore>
0.1295799613

> <CNNaffinity>
6.3610410690

> <CNN_VS>
0.8242634535

> <CNNaffinity_variance>
0.2609696984

$$$$
[H]N=C(N([H])[H])N([H])C([H])([H])C([H])([H])C([H])([H])[C@@]([H])(C(=O)O[H])N([H])C(=O)[C@@]1([H])N([H])C([H])([H])c2c([H])c([H])c([H])c([H])c2C1([H])[H]


 31 32  0  0  0  0  0  0  0  0999 V2000
    4.2051   -0.2002   18.7600 C   0  0  0  0  0  0  0  0  0  0  0  0
    4.3874    1.1046   18.2305 N   0  0  0  0  0  0  0  0  0  0  0  0
    4.4332    1.4430   16.8220 C   0  0  0  0  0  0  0  0  0  0  0  0
    4.3964    0.4860   15.9743 O   0  0  0  0  0  0  0  0  0  0  0  0
    4.4853    1.9363   18.8947 H   0  0  0  0  0  0  0  0  0  0  0  0
    4.4805    2.8122   16.3757 C   0  0  0  0  0  0  0  0  0  0  0  0
    5.5823    3.5728   15.8497 C   0  0  0  0  0  0  0  0  0  0  0  0
    5.1174    5.0335   15.7314 C   0  0  0  0  0  0  0  0  0  0  0  0
    5.9980    5.9283   15.1074 C   0  0  0  0  0  0  0  0  0  0  0  0
    5.6102    7.2710   15.0350 C   0  0  0  0  0  0  0  0  0  0  0  0
    4.4173    7.6803   15.5549 C   0  0  0  0  0  0  0  0  0  0  0  0
    3.5522    6.7723   16.1719 C   0  0  0  0  0  0  0  0  0  0  0  0
    3.9251    5.4647   16.2391 C   0  0  0  0  0  0  0  0  0  0  0  0
    2.9219    4.4907   16.8311 C   0  0  0  0  0  0  0  0  0  0  0  0
    3.7381    3.5438   17.5009 N   0  0  0  0  0  0  0  0  0  0  0  0
    4.5358    4.0440   18.0261 H   0  0  0  0  0  0  0  0  0  0  0  0
    3.0400   -0.9099   18.2744 C   0  0  0  0  0  0  0  0  0  0  0  0
    3.1677   -2.0631   17.4578 O   0  0  0  0  0  0  0  0  0  0  0  0
    1.8641   -0.5658   18.5285 O   0  0  0  0  0  0  0  0  0  0  0  0
    3.5120   -1.9051   16.5061 H   0  0  0  0  0  0  0  0  0  0  0  0
    4.6290   -0.3538   20.1535 C   0  0  0  0  0  0  0  0  0  0  0  0
    3.5630   -0.9007   21.1052 C   0  0  0  0  0  0  0  0  0  0  0  0
    3.0136    0.2523   21.8780 C   0  0  0  0  0  0  0  0  0  0  0  0
    3.9221    1.2603   22.2328 N   0  0  0  0  0  0  0  0  0  0  0  0
    3.5384    2.3006   22.2765 H   0  0  0  0  0  0  0  0  0  0  0  0
    6.2494    1.5271   21.5347 N   0  0  0  0  0  0  0  0  0  0  0  0
    5.2798    1.1923   22.5635 C   0  0  0  0  0  0  0  0  0  0  0  0
    5.7049    0.9092   23.7198 N   0  0  0  0  0  0  0  0  0  0  0  0
    6.4016    2.5360   21.2710 H   0  0  0  0  0  0  0  0  0  0  0  0
    6.7713    0.7527   21.0853 H   0  0  0  0  0  0  0  0  0  0  0  0
    6.7355    0.9218   23.9317 H   0  0  0  0  0  0  0  0  0  0  0  0
 26 27  1  0  0  0
 27 28  2  0  0  0
 27 24  1  0  0  0
 24 23  1  0  0  0
 23 22  1  0  0  0
 22 21  1  0  0  0
 21  1  1  0  0  0
  1  2  1  0  0  0
  2  3  1  0  0  0
  3  4  2  0  0  0
  3  6  1  0  0  0
  6  7  1  0  0  0
  7  8  1  0  0  0
  8  9  2  0  0  0
  9 10  1  0  0  0
 10 11  2  0  0  0
 11 12  1  0  0  0
 12 13  2  0  0  0
 13 14  1  0  0  0
 14 15  1  0  0  0
  1 17  1  0  0  0
 17 18  1  0  0  0
 17 19  2  0  0  0
 15  6  1  0  0  0
 13  8  1  0  0  0
 26 29  1  0  0  0
 26 30  1  0  0  0
 28 31  1  0  0  0
 24 25  1  0  0  0
  2  5  1  0  0  0
 15 16  1  0  0  0
 18 20  1  0  0  0
M  END
> <minimizedAffinity>
7.56842

> <CNNscore>
0.4358372986

> <CNNaffinity>
5.3330340385

> <CNN_VS>
2.3243350983

> <CNNaffinity_variance>
1.0515849590

$$$$
[H]N=C(N([H])[H])N([H])C([H])([H])C([H])([H])C([H])([H])[C@@]([H])(C(=O)O[H])N([H])C(=O)[C@@]1([H])N([H])C([H])([H])c2c([H])c([H])c([H])c([H])c2C1([H])[H]


 31 32  0  0  0  0  0  0  0  0999 V2000
    3.1573    6.2159   15.2486 C   0  0  0  0  0  0  0  0  0  0  0  0
    3.8436    5.4118   16.1965 N   0  0  0  0  0  0  0  0  0  0  0  0
    3.8347    5.6096   17.6322 C   0  0  0  0  0  0  0  0  0  0  0  0
    3.2357    6.6422   18.0911 O   0  0  0  0  0  0  0  0  0  0  0  0
    4.4112    4.5695   15.8636 H   0  0  0  0  0  0  0  0  0  0  0  0
    4.4449    4.6609   18.5288 C   0  0  0  0  0  0  0  0  0  0  0  0
    4.2925    3.2324   18.6024 C   0  0  0  0  0  0  0  0  0  0  0  0
    5.0152    2.7582   19.8738 C   0  0  0  0  0  0  0  0  0  0  0  0
    5.1078    1.3728   20.0685 C   0  0  0  0  0  0  0  0  0  0  0  0
    5.7202    0.9257   21.2447 C   0  0  0  0  0  0  0  0  0  0  0  0
    6.2054    1.8147   22.1586 C   0  0  0  0  0  0  0  0  0  0  0  0
    6.1048    3.1923   21.9454 C   0  0  0  0  0  0  0  0  0  0  0  0
    5.5140    3.6297   20.7995 C   0  0  0  0  0  0  0  0  0  0  0  0
    5.5055    5.1284   20.5562 C   0  0  0  0  0  0  0  0  0  0  0  0
    4.2728    5.3468   19.8897 N   0  0  0  0  0  0  0  0  0  0  0  0
    3.4909    4.7659   20.3517 H   0  0  0  0  0  0  0  0  0  0  0  0
    1.9672    5.6217   14.6763 C   0  0  0  0  0  0  0  0  0  0  0  0
    2.0514    4.5450   13.7561 O   0  0  0  0  0  0  0  0  0  0  0  0
    0.8061    6.0061   14.9402 O   0  0  0  0  0  0  0  0  0  0  0  0
    2.4262    4.7720   12.8303 H   0  0  0  0  0  0  0  0  0  0  0  0
    4.0277    7.0552   14.4221 C   0  0  0  0  0  0  0  0  0  0  0  0
    4.8400    8.1046   15.1836 C   0  0  0  0  0  0  0  0  0  0  0  0
    5.0432    9.2679   14.2705 C   0  0  0  0  0  0  0  0  0  0  0  0
    5.2954    8.9717   12.9228 N   0  0  0  0  0  0  0  0  0  0  0  0
    4.4210    8.9056   12.2428 H   0  0  0  0  0  0  0  0  0  0  0  0
    7.6852    8.4724   13.0407 N   0  0  0  0  0  0  0  0  0  0  0  0
    6.4985    8.7420   12.2470 C   0  0  0  0  0  0  0  0  0  0  0  0
    6.5971    8.7025   10.9874 N   0  0  0  0  0  0  0  0  0  0  0  0
    7.8037    7.5298   13.4968 H   0  0  0  0  0  0  0  0  0  0  0  0
    8.3910    9.2255   13.1347 H   0  0  0  0  0  0  0  0  0  0  0  0
    7.5152    8.4744   10.5269 H   0  0  0  0  0  0  0  0  0  0  0  0
 26 27  1  0  0  0
 27 28  2  0  0  0
 27 24  1  0  0  0
 24 23  1  0  0  0
 23 22  1  0  0  0
 22 21  1  0  0  0
 21  1  1  0  0  0
  1  2  1  0  0  0
  2  3  1  0  0  0
  3  4  2  0  0  0
  3  6  1  0  0  0
  6  7  1  0  0  0
  7  8  1  0  0  0
  8  9  2  0  0  0
  9 10  1  0  0  0
 10 11  2  0  0  0
 11 12  1  0  0  0
 12 13  2  0  0  0
 13 14  1  0  0  0
 14 15  1  0  0  0
  1 17  1  0  0  0
 17 18  1  0  0  0
 17 19  2  0  0  0
 15  6  1  0  0  0
 13  8  1  0  0  0
 26 29  1  0  0  0
 26 30  1  0  0  0
 28 31  1  0  0  0
 24 25  1  0  0  0
  2  5  1  0  0  0
 15 16  1  0  0  0
 18 20  1  0  0  0
M  END
> <minimizedAffinity>
-6.41274

> <CNNscore>
0.2674285471

> <CNNaffinity>
4.6999149323

> <CNN_VS>
1.2568913698

> <CNNaffinity_variance>
0.5839358568

$$$$
[H]N=C(N([H])[H])N([H])C([H])([H])C([H])([H])C([H])([H])[C@@]([H])(C(=O)O[H])N([H])C(=O)[C@@]1([H])N([H])C([H])([H])c2c([H])c([H])c([H])c([H])c2C1([H])[H]


 31 32  0  0  0  0  0  0  0  0999 V2000
    3.1941    7.0621   12.5809 C   0  0  0  0  0  0  0  0  0  0  0  0
    3.1439    5.9854   13.5053 N   0  0  0  0  0  0  0  0  0  0  0  0
    3.6962    4.6631   13.2888 C   0  0  0  0  0  0  0  0  0  0  0  0
    4.1953    4.4028   12.1403 O   0  0  0  0  0  0  0  0  0  0  0  0
    2.6837    6.1282   14.4594 H   0  0  0  0  0  0  0  0  0  0  0  0
    3.7233    3.6753   14.3374 C   0  0  0  0  0  0  0  0  0  0  0  0
    2.9664    2.4603   14.4791 C   0  0  0  0  0  0  0  0  0  0  0  0
    3.2501    1.9035   15.8838 C   0  0  0  0  0  0  0  0  0  0  0  0
    2.7157    0.6424   16.1833 C   0  0  0  0  0  0  0  0  0  0  0  0
    2.9241    0.1429   17.4739 C   0  0  0  0  0  0  0  0  0  0  0  0
    3.6235    0.8653   18.3957 C   0  0  0  0  0  0  0  0  0  0  0  0
    4.1498    2.1203   18.0771 C   0  0  0  0  0  0  0  0  0  0  0  0
    3.9526    2.6061   16.8208 C   0  0  0  0  0  0  0  0  0  0  0  0
    4.6170    3.9283   16.4802 C   0  0  0  0  0  0  0  0  0  0  0  0
    3.6912    4.5450   15.6003 N   0  0  0  0  0  0  0  0  0  0  0  0
    2.6845    4.4049   15.9600 H   0  0  0  0  0  0  0  0  0  0  0  0
    2.1386    7.0788   11.5897 C   0  0  0  0  0  0  0  0  0  0  0  0
    1.8129    5.9184   10.8412 O   0  0  0  0  0  0  0  0  0  0  0  0
    1.4554    8.0927   11.3231 O   0  0  0  0  0  0  0  0  0  0  0  0
    2.5064    5.6195   10.1491 H   0  0  0  0  0  0  0  0  0  0  0  0
    4.5479    7.4866   12.2174 C   0  0  0  0  0  0  0  0  0  0  0  0
    4.8466    7.5066   10.7169 C   0  0  0  0  0  0  0  0  0  0  0  0
    6.2221    8.0581   10.5379 C   0  0  0  0  0  0  0  0  0  0  0  0
    7.2706    7.1274   10.4912 N   0  0  0  0  0  0  0  0  0  0  0  0
    8.1628    7.3322   11.1184 H   0  0  0  0  0  0  0  0  0  0  0  0
    7.9787    5.9970    8.4430 N   0  0  0  0  0  0  0  0  0  0  0  0
    7.4015    5.9330    9.7747 C   0  0  0  0  0  0  0  0  0  0  0  0
    7.0961    4.7992   10.2428 N   0  0  0  0  0  0  0  0  0  0  0  0
    9.0176    6.1349    8.3318 H   0  0  0  0  0  0  0  0  0  0  0  0
    7.3428    5.9019    7.6302 H   0  0  0  0  0  0  0  0  0  0  0  0
    7.2618    3.9240    9.6828 H   0  0  0  0  0  0  0  0  0  0  0  0
 26 27  1  0  0  0
 27 28  2  0  0  0
 27 24  1  0  0  0
 24 23  1  0  0  0
 23 22  1  0  0  0
 22 21  1  0  0  0
 21  1  1  0  0  0
  1  2  1  0  0  0
  2  3  1  0  0  0
  3  4  2  0  0  0
  3  6  1  0  0  0
  6  7  1  0  0  0
  7  8  1  0  0  0
  8  9  2  0  0  0
  9 10  1  0  0  0
 10 11  2  0  0  0
 11 12  1  0  0  0
 12 13  2  0  0  0
 13 14  1  0  0  0
 14 15  1  0  0  0
  1 17  1  0  0  0
 17 18  1  0  0  0
 17 19  2  0  0  0
 15  6  1  0  0  0
 13  8  1  0  0  0
 26 29  1  0  0  0
 26 30  1  0  0  0
 28 31  1  0  0  0
 24 25  1  0  0  0
  2  5  1  0  0  0
 15 16  1  0  0  0
 18 20  1  0  0  0
M  END
> <minimizedAffinity>
-5.93651

> <CNNscore>
0.2629501522

> <CNNaffinity>
4.3919172287

> <CNN_VS>
1.1548552513

> <CNNaffinity_variance>
0.2242422402

$$$$
[H]N=C(N([H])[H])N([H])C([H])([H])C([H])([H])C([H])([H])[C@@]([H])(C(=O)O[H])N([H])C(=O)[C@@]1([H])N([H])C([H])([H])c2c([H])c([H])c([H])c([H])c2C1([H])[H]


 31 32  0  0  0  0  0  0  0  0999 V2000
    7.9651    7.0938   21.0209 C   0  0  0  0  0  0  0  0  0  0  0  0
    7.2079    5.8944   20.9552 N   0  0  0  0  0  0  0  0  0  0  0  0
    6.0031    5.6167   21.7113 C   0  0  0  0  0  0  0  0  0  0  0  0
    5.6280    6.4783   22.5788 O   0  0  0  0  0  0  0  0  0  0  0  0
    7.5101    5.1136   20.2908 H   0  0  0  0  0  0  0  0  0  0  0  0
    5.2215    4.4291   21.4766 C   0  0  0  0  0  0  0  0  0  0  0  0
    4.6567    3.4968   22.4152 C   0  0  0  0  0  0  0  0  0  0  0  0
    4.1003    2.3125   21.6081 C   0  0  0  0  0  0  0  0  0  0  0  0
    3.3785    1.3452   22.3217 C   0  0  0  0  0  0  0  0  0  0  0  0
    2.9068    0.2364   21.6099 C   0  0  0  0  0  0  0  0  0  0  0  0
    3.1461    0.1142   20.2725 C   0  0  0  0  0  0  0  0  0  0  0  0
    3.8665    1.0904   19.5786 C   0  0  0  0  0  0  0  0  0  0  0  0
    4.3222    2.1724   20.2679 C   0  0  0  0  0  0  0  0  0  0  0  0
    5.0186    3.2577   19.4664 C   0  0  0  0  0  0  0  0  0  0  0  0
    6.0114    3.7393   20.3575 N   0  0  0  0  0  0  0  0  0  0  0  0
    6.4824    2.9166   20.8711 H   0  0  0  0  0  0  0  0  0  0  0  0
    8.6041    7.3554   22.2937 C   0  0  0  0  0  0  0  0  0  0  0  0
    8.0097    8.2151   23.2532 O   0  0  0  0  0  0  0  0  0  0  0  0
    9.7019    6.8593   22.6320 O   0  0  0  0  0  0  0  0  0  0  0  0
    7.9934    9.2115   23.0164 H   0  0  0  0  0  0  0  0  0  0  0  0
    7.4165    8.2010   20.2347 C   0  0  0  0  0  0  0  0  0  0  0  0
    7.6932    8.1362   18.7312 C   0  0  0  0  0  0  0  0  0  0  0  0
    6.3781    8.0168   18.0351 C   0  0  0  0  0  0  0  0  0  0  0  0
    5.2321    8.2098   18.8205 N   0  0  0  0  0  0  0  0  0  0  0  0
    5.2975    7.9368   19.8941 H   0  0  0  0  0  0  0  0  0  0  0  0
    3.6684    8.9204   17.0815 N   0  0  0  0  0  0  0  0  0  0  0  0
    3.9695    8.7118   18.4874 C   0  0  0  0  0  0  0  0  0  0  0  0
    3.0614    8.9411   19.3363 N   0  0  0  0  0  0  0  0  0  0  0  0
    3.4613    8.0914   16.4646 H   0  0  0  0  0  0  0  0  0  0  0  0
    3.6644    9.8925   16.7222 H   0  0  0  0  0  0  0  0  0  0  0  0
    2.1098    9.2695   19.0301 H   0  0  0  0  0  0  0  0  0  0  0  0
 26 27  1  0  0  0
 27 28  2  0  0  0
 27 24  1  0  0  0
 24 23  1  0  0  0
 23 22  1  0  0  0
 22 21  1  0  0  0
 21  1  1  0  0  0
  1  2  1  0  0  0
  2  3  1  0  0  0
  3  4  2  0  0  0
  3  6  1  0  0  0
  6  7  1  0  0  0
  7  8  1  0  0  0
  8  9  2  0  0  0
  9 10  1  0  0  0
 10 11  2  0  0  0
 11 12  1  0  0  0
 12 13  2  0  0  0
 13 14  1  0  0  0
 14 15  1  0  0  0
  1 17  1  0  0  0
 17 18  1  0  0  0
 17 19  2  0  0  0
 15  6  1  0  0  0
 13  8  1  0  0  0
 26 29  1  0  0  0
 26 30  1  0  0  0
 28 31  1  0  0  0
 24 25  1  0  0  0
  2  5  1  0  0  0
 15 16  1  0  0  0
 18 20  1  0  0  0
M  END
> <minimizedAffinity>
-6.33132

> <CNNscore>
0.2202854156

> <CNNaffinity>
5.0312523842

> <CNN_VS>
1.1083115339

> <CNNaffinity_variance>
0.1798626631

$$$$
[H]N=C(N([H])[H])N([H])C([H])([H])C([H])([H])C([H])([H])[C@@]([H])(C(=O)O[H])N([H])C(=O)[C@@]1([H])N([H])C([H])([H])c2c([H])c([H])c([H])c([H])c2C1([H])[H]


 31 32  0  0  0  0  0  0  0  0999 V2000
    2.4004    3.5628   14.1976 C   0  0  0  0  0  0  0  0  0  0  0  0
    3.2264    3.3333   15.3295 N   0  0  0  0  0  0  0  0  0  0  0  0
    3.0059    3.8732   16.6563 C   0  0  0  0  0  0  0  0  0  0  0  0
    2.0411    4.6977   16.8151 O   0  0  0  0  0  0  0  0  0  0  0  0
    4.0828    2.7001   15.2399 H   0  0  0  0  0  0  0  0  0  0  0  0
    3.8167    3.4735   17.7784 C   0  0  0  0  0  0  0  0  0  0  0  0
    4.0086    2.1717   18.3597 C   0  0  0  0  0  0  0  0  0  0  0  0
    4.8122    2.3617   19.6565 C   0  0  0  0  0  0  0  0  0  0  0  0
    5.2307    1.1977   20.3167 C   0  0  0  0  0  0  0  0  0  0  0  0
    5.9215    1.3531   21.5238 C   0  0  0  0  0  0  0  0  0  0  0  0
    6.1727    2.5957   22.0275 C   0  0  0  0  0  0  0  0  0  0  0  0
    5.7485    3.7442   21.3533 C   0  0  0  0  0  0  0  0  0  0  0  0
    5.0806    3.5957   20.1763 C   0  0  0  0  0  0  0  0  0  0  0  0
    4.7173    4.8638   19.4245 C   0  0  0  0  0  0  0  0  0  0  0  0
    3.4740    4.5444   18.8214 N   0  0  0  0  0  0  0  0  0  0  0  0
    2.8490    4.0076   19.5169 H   0  0  0  0  0  0  0  0  0  0  0  0
    1.8805    2.3727   13.5571 C   0  0  0  0  0  0  0  0  0  0  0  0
    0.5981    1.8611   13.8837 O   0  0  0  0  0  0  0  0  0  0  0  0
    2.5088    1.7209   12.6933 O   0  0  0  0  0  0  0  0  0  0  0  0
    0.5031    1.4445   14.8147 H   0  0  0  0  0  0  0  0  0  0  0  0
    2.7879    4.7207   13.3890 C   0  0  0  0  0  0  0  0  0  0  0  0
    4.2668    4.7827   13.0013 C   0  0  0  0  0  0  0  0  0  0  0  0
    4.3556    5.4399   11.6639 C   0  0  0  0  0  0  0  0  0  0  0  0
    5.2680    6.4986   11.5439 N   0  0  0  0  0  0  0  0  0  0  0  0
    6.1887    6.4510   12.1615 H   0  0  0  0  0  0  0  0  0  0  0  0
    6.4245    8.4800   10.7007 N   0  0  0  0  0  0  0  0  0  0  0  0
    5.2335    7.6493   10.7492 C   0  0  0  0  0  0  0  0  0  0  0  0
    4.2451    7.9746   10.0314 N   0  0  0  0  0  0  0  0  0  0  0  0
    7.2586    8.1622   10.1405 H   0  0  0  0  0  0  0  0  0  0  0  0
    6.4176    9.3741   11.2247 H   0  0  0  0  0  0  0  0  0  0  0  0
    4.2876    8.8230    9.4105 H   0  0  0  0  0  0  0  0  0  0  0  0
 26 27  1  0  0  0
 27 28  2  0  0  0
 27 24  1  0  0  0
 24 23  1  0  0  0
 23 22  1  0  0  0
 22 21  1  0  0  0
 21  1  1  0  0  0
  1  2  1  0  0  0
  2  3  1  0  0  0
  3  4  2  0  0  0
  3  6  1  0  0  0
  6  7  1  0  0  0
  7  8  1  0  0  0
  8  9  2  0  0  0
  9 10  1  0  0  0
 10 11  2  0  0  0
 11 12  1  0  0  0
 12 13  2  0  0  0
 13 14  1  0  0  0
 14 15  1  0  0  0
  1 17  1  0  0  0
 17 18  1  0  0  0
 17 19  2  0  0  0
 15  6  1  0  0  0
 13  8  1  0  0  0
 26 29  1  0  0  0
 26 30  1  0  0  0
 28 31  1  0  0  0
 24 25  1  0  0  0
  2  5  1  0  0  0
 15 16  1  0  0  0
 18 20  1  0  0  0
M  END
> <minimizedAffinity>
-6.61146

> <CNNscore>
0.2128634155

> <CNNaffinity>
4.7608537674

> <CNN_VS>
1.0134116411

> <CNNaffinity_variance>
0.4978183210

$$$$
[H]N=C(N([H])[H])N([H])C([H])([H])C([H])([H])C([H])([H])[C@@]([H])(C(=O)O[H])N([H])C(=O)[C@@]1([H])N([H])C([H])([H])c2c([H])c([H])c([H])c([H])c2C1([H])[H]


 31 32  0  0  0  0  0  0  0  0999 V2000
    2.8057    6.4148   15.2621 C   0  0  0  0  0  0  0  0  0  0  0  0
    2.8303    5.9262   16.5951 N   0  0  0  0  0  0  0  0  0  0  0  0
    3.6442    4.8268   17.0740 C   0  0  0  0  0  0  0  0  0  0  0  0
    4.3365    4.1763   16.2178 O   0  0  0  0  0  0  0  0  0  0  0  0
    2.2244    6.3936   17.3413 H   0  0  0  0  0  0  0  0  0  0  0  0
    3.7104    4.4903   18.4736 C   0  0  0  0  0  0  0  0  0  0  0  0
    3.5729    5.3325   19.6317 C   0  0  0  0  0  0  0  0  0  0  0  0
    3.9366    4.4850   20.8617 C   0  0  0  0  0  0  0  0  0  0  0  0
    3.7370    5.0758   22.1175 C   0  0  0  0  0  0  0  0  0  0  0  0
    4.1085    4.3356   23.2456 C   0  0  0  0  0  0  0  0  0  0  0  0
    4.6423    3.0872   23.1145 C   0  0  0  0  0  0  0  0  0  0  0  0
    4.8319    2.5147   21.8536 C   0  0  0  0  0  0  0  0  0  0  0  0
    4.4668    3.2309   20.7549 C   0  0  0  0  0  0  0  0  0  0  0  0
    4.5990    2.5431   19.4077 C   0  0  0  0  0  0  0  0  0  0  0  0
    4.9577    3.5998   18.5323 N   0  0  0  0  0  0  0  0  0  0  0  0
    5.6862    4.2415   19.0010 H   0  0  0  0  0  0  0  0  0  0  0  0
    2.0785    5.5963   14.3144 C   0  0  0  0  0  0  0  0  0  0  0  0
    2.6771    4.4600   13.7114 O   0  0  0  0  0  0  0  0  0  0  0  0
    0.9001    5.8264   13.9621 O   0  0  0  0  0  0  0  0  0  0  0  0
    3.4199    4.6495   13.0319 H   0  0  0  0  0  0  0  0  0  0  0  0
    4.0282    7.1064   14.8471 C   0  0  0  0  0  0  0  0  0  0  0  0
    4.5321    8.1810   15.8127 C   0  0  0  0  0  0  0  0  0  0  0  0
    5.0131    9.3332   14.9945 C   0  0  0  0  0  0  0  0  0  0  0  0
    5.0832    9.1328   13.6080 N   0  0  0  0  0  0  0  0  0  0  0  0
    4.1520    9.2822   13.0232 H   0  0  0  0  0  0  0  0  0  0  0  0
    7.4784    8.6956   13.3931 N   0  0  0  0  0  0  0  0  0  0  0  0
    6.1589    8.7713   12.7899 C   0  0  0  0  0  0  0  0  0  0  0  0
    6.0365    8.4555   11.5721 N   0  0  0  0  0  0  0  0  0  0  0  0
    7.7219    7.8782   14.0122 H   0  0  0  0  0  0  0  0  0  0  0  0
    8.1514    9.4577   13.1923 H   0  0  0  0  0  0  0  0  0  0  0  0
    6.8697    8.1404   11.0120 H   0  0  0  0  0  0  0  0  0  0  0  0
 26 27  1  0  0  0
 27 28  2  0  0  0
 27 24  1  0  0  0
 24 23  1  0  0  0
 23 22  1  0  0  0
 22 21  1  0  0  0
 21  1  1  0  0  0
  1  2  1  0  0  0
  2  3  1  0  0  0
  3  4  2  0  0  0
  3  6  1  0  0  0
  6  7  1  0  0  0
  7  8  1  0  0  0
  8  9  2  0  0  0
  9 10  1  0  0  0
 10 11  2  0  0  0
 11 12  1  0  0  0
 12 13  2  0  0  0
 13 14  1  0  0  0
 14 15  1  0  0  0
  1 17  1  0  0  0
 17 18  1  0  0  0
 17 19  2  0  0  0
 15  6  1  0  0  0
 13  8  1  0  0  0
 26 29  1  0  0  0
 26 30  1  0  0  0
 28 31  1  0  0  0
 24 25  1  0  0  0
  2  5  1  0  0  0
 15 16  1  0  0  0
 18 20  1  0  0  0
M  END
> <minimizedAffinity>
-6.00290

> <CNNscore>
0.2061565071

> <CNNaffinity>
4.3998870850

> <CNN_VS>
0.9070653319

> <CNNaffinity_variance>
0.4417711198

$$$$
[H]N=C(N([H])[H])N([H])C([H])([H])C([H])([H])C([H])([H])[C@@]([H])(C(=O)O[H])N([H])C(=O)[C@@]1([H])N([H])C([H])([H])c2c([H])c([H])c([H])c([H])c2C1([H])[H]


 31 32  0  0  0  0  0  0  0  0999 V2000
    1.7311    5.9453   11.0971 C   0  0  0  0  0  0  0  0  0  0  0  0
    1.9670    4.9966   12.1269 N   0  0  0  0  0  0  0  0  0  0  0  0
    3.0081    5.0852   13.1312 C   0  0  0  0  0  0  0  0  0  0  0  0
    3.8468    6.0466   13.0417 O   0  0  0  0  0  0  0  0  0  0  0  0
    1.3334    4.1400   12.2124 H   0  0  0  0  0  0  0  0  0  0  0  0
    3.0850    4.1486   14.2235 C   0  0  0  0  0  0  0  0  0  0  0  0
    4.0330    4.0665   15.3024 C   0  0  0  0  0  0  0  0  0  0  0  0
    3.7581    2.7554   16.0566 C   0  0  0  0  0  0  0  0  0  0  0  0
    4.4850    2.5407   17.2362 C   0  0  0  0  0  0  0  0  0  0  0  0
    4.2816    1.3304   17.9086 C   0  0  0  0  0  0  0  0  0  0  0  0
    3.4055    0.4035   17.4247 C   0  0  0  0  0  0  0  0  0  0  0  0
    2.6888    0.6370   16.2476 C   0  0  0  0  0  0  0  0  0  0  0  0
    2.8814    1.8158   15.5943 C   0  0  0  0  0  0  0  0  0  0  0  0
    2.0188    2.0762   14.3722 C   0  0  0  0  0  0  0  0  0  0  0  0
    2.8784    2.8058   13.5118 N   0  0  0  0  0  0  0  0  0  0  0  0
    3.8675    2.3769   13.5214 H   0  0  0  0  0  0  0  0  0  0  0  0
    0.4679    6.6487   11.1786 C   0  0  0  0  0  0  0  0  0  0  0  0
   -0.2231    7.0592   10.0094 O   0  0  0  0  0  0  0  0  0  0  0  0
   -0.0919    6.9432   12.2582 O   0  0  0  0  0  0  0  0  0  0  0  0
    0.2070    7.8206    9.4761 H   0  0  0  0  0  0  0  0  0  0  0  0
    2.2792    5.5718    9.7913 C   0  0  0  0  0  0  0  0  0  0  0  0
    3.2030    6.6085    9.1486 C   0  0  0  0  0  0  0  0  0  0  0  0
    4.5959    6.0761    9.2174 C   0  0  0  0  0  0  0  0  0  0  0  0
    5.3080    6.3314   10.3986 N   0  0  0  0  0  0  0  0  0  0  0  0
    5.4956    5.4733   11.0767 H   0  0  0  0  0  0  0  0  0  0  0  0
    6.0147    8.6336    9.9802 N   0  0  0  0  0  0  0  0  0  0  0  0
    5.8557    7.5181   10.8974 C   0  0  0  0  0  0  0  0  0  0  0  0
    6.1676    7.6891   12.1104 N   0  0  0  0  0  0  0  0  0  0  0  0
    5.1697    9.1902    9.6857 H   0  0  0  0  0  0  0  0  0  0  0  0
    6.9685    8.8530    9.6393 H   0  0  0  0  0  0  0  0  0  0  0  0
    6.5281    8.6186   12.4469 H   0  0  0  0  0  0  0  0  0  0  0  0
 26 27  1  0  0  0
 27 28  2  0  0  0
 27 24  1  0  0  0
 24 23  1  0  0  0
 23 22  1  0  0  0
 22 21  1  0  0  0
 21  1  1  0  0  0
  1  2  1  0  0  0
  2  3  1  0  0  0
  3  4  2  0  0  0
  3  6  1  0  0  0
  6  7  1  0  0  0
  7  8  1  0  0  0
  8  9  2  0  0  0
  9 10  1  0  0  0
 10 11  2  0  0  0
 11 12  1  0  0  0
 12 13  2  0  0  0
 13 14  1  0  0  0
 14 15  1  0  0  0
  1 17  1  0  0  0
 17 18  1  0  0  0
 17 19  2  0  0  0
 15  6  1  0  0  0
 13  8  1  0  0  0
 26 29  1  0  0  0
 26 30  1  0  0  0
 28 31  1  0  0  0
 24 25  1  0  0  0
  2  5  1  0  0  0
 15 16  1  0  0  0
 18 20  1  0  0  0
M  END
> <minimizedAffinity>
-5.77458

> <CNNscore>
0.2027000934

> <CNNaffinity>
4.2074255943

> <CNN_VS>
0.8528455496

> <CNNaffinity_variance>
0.3844909072

$$$$
[H]N=C(N([H])[H])N([H])C([H])([H])C([H])([H])C([H])([H])[C@@]([H])(C(=O)O[H])N([H])C(=O)[C@@]1([H])N([H])C([H])([H])c2c([H])c([H])c([H])c([H])c2C1([H])[H]


 31 32  0  0  0  0  0  0  0  0999 V2000
    2.7947    4.5744   15.2586 C   0  0  0  0  0  0  0  0  0  0  0  0
    2.8535    4.2067   16.6288 N   0  0  0  0  0  0  0  0  0  0  0  0
    4.0352    4.2633   17.4660 C   0  0  0  0  0  0  0  0  0  0  0  0
    5.1442    4.5851   16.9162 O   0  0  0  0  0  0  0  0  0  0  0  0
    1.9682    3.8714   17.1252 H   0  0  0  0  0  0  0  0  0  0  0  0
    3.9703    4.0048   18.8820 C   0  0  0  0  0  0  0  0  0  0  0  0
    3.8483    4.9236   19.9822 C   0  0  0  0  0  0  0  0  0  0  0  0
    4.0341    4.1165   21.2774 C   0  0  0  0  0  0  0  0  0  0  0  0
    3.8166    4.7980   22.4832 C   0  0  0  0  0  0  0  0  0  0  0  0
    4.0285    4.0906   23.6720 C   0  0  0  0  0  0  0  0  0  0  0  0
    4.4304    2.7873   23.6446 C   0  0  0  0  0  0  0  0  0  0  0  0
    4.6404    2.1248   22.4319 C   0  0  0  0  0  0  0  0  0  0  0  0
    4.4301    2.8095   21.2741 C   0  0  0  0  0  0  0  0  0  0  0  0
    4.5763    2.0333   19.9774 C   0  0  0  0  0  0  0  0  0  0  0  0
    5.1061    2.9928   19.0773 N   0  0  0  0  0  0  0  0  0  0  0  0
    5.8673    3.5808   19.5643 H   0  0  0  0  0  0  0  0  0  0  0  0
    1.9788    5.7332   14.9614 C   0  0  0  0  0  0  0  0  0  0  0  0
    2.5552    7.0212   14.8137 O   0  0  0  0  0  0  0  0  0  0  0  0
    0.7363    5.6874   14.8206 O   0  0  0  0  0  0  0  0  0  0  0  0
    2.9191    7.4525   15.6686 H   0  0  0  0  0  0  0  0  0  0  0  0
    2.8327    3.4459   14.3258 C   0  0  0  0  0  0  0  0  0  0  0  0
    2.9697    3.8220   12.8490 C   0  0  0  0  0  0  0  0  0  0  0  0
    4.3207    4.4283   12.6611 C   0  0  0  0  0  0  0  0  0  0  0  0
    4.3567    5.7889   12.3218 N   0  0  0  0  0  0  0  0  0  0  0  0
    3.5870    6.4480   12.7742 H   0  0  0  0  0  0  0  0  0  0  0  0
    4.8287    7.8330   11.0675 N   0  0  0  0  0  0  0  0  0  0  0  0
    5.2261    6.5004   11.4882 C   0  0  0  0  0  0  0  0  0  0  0  0
    6.3584    6.0697   11.1274 N   0  0  0  0  0  0  0  0  0  0  0  0
    4.8867    8.6337   11.7504 H   0  0  0  0  0  0  0  0  0  0  0  0
    4.4969    7.9588   10.0938 H   0  0  0  0  0  0  0  0  0  0  0  0
    6.9984    6.6650   10.5416 H   0  0  0  0  0  0  0  0  0  0  0  0
 26 27  1  0  0  0
 27 28  2  0  0  0
 27 24  1  0  0  0
 24 23  1  0  0  0
 23 22  1  0  0  0
 22 21  1  0  0  0
 21  1  1  0  0  0
  1  2  1  0  0  0
  2  3  1  0  0  0
  3  4  2  0  0  0
  3  6  1  0  0  0
  6  7  1  0  0  0
  7  8  1  0  0  0
  8  9  2  0  0  0
  9 10  1  0  0  0
 10 11  2  0  0  0
 11 12  1  0  0  0
 12 13  2  0  0  0
 13 14  1  0  0  0
 14 15  1  0  0  0
  1 17  1  0  0  0
 17 18  1  0  0  0
 17 19  2  0  0  0
 15  6  1  0  0  0
 13  8  1  0  0  0
 26 29  1  0  0  0
 26 30  1  0  0  0
 28 31  1  0  0  0
 24 25  1  0  0  0
  2  5  1  0  0  0
 15 16  1  0  0  0
 18 20  1  0  0  0
M  END
> <minimizedAffinity>
-6.07557

> <CNNscore>
0.1992925256

> <CNNaffinity>
4.7584609985

> <CNN_VS>
0.9483256936

> <CNNaffinity_variance>
0.6716413498

$$$$
[H]N=C(N([H])[H])N([H])C([H])([H])C([H])([H])C([H])([H])[C@@]([H])(C(=O)O[H])N([H])C(=O)[C@@]1([H])N([H])C([H])([H])c2c([H])c([H])c([H])c([H])c2C1([H])[H]


 31 32  0  0  0  0  0  0  0  0999 V2000
    4.8610    2.9949   20.9530 C   0  0  0  0  0  0  0  0  0  0  0  0
    4.4375    2.8918   19.6017 N   0  0  0  0  0  0  0  0  0  0  0  0
    4.9065    3.7174   18.5068 C   0  0  0  0  0  0  0  0  0  0  0  0
    5.7018    4.6808   18.7808 O   0  0  0  0  0  0  0  0  0  0  0  0
    3.7268    2.1426   19.3257 H   0  0  0  0  0  0  0  0  0  0  0  0
    4.5271    3.4493   17.1429 C   0  0  0  0  0  0  0  0  0  0  0  0
    4.5085    4.3253   16.0020 C   0  0  0  0  0  0  0  0  0  0  0  0
    3.8241    3.5680   14.8524 C   0  0  0  0  0  0  0  0  0  0  0  0
    3.8221    4.1926   13.5972 C   0  0  0  0  0  0  0  0  0  0  0  0
    3.1611    3.5383   12.5515 C   0  0  0  0  0  0  0  0  0  0  0  0
    2.5469    2.3380   12.7588 C   0  0  0  0  0  0  0  0  0  0  0  0
    2.5615    1.7306   14.0175 C   0  0  0  0  0  0  0  0  0  0  0  0
    3.2081    2.3629   15.0351 C   0  0  0  0  0  0  0  0  0  0  0  0
    3.2849    1.6317   16.3636 C   0  0  0  0  0  0  0  0  0  0  0  0
    3.2138    2.6771   17.3194 N   0  0  0  0  0  0  0  0  0  0  0  0
    2.4709    3.4012   17.0258 H   0  0  0  0  0  0  0  0  0  0  0  0
    5.2038    1.7422   21.5934 C   0  0  0  0  0  0  0  0  0  0  0  0
    4.2002    0.8638   22.0774 O   0  0  0  0  0  0  0  0  0  0  0  0
    6.3802    1.3528   21.7671 O   0  0  0  0  0  0  0  0  0  0  0  0
    3.6809    1.1833   22.9005 H   0  0  0  0  0  0  0  0  0  0  0  0
    4.1950    4.0512   21.7183 C   0  0  0  0  0  0  0  0  0  0  0  0
    5.0559    4.7263   22.7880 C   0  0  0  0  0  0  0  0  0  0  0  0
    5.8282    5.8173   22.1235 C   0  0  0  0  0  0  0  0  0  0  0  0
    6.0792    6.9653   22.8894 N   0  0  0  0  0  0  0  0  0  0  0  0
    5.2851    7.7397   22.9232 H   0  0  0  0  0  0  0  0  0  0  0  0
    6.9744    8.1908   24.8054 N   0  0  0  0  0  0  0  0  0  0  0  0
    7.1910    7.3263   23.6581 C   0  0  0  0  0  0  0  0  0  0  0  0
    8.3604    6.8985   23.4409 N   0  0  0  0  0  0  0  0  0  0  0  0
    6.5429    7.7951   25.6816 H   0  0  0  0  0  0  0  0  0  0  0  0
    7.2565    9.1850   24.7276 H   0  0  0  0  0  0  0  0  0  0  0  0
    9.1552    7.1585   24.0796 H   0  0  0  0  0  0  0  0  0  0  0  0
 26 27  1  0  0  0
 27 28  2  0  0  0
 27 24  1  0  0  0
 24 23  1  0  0  0
 23 22  1  0  0  0
 22 21  1  0  0  0
 21  1  1  0  0  0
  1  2  1  0  0  0
  2  3  1  0  0  0
  3  4  2  0  0  0
  3  6  1  0  0  0
  6  7  1  0  0  0
  7  8  1  0  0  0
  8  9  2  0  0  0
  9 10  1  0  0  0
 10 11  2  0  0  0
 11 12  1  0  0  0
 12 13  2  0  0  0
 13 14  1  0  0  0
 14 15  1  0  0  0
  1 17  1  0  0  0
 17 18  1  0  0  0
 17 19  2  0  0  0
 15  6  1  0  0  0
 13  8  1  0  0  0
 26 29  1  0  0  0
 26 30  1  0  0  0
 28 31  1  0  0  0
 24 25  1  0  0  0
  2  5  1  0  0  0
 15 16  1  0  0  0
 18 20  1  0  0  0
M  END
> <minimizedAffinity>
-6.61158

> <CNNscore>
0.1983280331

> <CNNaffinity>
4.9651713371

> <CNN_VS>
0.9847326875

> <CNNaffinity_variance>
0.2572563291

$$$$
[H]C1=C(C(=O)[O-])N2C(=O)/C(=C(\[H])c3sc4c(c3[H])OC([H])([H])C(=O)C4([H])[H])[C@@]2([H])S1


 22 25  0  0  0  0  0  0  0  0999 V2000
    2.6651    5.6076   13.6813 C   0  0  0  0  0  0  0  0  0  0  0  0
    3.1103    6.1332   14.7961 C   0  0  0  0  0  0  0  0  0  0  0  0
    3.1464    4.8015   15.9932 S   0  0  0  0  0  0  0  0  0  0  0  0
    2.0182    3.7098   15.0175 C   0  0  0  0  0  0  0  0  0  0  0  0
    2.3887    4.2383   13.7083 N   0  0  0  0  0  0  0  0  0  0  0  0
    2.2409    2.8999   13.2208 C   0  0  0  0  0  0  0  0  0  0  0  0
    1.9532    2.3261   12.1383 O   0  0  0  0  0  0  0  0  0  0  0  0
    2.5847    2.4625   14.5894 C   0  0  0  0  0  0  0  0  0  0  0  0
    3.1438    1.3823   15.0288 C   0  0  0  0  0  0  0  0  0  0  0  0
    3.3428    1.2116   16.4775 C   0  0  0  0  0  0  0  0  0  0  0  0
    2.6518    0.3955   17.3284 C   0  0  0  0  0  0  0  0  0  0  0  0
    3.0003    0.4367   18.6418 C   0  0  0  0  0  0  0  0  0  0  0  0
    2.3688   -0.3577   19.6524 O   0  0  0  0  0  0  0  0  0  0  0  0
    2.9594   -0.4375   20.9258 C   0  0  0  0  0  0  0  0  0  0  0  0
    3.5461    0.8810   21.3284 C   0  0  0  0  0  0  0  0  0  0  0  0
    3.2587    1.4613   22.3528 O   0  0  0  0  0  0  0  0  0  0  0  0
    4.5181    1.4670   20.4013 C   0  0  0  0  0  0  0  0  0  0  0  0
    4.0084    1.2897   18.9870 C   0  0  0  0  0  0  0  0  0  0  0  0
    4.4439    2.0049   17.4947 S   0  0  0  0  0  0  0  0  0  0  0  0
    1.7090    7.5551   12.5174 O   0  0  0  0  0  0  0  0  0  0  0  0
    2.4998    6.4183   12.4558 C   0  0  0  0  0  0  0  0  0  0  0  0
    3.0643    6.0852   11.3801 O   0  0  0  0  0  0  0  0  0  0  0  0
 20 21  1  0  0  0
 21 22  2  0  0  0
 21  1  1  0  0  0
  1  2  2  0  0  0
  2  3  1  0  0  0
  3  4  1  0  0  0
  4  5  1  0  0  0
  5  6  1  0  0  0
  6  7  2  0  0  0
  6  8  1  0  0  0
  8  9  2  0  0  0
  9 10  1  0  0  0
 10 11  2  0  0  0
 11 12  1  0  0  0
 12 13  1  0  0  0
 13 14  1  0  0  0
 14 15  1  0  0  0
 15 16  2  0  0  0
 15 17  1  0  0  0
 17 18  1  0  0  0
 18 19  1  0  0  0
  5  1  1  0  0  0
 19 10  1  0  0  0
  8  4  1  0  0  0
 18 12  2  0  0  0
M  CHG 1  20  -1
M  END
> <minimizedAffinity>
-6.77324

> <CNNscore>
0.4231843948

> <CNNaffinity>
5.3806238174

> <CNN_VS>
2.2769961357

> <CNNaffinity_variance>
0.3659515381

$$$$
[H]C1=C(C(=O)[O-])N2C(=O)/C(=C(\[H])c3sc4c(c3[H])OC([H])([H])C(=O)C4([H])[H])[C@@]2([H])S1


 22 25  0  0  0  0  0  0  0  0999 V2000
    3.0840    5.2215   15.0203 C   0  0  0  0  0  0  0  0  0  0  0  0
    3.2356    6.0581   16.0176 C   0  0  0  0  0  0  0  0  0  0  0  0
    3.3420    5.0534   17.4965 S   0  0  0  0  0  0  0  0  0  0  0  0
    2.6183    3.5532   16.6952 C   0  0  0  0  0  0  0  0  0  0  0  0
    3.0805    3.8627   15.3457 N   0  0  0  0  0  0  0  0  0  0  0  0
    3.2767    2.4538   15.1815 C   0  0  0  0  0  0  0  0  0  0  0  0
    3.2820    1.6140   14.2441 O   0  0  0  0  0  0  0  0  0  0  0  0
    3.4786    2.4055   16.6442 C   0  0  0  0  0  0  0  0  0  0  0  0
    4.1618    1.5984   17.3888 C   0  0  0  0  0  0  0  0  0  0  0  0
    4.1586    1.7877   18.8488 C   0  0  0  0  0  0  0  0  0  0  0  0
    4.7234    2.8064   19.5634 C   0  0  0  0  0  0  0  0  0  0  0  0
    4.6159    2.7441   20.9172 C   0  0  0  0  0  0  0  0  0  0  0  0
    5.1560    3.7346   21.7995 O   0  0  0  0  0  0  0  0  0  0  0  0
    4.7791    3.7204   23.1539 C   0  0  0  0  0  0  0  0  0  0  0  0
    4.6539    2.3161   23.6610 C   0  0  0  0  0  0  0  0  0  0  0  0
    5.2516    1.8931   24.6266 O   0  0  0  0  0  0  0  0  0  0  0  0
    3.7467    1.4378   22.9170 C   0  0  0  0  0  0  0  0  0  0  0  0
    3.9531    1.6693   21.4354 C   0  0  0  0  0  0  0  0  0  0  0  0
    3.4992    0.7818   20.0445 S   0  0  0  0  0  0  0  0  0  0  0  0
    3.8478    5.2077   12.6798 O   0  0  0  0  0  0  0  0  0  0  0  0
    2.9591    5.6954   13.6253 C   0  0  0  0  0  0  0  0  0  0  0  0
    2.0660    6.5228   13.3017 O   0  0  0  0  0  0  0  0  0  0  0  0
 20 21  1  0  0  0
 21 22  2  0  0  0
 21  1  1  0  0  0
  1  2  2  0  0  0
  2  3  1  0  0  0
  3  4  1  0  0  0
  4  5  1  0  0  0
  5  6  1  0  0  0
  6  7  2  0  0  0
  6  8  1  0  0  0
  8  9  2  0  0  0
  9 10  1  0  0  0
 10 11  2  0  0  0
 11 12  1  0  0  0
 12 13  1  0  0  0
 13 14  1  0  0  0
 14 15  1  0  0  0
 15 16  2  0  0  0
 15 17  1  0  0  0
 17 18  1  0  0  0
 18 19  1  0  0  0
  5  1  1  0  0  0
 19 10  1  0  0  0
  8  4  1  0  0  0
 18 12  2  0  0  0
M  CHG 1  20  -1
M  END
> <minimizedAffinity>
-7.41094

> <CNNscore>
0.4015389681

> <CNNaffinity>
5.5588264465

> <CNN_VS>
2.2320854664

> <CNNaffinity_variance>
0.8253080249

$$$$
[H]C1=C(C(=O)[O-])N2C(=O)/C(=C(\[H])c3sc4c(c3[H])OC([H])([H])C(=O)C4([H])[H])[C@@]2([H])S1


 22 25  0  0  0  0  0  0  0  0999 V2000
    2.7659    2.2700   14.8644 C   0  0  0  0  0  0  0  0  0  0  0  0
    2.5548    1.3187   15.7408 C   0  0  0  0  0  0  0  0  0  0  0  0
    3.2858    1.8855   17.2745 S   0  0  0  0  0  0  0  0  0  0  0  0
    4.3240    3.1805   16.4609 C   0  0  0  0  0  0  0  0  0  0  0  0
    3.4271    3.4085   15.3321 N   0  0  0  0  0  0  0  0  0  0  0  0
    3.8034    4.7873   15.4214 C   0  0  0  0  0  0  0  0  0  0  0  0
    3.8962    5.7821   14.6561 O   0  0  0  0  0  0  0  0  0  0  0  0
    4.0462    4.5319   16.8562 C   0  0  0  0  0  0  0  0  0  0  0  0
    3.9952    5.3124   17.8861 C   0  0  0  0  0  0  0  0  0  0  0  0
    4.3153    4.7710   19.2173 C   0  0  0  0  0  0  0  0  0  0  0  0
    5.1291    3.7158   19.5197 C   0  0  0  0  0  0  0  0  0  0  0  0
    5.2424    3.3804   20.8323 C   0  0  0  0  0  0  0  0  0  0  0  0
    6.0554    2.3000   21.3048 O   0  0  0  0  0  0  0  0  0  0  0  0
    6.3099    2.1897   22.6831 C   0  0  0  0  0  0  0  0  0  0  0  0
    5.1005    2.5656   23.4836 C   0  0  0  0  0  0  0  0  0  0  0  0
    4.5883    1.8421   24.3099 O   0  0  0  0  0  0  0  0  0  0  0  0
    4.5367    3.8924   23.2200 C   0  0  0  0  0  0  0  0  0  0  0  0
    4.5325    4.1301   21.7250 C   0  0  0  0  0  0  0  0  0  0  0  0
    3.7344    5.2711   20.7302 S   0  0  0  0  0  0  0  0  0  0  0  0
    3.0464    2.7493   12.4658 O   0  0  0  0  0  0  0  0  0  0  0  0
    2.2963    2.1527   13.4673 C   0  0  0  0  0  0  0  0  0  0  0  0
    1.2395    1.5250   13.1917 O   0  0  0  0  0  0  0  0  0  0  0  0
 20 21  1  0  0  0
 21 22  2  0  0  0
 21  1  1  0  0  0
  1  2  2  0  0  0
  2  3  1  0  0  0
  3  4  1  0  0  0
  4  5  1  0  0  0
  5  6  1  0  0  0
  6  7  2  0  0  0
  6  8  1  0  0  0
  8  9  2  0  0  0
  9 10  1  0  0  0
 10 11  2  0  0  0
 11 12  1  0  0  0
 12 13  1  0  0  0
 13 14  1  0  0  0
 14 15  1  0  0  0
 15 16  2  0  0  0
 15 17  1  0  0  0
 17 18  1  0  0  0
 18 19  1  0  0  0
  5  1  1  0  0  0
 19 10  1  0  0  0
  8  4  1  0  0  0
 18 12  2  0  0  0
M  CHG 1  20  -1
M  END
> <minimizedAffinity>
-6.76945

> <CNNscore>
0.3956067562

> <CNNaffinity>
5.5252723694

> <CNN_VS>
2.1858351231

> <CNNaffinity_variance>
0.8941545486

$$$$
[H]C1=C(C(=O)[O-])N2C(=O)/C(=C(\[H])c3sc4c(c3[H])OC([H])([H])C(=O)C4([H])[H])[C@@]2([H])S1


 22 25  0  0  0  0  0  0  0  0999 V2000
    4.4772    4.8613   21.0364 C   0  0  0  0  0  0  0  0  0  0  0  0
    3.6982    5.6366   20.3226 C   0  0  0  0  0  0  0  0  0  0  0  0
    3.5198    4.8325   18.7322 S   0  0  0  0  0  0  0  0  0  0  0  0
    4.9873    3.7339   18.9690 C   0  0  0  0  0  0  0  0  0  0  0  0
    4.9044    3.6797   20.4252 N   0  0  0  0  0  0  0  0  0  0  0  0
    5.3372    2.3192   20.3142 C   0  0  0  0  0  0  0  0  0  0  0  0
    5.9627    1.4777   21.0103 O   0  0  0  0  0  0  0  0  0  0  0  0
    4.7090    2.3260   18.9770 C   0  0  0  0  0  0  0  0  0  0  0  0
    4.1936    1.3755   18.2675 C   0  0  0  0  0  0  0  0  0  0  0  0
    3.6506    1.6843   16.9343 C   0  0  0  0  0  0  0  0  0  0  0  0
    4.0970    2.6191   16.0431 C   0  0  0  0  0  0  0  0  0  0  0  0
    3.4044    2.7428   14.8799 C   0  0  0  0  0  0  0  0  0  0  0  0
    3.7491    3.6767   13.8502 O   0  0  0  0  0  0  0  0  0  0  0  0
    3.1385    3.5583   12.5893 C   0  0  0  0  0  0  0  0  0  0  0  0
    1.7018    3.1554   12.7249 C   0  0  0  0  0  0  0  0  0  0  0  0
    0.7793    3.7812   12.2496 O   0  0  0  0  0  0  0  0  0  0  0  0
    1.4425    1.9287   13.4837 C   0  0  0  0  0  0  0  0  0  0  0  0
    2.3278    1.9208   14.7115 C   0  0  0  0  0  0  0  0  0  0  0  0
    2.3049    1.0052   16.1569 S   0  0  0  0  0  0  0  0  0  0  0  0
    4.1915    4.5715   23.4645 O   0  0  0  0  0  0  0  0  0  0  0  0
    4.8512    5.2074   22.4244 C   0  0  0  0  0  0  0  0  0  0  0  0
    5.7488    6.0598   22.6580 O   0  0  0  0  0  0  0  0  0  0  0  0
 20 21  1  0  0  0
 21 22  2  0  0  0
 21  1  1  0  0  0
  1  2  2  0  0  0
  2  3  1  0  0  0
  3  4  1  0  0  0
  4  5  1  0  0  0
  5  6  1  0  0  0
  6  7  2  0  0  0
  6  8  1  0  0  0
  8  9  2  0  0  0
  9 10  1  0  0  0
 10 11  2  0  0  0
 11 12  1  0  0  0
 12 13  1  0  0  0
 13 14  1  0  0  0
 14 15  1  0  0  0
 15 16  2  0  0  0
 15 17  1  0  0  0
 17 18  1  0  0  0
 18 19  1  0  0  0
  5  1  1  0  0  0
 19 10  1  0  0  0
  8  4  1  0  0  0
 18 12  2  0  0  0
M  CHG 1  20  -1
M  END
> <minimizedAffinity>
-7.37756

> <CNNscore>
0.3344762027

> <CNNaffinity>
5.3162679672

> <CNN_VS>
1.7781651020

> <CNNaffinity_variance>
0.5246020555

$$$$
[H]C1=C(C(=O)[O-])N2C(=O)/C(=C(\[H])c3sc4c(c3[H])OC([H])([H])C(=O)C4([H])[H])[C@@]2([H])S1


 22 25  0  0  0  0  0  0  0  0999 V2000
    0.3744    5.8315   12.8298 C   0  0  0  0  0  0  0  0  0  0  0  0
   -0.4940    5.6374   11.8678 C   0  0  0  0  0  0  0  0  0  0  0  0
    0.1275    4.2584   10.9087 S   0  0  0  0  0  0  0  0  0  0  0  0
    1.8438    4.3851   11.5831 C   0  0  0  0  0  0  0  0  0  0  0  0
    1.4601    4.9530   12.8718 N   0  0  0  0  0  0  0  0  0  0  0  0
    2.5219    4.1744   13.4349 C   0  0  0  0  0  0  0  0  0  0  0  0
    3.2989    4.2301   14.4235 O   0  0  0  0  0  0  0  0  0  0  0  0
    2.3063    3.2386   12.3122 C   0  0  0  0  0  0  0  0  0  0  0  0
    2.5119    1.9663   12.2055 C   0  0  0  0  0  0  0  0  0  0  0  0
    2.2170    1.2929   10.9300 C   0  0  0  0  0  0  0  0  0  0  0  0
    1.0371    0.7299   10.5323 C   0  0  0  0  0  0  0  0  0  0  0  0
    1.0194    0.1316    9.3117 C   0  0  0  0  0  0  0  0  0  0  0  0
   -0.1401   -0.5013    8.7583 O   0  0  0  0  0  0  0  0  0  0  0  0
   -0.1368   -0.8641    7.4000 C   0  0  0  0  0  0  0  0  0  0  0  0
    1.2105   -1.3705    6.9836 C   0  0  0  0  0  0  0  0  0  0  0  0
    1.3940   -2.4537    6.4720 O   0  0  0  0  0  0  0  0  0  0  0  0
    2.3431   -0.4731    7.2276 C   0  0  0  0  0  0  0  0  0  0  0  0
    2.1826    0.1499    8.5978 C   0  0  0  0  0  0  0  0  0  0  0  0
    3.2605    0.9898    9.6278 S   0  0  0  0  0  0  0  0  0  0  0  0
   -0.9095    6.8375   14.6740 O   0  0  0  0  0  0  0  0  0  0  0  0
    0.1908    6.9017   13.8334 C   0  0  0  0  0  0  0  0  0  0  0  0
    1.0146    7.8504   13.9240 O   0  0  0  0  0  0  0  0  0  0  0  0
 20 21  1  0  0  0
 21 22  2  0  0  0
 21  1  1  0  0  0
  1  2  2  0  0  0
  2  3  1  0  0  0
  3  4  1  0  0  0
  4  5  1  0  0  0
  5  6  1  0  0  0
  6  7  2  0  0  0
  6  8  1  0  0  0
  8  9  2  0  0  0
  9 10  1  0  0  0
 10 11  2  0  0  0
 11 12  1  0  0  0
 12 13  1  0  0  0
 13 14  1  0  0  0
 14 15  1  0  0  0
 15 16  2  0  0  0
 15 17  1  0  0  0
 17 18  1  0  0  0
 18 19  1  0  0  0
  5  1  1  0  0  0
 19 10  1  0  0  0
  8  4  1  0  0  0
 18 12  2  0  0  0
M  CHG 1  20  -1
M  END
> <minimizedAffinity>
-4.28820

> <CNNscore>
0.3178640902

> <CNNaffinity>
4.3821506500

> <CNN_VS>
1.3929283619

> <CNNaffinity_variance>
0.6624320745

$$$$
[H]C1=C(C(=O)[O-])N2C(=O)/C(=C(\[H])c3sc4c(c3[H])OC([H])([H])C(=O)C4([H])[H])[C@@]2([H])S1


 22 25  0  0  0  0  0  0  0  0999 V2000
    3.6245    0.6862    8.9089 C   0  0  0  0  0  0  0  0  0  0  0  0
    4.6101    1.5488    8.9514 C   0  0  0  0  0  0  0  0  0  0  0  0
    3.9740    2.9879    9.8069 S   0  0  0  0  0  0  0  0  0  0  0  0
    2.2026    2.5150    9.5718 C   0  0  0  0  0  0  0  0  0  0  0  0
    2.4336    1.0744    9.5279 N   0  0  0  0  0  0  0  0  0  0  0  0
    1.1896    0.9398   10.2243 C   0  0  0  0  0  0  0  0  0  0  0  0
    0.2686    0.0894   10.3364 O   0  0  0  0  0  0  0  0  0  0  0  0
    1.4609    2.2822   10.7782 C   0  0  0  0  0  0  0  0  0  0  0  0
    1.0968    2.8420   11.8858 C   0  0  0  0  0  0  0  0  0  0  0  0
    1.5096    4.2277   12.1628 C   0  0  0  0  0  0  0  0  0  0  0  0
    2.5364    4.6537   12.9576 C   0  0  0  0  0  0  0  0  0  0  0  0
    2.7015    5.9971   13.0851 C   0  0  0  0  0  0  0  0  0  0  0  0
    3.7303    6.5949   13.8822 O   0  0  0  0  0  0  0  0  0  0  0  0
    3.9809    7.9722   13.7519 C   0  0  0  0  0  0  0  0  0  0  0  0
    2.7048    8.7336   13.5594 C   0  0  0  0  0  0  0  0  0  0  0  0
    2.3567    9.6540   14.2666 O   0  0  0  0  0  0  0  0  0  0  0  0
    1.8594    8.3073   12.4408 C   0  0  0  0  0  0  0  0  0  0  0  0
    1.8257    6.7943   12.4065 C   0  0  0  0  0  0  0  0  0  0  0  0
    0.8061    5.6706   11.6154 S   0  0  0  0  0  0  0  0  0  0  0  0
    5.0476   -1.2014    8.2209 O   0  0  0  0  0  0  0  0  0  0  0  0
    3.7821   -0.6376    8.2695 C   0  0  0  0  0  0  0  0  0  0  0  0
    2.7904   -1.2408    7.7802 O   0  0  0  0  0  0  0  0  0  0  0  0
 20 21  1  0  0  0
 21 22  2  0  0  0
 21  1  1  0  0  0
  1  2  2  0  0  0
  2  3  1  0  0  0
  3  4  1  0  0  0
  4  5  1  0  0  0
  5  6  1  0  0  0
  6  7  2  0  0  0
  6  8  1  0  0  0
  8  9  2  0  0  0
  9 10  1  0  0  0
 10 11  2  0  0  0
 11 12  1  0  0  0
 12 13  1  0  0  0
 13 14  1  0  0  0
 14 15  1  0  0  0
 15 16  2  0  0  0
 15 17  1  0  0  0
 17 18  1  0  0  0
 18 19  1  0  0  0
  5  1  1  0  0  0
 19 10  1  0  0  0
  8  4  1  0  0  0
 18 12  2  0  0  0
M  CHG 1  20  -1
M  END
> <minimizedAffinity>
-4.46444

> <CNNscore>
0.2936989069

> <CNNaffinity>
4.3790478706

> <CNN_VS>
1.2861216068

> <CNNaffinity_variance>
0.7325690389

$$$$
[H]C1=C(C(=O)[O-])N2C(=O)/C(=C(\[H])c3sc4c(c3[H])OC([H])([H])C(=O)C4([H])[H])[C@@]2([H])S1


 22 25  0  0  0  0  0  0  0  0999 V2000
    4.8225    2.2708   22.5879 C   0  0  0  0  0  0  0  0  0  0  0  0
    4.4412    1.3283   21.7611 C   0  0  0  0  0  0  0  0  0  0  0  0
    4.0885    2.1445   20.2064 S   0  0  0  0  0  0  0  0  0  0  0  0
    3.9680    3.8280   20.9600 C   0  0  0  0  0  0  0  0  0  0  0  0
    4.8826    3.5658   22.0669 N   0  0  0  0  0  0  0  0  0  0  0  0
    5.3266    4.9180   21.9084 C   0  0  0  0  0  0  0  0  0  0  0  0
    5.8264    5.8271   22.6210 O   0  0  0  0  0  0  0  0  0  0  0  0
    4.9306    4.7839   20.4914 C   0  0  0  0  0  0  0  0  0  0  0  0
    5.3658    5.3652   19.4213 C   0  0  0  0  0  0  0  0  0  0  0  0
    4.7514    5.0398   18.1236 C   0  0  0  0  0  0  0  0  0  0  0  0
    3.5887    5.5309   17.5997 C   0  0  0  0  0  0  0  0  0  0  0  0
    3.2067    5.0496   16.3870 C   0  0  0  0  0  0  0  0  0  0  0  0
    2.0148    5.4663   15.7110 O   0  0  0  0  0  0  0  0  0  0  0  0
    1.8349    5.1101   14.3629 C   0  0  0  0  0  0  0  0  0  0  0  0
    2.3487    3.7274   14.1004 C   0  0  0  0  0  0  0  0  0  0  0  0
    1.6791    2.8408   13.6166 O   0  0  0  0  0  0  0  0  0  0  0  0
    3.7458    3.4760   14.4649 C   0  0  0  0  0  0  0  0  0  0  0  0
    4.0212    4.1208   15.8065 C   0  0  0  0  0  0  0  0  0  0  0  0
    5.2849    3.9417   16.9463 S   0  0  0  0  0  0  0  0  0  0  0  0
    6.5088    2.1995   24.3805 O   0  0  0  0  0  0  0  0  0  0  0  0
    5.2005    1.9679   23.9849 C   0  0  0  0  0  0  0  0  0  0  0  0
    4.3544    1.5103   24.7983 O   0  0  0  0  0  0  0  0  0  0  0  0
 20 21  1  0  0  0
 21 22  2  0  0  0
 21  1  1  0  0  0
  1  2  2  0  0  0
  2  3  1  0  0  0
  3  4  1  0  0  0
  4  5  1  0  0  0
  5  6  1  0  0  0
  6  7  2  0  0  0
  6  8  1  0  0  0
  8  9  2  0  0  0
  9 10  1  0  0  0
 10 11  2  0  0  0
 11 12  1  0  0  0
 12 13  1  0  0  0
 13 14  1  0  0  0
 14 15  1  0  0  0
 15 16  2  0  0  0
 15 17  1  0  0  0
 17 18  1  0  0  0
 18 19  1  0  0  0
  5  1  1  0  0  0
 19 10  1  0  0  0
  8  4  1  0  0  0
 18 12  2  0  0  0
M  CHG 1  20  -1
M  END
> <minimizedAffinity>
-6.15426

> <CNNscore>
0.2816384137

> <CNNaffinity>
5.5013656616

> <CNN_VS>
1.5493959188

> <CNNaffinity_variance>
0.2612958848

$$$$
[H]C1=C(C(=O)[O-])N2C(=O)/C(=C(\[H])c3sc4c(c3[H])OC([H])([H])C(=O)C4([H])[H])[C@@]2([H])S1


 22 25  0  0  0  0  0  0  0  0999 V2000
    4.2751    1.8058   19.5539 C   0  0  0  0  0  0  0  0  0  0  0  0
    4.7111    3.0416   19.5571 C   0  0  0  0  0  0  0  0  0  0  0  0
    4.5106    3.6431   17.8820 S   0  0  0  0  0  0  0  0  0  0  0  0
    4.3391    1.9545   17.1499 C   0  0  0  0  0  0  0  0  0  0  0  0
    3.7728    1.3284   18.3407 N   0  0  0  0  0  0  0  0  0  0  0  0
    2.9680    0.5524   17.4458 C   0  0  0  0  0  0  0  0  0  0  0  0
    2.4056   -0.5734   17.4325 O   0  0  0  0  0  0  0  0  0  0  0  0
    3.0851    1.6860   16.5056 C   0  0  0  0  0  0  0  0  0  0  0  0
    2.3026    2.1028   15.5640 C   0  0  0  0  0  0  0  0  0  0  0  0
    2.7002    3.2705   14.7605 C   0  0  0  0  0  0  0  0  0  0  0  0
    3.5564    3.3036   13.6960 C   0  0  0  0  0  0  0  0  0  0  0  0
    3.7942    4.5179   13.1329 C   0  0  0  0  0  0  0  0  0  0  0  0
    4.6663    4.7130   12.0137 O   0  0  0  0  0  0  0  0  0  0  0  0
    4.6525    5.9499   11.3454 C   0  0  0  0  0  0  0  0  0  0  0  0
    4.4824    7.0807   12.3135 C   0  0  0  0  0  0  0  0  0  0  0  0
    5.2492    8.0153   12.3987 O   0  0  0  0  0  0  0  0  0  0  0  0
    3.3089    7.0124   13.1887 C   0  0  0  0  0  0  0  0  0  0  0  0
    3.1546    5.5903   13.6840 C   0  0  0  0  0  0  0  0  0  0  0  0
    2.2473    4.8932   14.9564 S   0  0  0  0  0  0  0  0  0  0  0  0
    3.0985    0.8181   21.4779 O   0  0  0  0  0  0  0  0  0  0  0  0
    4.2852    0.9788   20.7796 C   0  0  0  0  0  0  0  0  0  0  0  0
    5.3465    0.4319   21.1811 O   0  0  0  0  0  0  0  0  0  0  0  0
 20 21  1  0  0  0
 21 22  2  0  0  0
 21  1  1  0  0  0
  1  2  2  0  0  0
  2  3  1  0  0  0
  3  4  1  0  0  0
  4  5  1  0  0  0
  5  6  1  0  0  0
  6  7  2  0  0  0
  6  8  1  0  0  0
  8  9  2  0  0  0
  9 10  1  0  0  0
 10 11  2  0  0  0
 11 12  1  0  0  0
 12 13  1  0  0  0
 13 14  1  0  0  0
 14 15  1  0  0  0
 15 16  2  0  0  0
 15 17  1  0  0  0
 17 18  1  0  0  0
 18 19  1  0  0  0
  5  1  1  0  0  0
 19 10  1  0  0  0
  8  4  1  0  0  0
 18 12  2  0  0  0
M  CHG 1  20  -1
M  END
> <minimizedAffinity>
-7.25737

> <CNNscore>
0.2739776969

> <CNNaffinity>
5.1981658936

> <CNN_VS>
1.4241814613

> <CNNaffinity_variance>
0.2779698670

$$$$
[H]C1=C(C(=O)[O-])N2C(=O)/C(=C(\[H])c3sc4c(c3[H])OC([H])([H])C(=O)C4([H])[H])[C@@]2([H])S1


 22 25  0  0  0  0  0  0  0  0999 V2000
    3.0454    4.4291   14.7930 C   0  0  0  0  0  0  0  0  0  0  0  0
    3.4697    3.4490   14.0335 C   0  0  0  0  0  0  0  0  0  0  0  0
    4.0683    4.2115   12.5274 S   0  0  0  0  0  0  0  0  0  0  0  0
    3.1860    5.8087   12.8226 C   0  0  0  0  0  0  0  0  0  0  0  0
    3.1929    5.7201   14.2795 N   0  0  0  0  0  0  0  0  0  0  0  0
    3.3793    7.1399   14.2799 C   0  0  0  0  0  0  0  0  0  0  0  0
    3.1227    8.1160   15.0319 O   0  0  0  0  0  0  0  0  0  0  0  0
    4.0287    6.9617   12.9649 C   0  0  0  0  0  0  0  0  0  0  0  0
    4.9388    7.6516   12.3580 C   0  0  0  0  0  0  0  0  0  0  0  0
    5.3840    7.2363   11.0176 C   0  0  0  0  0  0  0  0  0  0  0  0
    6.5312    6.5733   10.6831 C   0  0  0  0  0  0  0  0  0  0  0  0
    6.7394    6.3283    9.3622 C   0  0  0  0  0  0  0  0  0  0  0  0
    7.8928    5.6458    8.8571 O   0  0  0  0  0  0  0  0  0  0  0  0
    7.8997    5.2162    7.5184 C   0  0  0  0  0  0  0  0  0  0  0  0
    7.2269    6.2180    6.6303 C   0  0  0  0  0  0  0  0  0  0  0  0
    7.7528    6.7178    5.6596 O   0  0  0  0  0  0  0  0  0  0  0  0
    5.8556    6.5865    6.9929 C   0  0  0  0  0  0  0  0  0  0  0  0
    5.7821    6.7676    8.4940 C   0  0  0  0  0  0  0  0  0  0  0  0
    4.6281    7.5012    9.5226 S   0  0  0  0  0  0  0  0  0  0  0  0
    2.5676    2.8992   16.6619 O   0  0  0  0  0  0  0  0  0  0  0  0
    2.4748    4.1774   16.1336 C   0  0  0  0  0  0  0  0  0  0  0  0
    1.9173    5.1022   16.7823 O   0  0  0  0  0  0  0  0  0  0  0  0
 20 21  1  0  0  0
 21 22  2  0  0  0
 21  1  1  0  0  0
  1  2  2  0  0  0
  2  3  1  0  0  0
  3  4  1  0  0  0
  4  5  1  0  0  0
  5  6  1  0  0  0
  6  7  2  0  0  0
  6  8  1  0  0  0
  8  9  2  0  0  0
  9 10  1  0  0  0
 10 11  2  0  0  0
 11 12  1  0  0  0
 12 13  1  0  0  0
 13 14  1  0  0  0
 14 15  1  0  0  0
 15 16  2  0  0  0
 15 17  1  0  0  0
 17 18  1  0  0  0
 18 19  1  0  0  0
  5  1  1  0  0  0
 19 10  1  0  0  0
  8  4  1  0  0  0
 18 12  2  0  0  0
M  CHG 1  20  -1
M  END
> <minimizedAffinity>
-4.76143

> <CNNscore>
0.2630564272

> <CNNaffinity>
4.4648675919

> <CNN_VS>
1.1745121479

> <CNNaffinity_variance>
1.2284282446

$$$$
[H]OC(=O)C([H])([H])C([H])([H])[C@@]([H])(C(=O)N([H])[C@]([H])(C(=O)O[H])C([H])([H])c1c([H])c([H])c([H])c([H])c1[H])N([H])C(=O)[C@@]([H])(N([H])C(=O)[C@@]([H])(N([H])C(=O)[C@@]([H])(N([H])C(=O)c1c([H])c([H])c(S(=O)(=O)N([H])[H])c([H])c1[H])C([H])([H])c1c([H])c([H])c([H])c([H])c1[H])C([H])([H])c1c([H])c([H])c([H])c([H])c1[H])C([H])([H])c1c([H])c([H])c([H])c([H])c1[H]


 75 79  0  0  0  0  0  0  0  0999 V2000
    2.9794    5.5517   15.1344 C   0  0  0  0  0  0  0  0  0  0  0  0
    1.9769    5.4951   15.8882 O   0  0  0  0  0  0  0  0  0  0  0  0
    4.2526    5.2556   15.6302 N   0  0  0  0  0  0  0  0  0  0  0  0
    5.0400    5.3866   14.8905 H   0  0  0  0  0  0  0  0  0  0  0  0
    4.6855    4.8341   16.8895 C   0  0  0  0  0  0  0  0  0  0  0  0
    5.5083    5.8651   17.6864 C   0  0  0  0  0  0  0  0  0  0  0  0
    6.7280    5.9003   17.7456 O   0  0  0  0  0  0  0  0  0  0  0  0
    4.7486    6.8406   18.3864 N   0  0  0  0  0  0  0  0  0  0  0  0
    3.6882    6.7406   18.2729 H   0  0  0  0  0  0  0  0  0  0  0  0
    5.2229    7.9378   19.2113 C   0  0  0  0  0  0  0  0  0  0  0  0
    5.5937    7.4152   20.5182 C   0  0  0  0  0  0  0  0  0  0  0  0
    4.7488    7.6482   21.4735 O   0  0  0  0  0  0  0  0  0  0  0  0
    6.7286    6.6952   20.8811 N   0  0  0  0  0  0  0  0  0  0  0  0
    7.4591    6.4560   20.1985 H   0  0  0  0  0  0  0  0  0  0  0  0
    6.8992    6.2661   22.2614 C   0  0  0  0  0  0  0  0  0  0  0  0
    7.7634    7.1664   23.0493 C   0  0  0  0  0  0  0  0  0  0  0  0
    9.0988    6.7463   23.2570 O   0  0  0  0  0  0  0  0  0  0  0  0
    7.3350    8.2344   23.5007 O   0  0  0  0  0  0  0  0  0  0  0  0
    9.5885    7.2159   24.0109 H   0  0  0  0  0  0  0  0  0  0  0  0
    7.3331    4.8168   22.3282 C   0  0  0  0  0  0  0  0  0  0  0  0
    6.1312    3.9190   22.3868 C   0  0  0  0  0  0  0  0  0  0  0  0
    6.1297    2.6301   21.9066 C   0  0  0  0  0  0  0  0  0  0  0  0
    4.9747    1.8780   21.9986 C   0  0  0  0  0  0  0  0  0  0  0  0
    3.8138    2.3551   22.5498 C   0  0  0  0  0  0  0  0  0  0  0  0
    3.8049    3.6469   23.0347 C   0  0  0  0  0  0  0  0  0  0  0  0
    4.9485    4.4028   22.9491 C   0  0  0  0  0  0  0  0  0  0  0  0
    3.9216    8.7743   19.3725 C   0  0  0  0  0  0  0  0  0  0  0  0
    4.0243   10.2130   19.2239 C   0  0  0  0  0  0  0  0  0  0  0  0
    2.9370   10.9404   18.5836 C   0  0  0  0  0  0  0  0  0  0  0  0
    2.2646   10.2973   17.5161 O   0  0  0  0  0  0  0  0  0  0  0  0
    2.5207   12.0866   18.8655 O   0  0  0  0  0  0  0  0  0  0  0  0
    2.1449   10.8829   16.6532 H   0  0  0  0  0  0  0  0  0  0  0  0
    5.2397    3.4927   17.1288 C   0  0  0  0  0  0  0  0  0  0  0  0
    4.3473    2.3506   17.2062 C   0  0  0  0  0  0  0  0  0  0  0  0
    3.5849    1.8923   16.1313 C   0  0  0  0  0  0  0  0  0  0  0  0
    2.7684    0.8307   16.2974 C   0  0  0  0  0  0  0  0  0  0  0  0
    2.6034    0.1315   17.4582 C   0  0  0  0  0  0  0  0  0  0  0  0
    3.3596    0.5708   18.5502 C   0  0  0  0  0  0  0  0  0  0  0  0
    4.1940    1.6462   18.3972 C   0  0  0  0  0  0  0  0  0  0  0  0
    2.7391    5.9167   13.7383 C   0  0  0  0  0  0  0  0  0  0  0  0
    4.0463    7.3274   12.0959 C   0  0  0  0  0  0  0  0  0  0  0  0
    3.0114    8.0204   11.7942 O   0  0  0  0  0  0  0  0  0  0  0  0
    3.9716    6.2912   13.0450 N   0  0  0  0  0  0  0  0  0  0  0  0
    4.8222    5.7620   13.2843 H   0  0  0  0  0  0  0  0  0  0  0  0
    5.3382    7.6393   11.4220 C   0  0  0  0  0  0  0  0  0  0  0  0
    5.7819    7.2174    8.9988 C   0  0  0  0  0  0  0  0  0  0  0  0
    6.7305    6.4569    9.3609 O   0  0  0  0  0  0  0  0  0  0  0  0
    4.9874    7.8843    9.9973 N   0  0  0  0  0  0  0  0  0  0  0  0
    4.2318    8.5035    9.7000 H   0  0  0  0  0  0  0  0  0  0  0  0
    5.0506    7.6567    4.8742 C   0  0  0  0  0  0  0  0  0  0  0  0
    5.6436    6.5119    5.3773 C   0  0  0  0  0  0  0  0  0  0  0  0
    5.8661    6.3937    6.7337 C   0  0  0  0  0  0  0  0  0  0  0  0
    5.5018    7.4105    7.6041 C   0  0  0  0  0  0  0  0  0  0  0  0
    4.9199    8.5326    7.1062 C   0  0  0  0  0  0  0  0  0  0  0  0
    4.6932    8.6546    5.7433 C   0  0  0  0  0  0  0  0  0  0  0  0
    5.9450    8.7872    2.4372 N   0  0  0  0  0  0  0  0  0  0  0  0
    4.7463    7.7806    3.1438 S   0  0  0  0  0  0  0  0  0  0  0  0
    4.8113    6.4042    2.5189 O   0  0  0  0  0  0  0  0  0  0  0  0
    3.3875    8.3676    2.9669 O   0  0  0  0  0  0  0  0  0  0  0  0
    6.8587    8.2769    2.5290 H   0  0  0  0  0  0  0  0  0  0  0  0
    5.9509    9.7092    2.9522 H   0  0  0  0  0  0  0  0  0  0  0  0
    5.9815    8.8779   11.9349 C   0  0  0  0  0  0  0  0  0  0  0  0
    5.8013    9.1222   13.3801 C   0  0  0  0  0  0  0  0  0  0  0  0
    6.6822    8.5844   14.3229 C   0  0  0  0  0  0  0  0  0  0  0  0
    6.5429    8.7879   15.6822 C   0  0  0  0  0  0  0  0  0  0  0  0
    5.4914    9.5567   16.1335 C   0  0  0  0  0  0  0  0  0  0  0  0
    4.6090   10.1001   15.2416 C   0  0  0  0  0  0  0  0  0  0  0  0
    4.7764    9.8745   13.8729 C   0  0  0  0  0  0  0  0  0  0  0  0
    1.9036    5.0910   12.8596 C   0  0  0  0  0  0  0  0  0  0  0  0
    0.4503    5.4146   12.7949 C   0  0  0  0  0  0  0  0  0  0  0  0
   -0.4025    4.6298   12.0341 C   0  0  0  0  0  0  0  0  0  0  0  0
   -1.7192    4.9776   11.9307 C   0  0  0  0  0  0  0  0  0  0  0  0
   -2.2336    6.1165   12.5791 C   0  0  0  0  0  0  0  0  0  0  0  0
   -1.3834    6.8834   13.3283 C   0  0  0  0  0  0  0  0  0  0  0  0
   -0.0515    6.5133   13.4203 C   0  0  0  0  0  0  0  0  0  0  0  0
 56 57  1  0  0  0
 57 58  2  0  0  0
 57 59  2  0  0  0
 57 50  1  0  0  0
 50 51  2  0  0  0
 51 52  1  0  0  0
 52 53  2  0  0  0
 53 54  1  0  0  0
 54 55  2  0  0  0
 53 46  1  0  0  0
 46 47  2  0  0  0
 46 48  1  0  0  0
 48 45  1  0  0  0
 45 62  1  0  0  0
 62 63  1  0  0  0
 63 64  2  0  0  0
 64 65  1  0  0  0
 65 66  2  0  0  0
 66 67  1  0  0  0
 67 68  2  0  0  0
 45 41  1  0  0  0
 41 42  2  0  0  0
 41 43  1  0  0  0
 43 40  1  0  0  0
 40 69  1  0  0  0
 69 70  1  0  0  0
 70 71  2  0  0  0
 71 72  1  0  0  0
 72 73  2  0  0  0
 73 74  1  0  0  0
 74 75  2  0  0  0
 40  1  1  0  0  0
  1  2  2  0  0  0
  1  3  1  0  0  0
  3  5  1  0  0  0
  5 33  1  0  0  0
 33 34  1  0  0  0
 34 35  2  0  0  0
 35 36  1  0  0  0
 36 37  2  0  0  0
 37 38  1  0  0  0
 38 39  2  0  0  0
  5  6  1  0  0  0
  6  7  2  0  0  0
  6  8  1  0  0  0
  8 10  1  0  0  0
 10 27  1  0  0  0
 27 28  1  0  0  0
 28 29  1  0  0  0
 29 30  1  0  0  0
 29 31  2  0  0  0
 10 11  1  0  0  0
 11 12  2  0  0  0
 11 13  1  0  0  0
 13 15  1  0  0  0
 15 20  1  0  0  0
 20 21  1  0  0  0
 21 22  2  0  0  0
 22 23  1  0  0  0
 23 24  2  0  0  0
 24 25  1  0  0  0
 25 26  2  0  0  0
 15 16  1  0  0  0
 16 17  1  0  0  0
 16 18  2  0  0  0
 55 50  1  0  0  0
 68 63  1  0  0  0
 75 70  1  0  0  0
 39 34  1  0  0  0
 26 21  1  0  0  0
 56 60  1  0  0  0
 56 61  1  0  0  0
 48 49  1  0  0  0
 43 44  1  0  0  0
  3  4  1  0  0  0
  8  9  1  0  0  0
 30 32  1  0  0  0
 13 14  1  0  0  0
 17 19  1  0  0  0
M  END
> <minimizedAffinity>
-9.33910

> <CNNscore>
0.3327340782

> <CNNaffinity>
7.1854605675

> <CNN_VS>
2.3908476830

> <CNNaffinity_variance>
0.6876434088

$$$$
[H]OC(=O)C([H])([H])C([H])([H])[C@@]([H])(C(=O)N([H])[C@]([H])(C(=O)O[H])C([H])([H])c1c([H])c([H])c([H])c([H])c1[H])N([H])C(=O)[C@@]([H])(N([H])C(=O)[C@@]([H])(N([H])C(=O)[C@@]([H])(N([H])C(=O)c1c([H])c([H])c(S(=O)(=O)N([H])[H])c([H])c1[H])C([H])([H])c1c([H])c([H])c([H])c([H])c1[H])C([H])([H])c1c([H])c([H])c([H])c([H])c1[H])C([H])([H])c1c([H])c([H])c([H])c([H])c1[H]


 75 79  0  0  0  0  0  0  0  0999 V2000
    4.2878    5.0577   18.5899 C   0  0  0  0  0  0  0  0  0  0  0  0
    3.4040    5.9184   18.8237 O   0  0  0  0  0  0  0  0  0  0  0  0
    5.4895    5.0683   19.3043 N   0  0  0  0  0  0  0  0  0  0  0  0
    6.1884    4.3017   18.9755 H   0  0  0  0  0  0  0  0  0  0  0  0
    5.9459    5.8808   20.3446 C   0  0  0  0  0  0  0  0  0  0  0  0
    6.7081    7.1479   19.9100 C   0  0  0  0  0  0  0  0  0  0  0  0
    7.6648    7.1698   19.1507 O   0  0  0  0  0  0  0  0  0  0  0  0
    6.2205    8.3676   20.4515 N   0  0  0  0  0  0  0  0  0  0  0  0
    5.3751    8.2571   21.0999 H   0  0  0  0  0  0  0  0  0  0  0  0
    6.7110    9.7168   20.2317 C   0  0  0  0  0  0  0  0  0  0  0  0
    7.6811   10.0373   21.2684 C   0  0  0  0  0  0  0  0  0  0  0  0
    8.5447   10.9543   20.9615 O   0  0  0  0  0  0  0  0  0  0  0  0
    7.8049    9.4976   22.5457 N   0  0  0  0  0  0  0  0  0  0  0  0
    7.1690    8.7661   22.8882 H   0  0  0  0  0  0  0  0  0  0  0  0
    8.8606    9.9709   23.4289 C   0  0  0  0  0  0  0  0  0  0  0  0
    8.7607   11.4107   23.7374 C   0  0  0  0  0  0  0  0  0  0  0  0
    7.4609   11.9706   23.7492 O   0  0  0  0  0  0  0  0  0  0  0  0
    9.7676   12.0875   23.9744 O   0  0  0  0  0  0  0  0  0  0  0  0
    7.4242   12.9820   23.6842 H   0  0  0  0  0  0  0  0  0  0  0  0
   10.2240    9.5679   22.9076 C   0  0  0  0  0  0  0  0  0  0  0  0
   10.2880    8.0793   22.7229 C   0  0  0  0  0  0  0  0  0  0  0  0
   10.1709    7.1857   23.7620 C   0  0  0  0  0  0  0  0  0  0  0  0
   10.2470    5.8319   23.4982 C   0  0  0  0  0  0  0  0  0  0  0  0
   10.4367    5.3249   22.2388 C   0  0  0  0  0  0  0  0  0  0  0  0
   10.5551    6.2131   21.1894 C   0  0  0  0  0  0  0  0  0  0  0  0
   10.4796    7.5613   21.4407 C   0  0  0  0  0  0  0  0  0  0  0  0
    5.4237   10.5491   20.4950 C   0  0  0  0  0  0  0  0  0  0  0  0
    4.6587   10.9865   19.3436 C   0  0  0  0  0  0  0  0  0  0  0  0
    3.5072   10.2034   18.9167 C   0  0  0  0  0  0  0  0  0  0  0  0
    3.3221    8.9366   19.5220 O   0  0  0  0  0  0  0  0  0  0  0  0
    2.6491   10.5188   18.0619 O   0  0  0  0  0  0  0  0  0  0  0  0
    3.1436    8.1489   18.8516 H   0  0  0  0  0  0  0  0  0  0  0  0
    6.5765    5.3364   21.5569 C   0  0  0  0  0  0  0  0  0  0  0  0
    5.8965    4.3044   22.3182 C   0  0  0  0  0  0  0  0  0  0  0  0
    6.4300    3.0356   22.5468 C   0  0  0  0  0  0  0  0  0  0  0  0
    5.7202    2.1312   23.2536 C   0  0  0  0  0  0  0  0  0  0  0  0
    4.4813    2.3384   23.7881 C   0  0  0  0  0  0  0  0  0  0  0  0
    3.9262    3.6047   23.5743 C   0  0  0  0  0  0  0  0  0  0  0  0
    4.6348    4.5341   22.8599 C   0  0  0  0  0  0  0  0  0  0  0  0
    3.9844    4.0574   17.5665 C   0  0  0  0  0  0  0  0  0  0  0  0
    2.8247    5.1118   15.5816 C   0  0  0  0  0  0  0  0  0  0  0  0
    1.6874    5.0863   16.1719 O   0  0  0  0  0  0  0  0  0  0  0  0
    3.9818    4.6281   16.2195 N   0  0  0  0  0  0  0  0  0  0  0  0
    4.8872    4.6780   15.7309 H   0  0  0  0  0  0  0  0  0  0  0  0
    2.9023    5.6664   14.2008 C   0  0  0  0  0  0  0  0  0  0  0  0
    3.0861    3.9719   12.3728 C   0  0  0  0  0  0  0  0  0  0  0  0
    4.3199    4.2591   12.3049 O   0  0  0  0  0  0  0  0  0  0  0  0
    2.2527    4.6479   13.3327 N   0  0  0  0  0  0  0  0  0  0  0  0
    1.2582    4.4203   13.3759 H   0  0  0  0  0  0  0  0  0  0  0  0
    1.2962    1.1211    9.8412 C   0  0  0  0  0  0  0  0  0  0  0  0
    0.5838    2.2134   10.3045 C   0  0  0  0  0  0  0  0  0  0  0  0
    1.1978    3.1339   11.1284 C   0  0  0  0  0  0  0  0  0  0  0  0
    2.5253    2.9794   11.5002 C   0  0  0  0  0  0  0  0  0  0  0  0
    3.2211    1.9058   11.0432 C   0  0  0  0  0  0  0  0  0  0  0  0
    2.6076    0.9789   10.2135 C   0  0  0  0  0  0  0  0  0  0  0  0
   -1.1718   -0.0687    9.1264 N   0  0  0  0  0  0  0  0  0  0  0  0
    0.5071   -0.0298    8.7664 S   0  0  0  0  0  0  0  0  0  0  0  0
    0.7049    0.4019    7.3299 O   0  0  0  0  0  0  0  0  0  0  0  0
    1.1315   -1.3633    8.9986 O   0  0  0  0  0  0  0  0  0  0  0  0
   -1.5572    0.8733    8.8661 H   0  0  0  0  0  0  0  0  0  0  0  0
   -1.2865   -0.2747   10.1558 H   0  0  0  0  0  0  0  0  0  0  0  0
    2.1415    6.9333   14.0356 C   0  0  0  0  0  0  0  0  0  0  0  0
    0.8306    6.7918   13.3706 C   0  0  0  0  0  0  0  0  0  0  0  0
    0.7227    6.7613   11.9772 C   0  0  0  0  0  0  0  0  0  0  0  0
   -0.4861    6.6343   11.3205 C   0  0  0  0  0  0  0  0  0  0  0  0
   -1.6396    6.5305   12.0682 C   0  0  0  0  0  0  0  0  0  0  0  0
   -1.5743    6.5559   13.4338 C   0  0  0  0  0  0  0  0  0  0  0  0
   -0.3364    6.6869   14.0682 C   0  0  0  0  0  0  0  0  0  0  0  0
    4.6432    2.7469   17.5518 C   0  0  0  0  0  0  0  0  0  0  0  0
    4.0435    1.6700   18.3897 C   0  0  0  0  0  0  0  0  0  0  0  0
    3.2055    0.7277   17.8135 C   0  0  0  0  0  0  0  0  0  0  0  0
    2.6106   -0.2126   18.6055 C   0  0  0  0  0  0  0  0  0  0  0  0
    2.8274   -0.2491   19.9960 C   0  0  0  0  0  0  0  0  0  0  0  0
    3.6572    0.6850   20.5541 C   0  0  0  0  0  0  0  0  0  0  0  0
    4.2507    1.6302   19.7333 C   0  0  0  0  0  0  0  0  0  0  0  0
 56 57  1  0  0  0
 57 58  2  0  0  0
 57 59  2  0  0  0
 57 50  1  0  0  0
 50 51  2  0  0  0
 51 52  1  0  0  0
 52 53  2  0  0  0
 53 54  1  0  0  0
 54 55  2  0  0  0
 53 46  1  0  0  0
 46 47  2  0  0  0
 46 48  1  0  0  0
 48 45  1  0  0  0
 45 62  1  0  0  0
 62 63  1  0  0  0
 63 64  2  0  0  0
 64 65  1  0  0  0
 65 66  2  0  0  0
 66 67  1  0  0  0
 67 68  2  0  0  0
 45 41  1  0  0  0
 41 42  2  0  0  0
 41 43  1  0  0  0
 43 40  1  0  0  0
 40 69  1  0  0  0
 69 70  1  0  0  0
 70 71  2  0  0  0
 71 72  1  0  0  0
 72 73  2  0  0  0
 73 74  1  0  0  0
 74 75  2  0  0  0
 40  1  1  0  0  0
  1  2  2  0  0  0
  1  3  1  0  0  0
  3  5  1  0  0  0
  5 33  1  0  0  0
 33 34  1  0  0  0
 34 35  2  0  0  0
 35 36  1  0  0  0
 36 37  2  0  0  0
 37 38  1  0  0  0
 38 39  2  0  0  0
  5  6  1  0  0  0
  6  7  2  0  0  0
  6  8  1  0  0  0
  8 10  1  0  0  0
 10 27  1  0  0  0
 27 28  1  0  0  0
 28 29  1  0  0  0
 29 30  1  0  0  0
 29 31  2  0  0  0
 10 11  1  0  0  0
 11 12  2  0  0  0
 11 13  1  0  0  0
 13 15  1  0  0  0
 15 20  1  0  0  0
 20 21  1  0  0  0
 21 22  2  0  0  0
 22 23  1  0  0  0
 23 24  2  0  0  0
 24 25  1  0  0  0
 25 26  2  0  0  0
 15 16  1  0  0  0
 16 17  1  0  0  0
 16 18  2  0  0  0
 55 50  1  0  0  0
 68 63  1  0  0  0
 75 70  1  0  0  0
 39 34  1  0  0  0
 26 21  1  0  0  0
 56 60  1  0  0  0
 56 61  1  0  0  0
 48 49  1  0  0  0
 43 44  1  0  0  0
  3  4  1  0  0  0
  8  9  1  0  0  0
 30 32  1  0  0  0
 13 14  1  0  0  0
 17 19  1  0  0  0
M  END
> <minimizedAffinity>
-9.59670

> <CNNscore>
0.2454208881

> <CNNaffinity>
7.5238585472

> <CNN_VS>
1.8465120792

> <CNNaffinity_variance>
0.6613999605

$$$$
[H]OC(=O)C([H])([H])C([H])([H])[C@@]([H])(C(=O)N([H])[C@]([H])(C(=O)O[H])C([H])([H])c1c([H])c([H])c([H])c([H])c1[H])N([H])C(=O)[C@@]([H])(N([H])C(=O)[C@@]([H])(N([H])C(=O)[C@@]([H])(N([H])C(=O)c1c([H])c([H])c(S(=O)(=O)N([H])[H])c([H])c1[H])C([H])([H])c1c([H])c([H])c([H])c([H])c1[H])C([H])([H])c1c([H])c([H])c([H])c([H])c1[H])C([H])([H])c1c([H])c([H])c([H])c([H])c1[H]


 75 79  0  0  0  0  0  0  0  0999 V2000
    3.0713    3.6767   14.7373 C   0  0  0  0  0  0  0  0  0  0  0  0
    3.7882    2.6984   14.4127 O   0  0  0  0  0  0  0  0  0  0  0  0
    3.1872    4.2450   16.0093 N   0  0  0  0  0  0  0  0  0  0  0  0
    2.4797    5.0538   16.1817 H   0  0  0  0  0  0  0  0  0  0  0  0
    4.0334    3.9578   17.0828 C   0  0  0  0  0  0  0  0  0  0  0  0
    5.0487    5.0611   17.4394 C   0  0  0  0  0  0  0  0  0  0  0  0
    6.2207    5.0789   17.0956 O   0  0  0  0  0  0  0  0  0  0  0  0
    4.5368    6.1289   18.2245 N   0  0  0  0  0  0  0  0  0  0  0  0
    3.4991    6.0370   18.4736 H   0  0  0  0  0  0  0  0  0  0  0  0
    5.2302    7.3082   18.7124 C   0  0  0  0  0  0  0  0  0  0  0  0
    5.8411    6.9951   19.9958 C   0  0  0  0  0  0  0  0  0  0  0  0
    7.1284    6.8419   19.9794 O   0  0  0  0  0  0  0  0  0  0  0  0
    5.2329    6.8426   21.2388 N   0  0  0  0  0  0  0  0  0  0  0  0
    4.2173    6.9456   21.3607 H   0  0  0  0  0  0  0  0  0  0  0  0
    6.0448    6.5260   22.4045 C   0  0  0  0  0  0  0  0  0  0  0  0
    6.8821    7.6545   22.8557 C   0  0  0  0  0  0  0  0  0  0  0  0
    6.2284    8.8949   23.0484 O   0  0  0  0  0  0  0  0  0  0  0  0
    8.0939    7.5149   23.0551 O   0  0  0  0  0  0  0  0  0  0  0  0
    6.8376    9.7051   23.0831 H   0  0  0  0  0  0  0  0  0  0  0  0
    6.8330    5.2516   22.1855 C   0  0  0  0  0  0  0  0  0  0  0  0
    5.9668    4.0551   22.4539 C   0  0  0  0  0  0  0  0  0  0  0  0
    4.7283    4.1394   23.0464 C   0  0  0  0  0  0  0  0  0  0  0  0
    4.0028    2.9833   23.2588 C   0  0  0  0  0  0  0  0  0  0  0  0
    4.4583    1.7393   22.9065 C   0  0  0  0  0  0  0  0  0  0  0  0
    5.6995    1.6439   22.3112 C   0  0  0  0  0  0  0  0  0  0  0  0
    6.4286    2.7875   22.0945 C   0  0  0  0  0  0  0  0  0  0  0  0
    4.0368    8.2736   18.9636 C   0  0  0  0  0  0  0  0  0  0  0  0
    3.8525    9.3710   18.0340 C   0  0  0  0  0  0  0  0  0  0  0  0
    3.5785    9.0776   16.6340 C   0  0  0  0  0  0  0  0  0  0  0  0
    2.8663   10.0517   15.8930 O   0  0  0  0  0  0  0  0  0  0  0  0
    3.8988    8.0490   15.9970 O   0  0  0  0  0  0  0  0  0  0  0  0
    2.0571    9.6793   15.3376 H   0  0  0  0  0  0  0  0  0  0  0  0
    4.6732    2.6450   17.2581 C   0  0  0  0  0  0  0  0  0  0  0  0
    3.9152    1.5478   17.8312 C   0  0  0  0  0  0  0  0  0  0  0  0
    3.1327    0.6730   17.0769 C   0  0  0  0  0  0  0  0  0  0  0  0
    2.4476   -0.3114   17.6956 C   0  0  0  0  0  0  0  0  0  0  0  0
    2.4398   -0.5475   19.0402 C   0  0  0  0  0  0  0  0  0  0  0  0
    3.2195    0.3154   19.8178 C   0  0  0  0  0  0  0  0  0  0  0  0
    3.9217    1.3188   19.2044 C   0  0  0  0  0  0  0  0  0  0  0  0
    2.1463    4.1855   13.7245 C   0  0  0  0  0  0  0  0  0  0  0  0
    2.0565    6.6965   13.4365 C   0  0  0  0  0  0  0  0  0  0  0  0
    1.0989    6.8071   14.2809 O   0  0  0  0  0  0  0  0  0  0  0  0
    2.6110    5.4397   13.1319 N   0  0  0  0  0  0  0  0  0  0  0  0
    3.3932    5.3800   12.4644 H   0  0  0  0  0  0  0  0  0  0  0  0
    2.5770    7.9282   12.7790 C   0  0  0  0  0  0  0  0  0  0  0  0
    4.9930    8.5681   12.7932 C   0  0  0  0  0  0  0  0  0  0  0  0
    4.6543    9.6211   13.4143 O   0  0  0  0  0  0  0  0  0  0  0  0
    3.9844    7.6128   12.4149 N   0  0  0  0  0  0  0  0  0  0  0  0
    4.2615    6.7720   11.9060 H   0  0  0  0  0  0  0  0  0  0  0  0
    8.9908    7.7625   11.7400 C   0  0  0  0  0  0  0  0  0  0  0  0
    7.9404    7.2983   10.9677 C   0  0  0  0  0  0  0  0  0  0  0  0
    6.6411    7.5821   11.3344 C   0  0  0  0  0  0  0  0  0  0  0  0
    6.3716    8.3300   12.4712 C   0  0  0  0  0  0  0  0  0  0  0  0
    7.4056    8.7839   13.2266 C   0  0  0  0  0  0  0  0  0  0  0  0
    8.7133    8.5018   12.8604 C   0  0  0  0  0  0  0  0  0  0  0  0
   10.6453    6.0259   10.2354 N   0  0  0  0  0  0  0  0  0  0  0  0
   10.6447    7.4169   11.2427 S   0  0  0  0  0  0  0  0  0  0  0  0
   11.1989    8.5964   10.4742 O   0  0  0  0  0  0  0  0  0  0  0  0
   11.4453    7.1793   12.4776 O   0  0  0  0  0  0  0  0  0  0  0  0
   10.1341    6.2906    9.3567 H   0  0  0  0  0  0  0  0  0  0  0  0
   10.1659    5.2401   10.7532 H   0  0  0  0  0  0  0  0  0  0  0  0
    1.8628    8.2653   11.5191 C   0  0  0  0  0  0  0  0  0  0  0  0
    2.4137    7.6359   10.3020 C   0  0  0  0  0  0  0  0  0  0  0  0
    2.0175    6.3559    9.9034 C   0  0  0  0  0  0  0  0  0  0  0  0
    2.5140    5.7342    8.7741 C   0  0  0  0  0  0  0  0  0  0  0  0
    3.4398    6.4024    8.0016 C   0  0  0  0  0  0  0  0  0  0  0  0
    3.8516    7.6563    8.3590 C   0  0  0  0  0  0  0  0  0  0  0  0
    3.3316    8.2576    9.5080 C   0  0  0  0  0  0  0  0  0  0  0  0
    1.5929    3.3156   12.6810 C   0  0  0  0  0  0  0  0  0  0  0  0
    0.3861    3.8017   11.9539 C   0  0  0  0  0  0  0  0  0  0  0  0
   -0.5983    4.5026   12.6334 C   0  0  0  0  0  0  0  0  0  0  0  0
   -1.7290    4.8834   11.9688 C   0  0  0  0  0  0  0  0  0  0  0  0
   -1.9206    4.5811   10.6072 C   0  0  0  0  0  0  0  0  0  0  0  0
   -0.9422    3.8898    9.9459 C   0  0  0  0  0  0  0  0  0  0  0  0
    0.1970    3.5128   10.6383 C   0  0  0  0  0  0  0  0  0  0  0  0
 56 57  1  0  0  0
 57 58  2  0  0  0
 57 59  2  0  0  0
 57 50  1  0  0  0
 50 51  2  0  0  0
 51 52  1  0  0  0
 52 53  2  0  0  0
 53 54  1  0  0  0
 54 55  2  0  0  0
 53 46  1  0  0  0
 46 47  2  0  0  0
 46 48  1  0  0  0
 48 45  1  0  0  0
 45 62  1  0  0  0
 62 63  1  0  0  0
 63 64  2  0  0  0
 64 65  1  0  0  0
 65 66  2  0  0  0
 66 67  1  0  0  0
 67 68  2  0  0  0
 45 41  1  0  0  0
 41 42  2  0  0  0
 41 43  1  0  0  0
 43 40  1  0  0  0
 40 69  1  0  0  0
 69 70  1  0  0  0
 70 71  2  0  0  0
 71 72  1  0  0  0
 72 73  2  0  0  0
 73 74  1  0  0  0
 74 75  2  0  0  0
 40  1  1  0  0  0
  1  2  2  0  0  0
  1  3  1  0  0  0
  3  5  1  0  0  0
  5 33  1  0  0  0
 33 34  1  0  0  0
 34 35  2  0  0  0
 35 36  1  0  0  0
 36 37  2  0  0  0
 37 38  1  0  0  0
 38 39  2  0  0  0
  5  6  1  0  0  0
  6  7  2  0  0  0
  6  8  1  0  0  0
  8 10  1  0  0  0
 10 27  1  0  0  0
 27 28  1  0  0  0
 28 29  1  0  0  0
 29 30  1  0  0  0
 29 31  2  0  0  0
 10 11  1  0  0  0
 11 12  2  0  0  0
 11 13  1  0  0  0
 13 15  1  0  0  0
 15 20  1  0  0  0
 20 21  1  0  0  0
 21 22  2  0  0  0
 22 23  1  0  0  0
 23 24  2  0  0  0
 24 25  1  0  0  0
 25 26  2  0  0  0
 15 16  1  0  0  0
 16 17  1  0  0  0
 16 18  2  0  0  0
 55 50  1  0  0  0
 68 63  1  0  0  0
 75 70  1  0  0  0
 39 34  1  0  0  0
 26 21  1  0  0  0
 56 60  1  0  0  0
 56 61  1  0  0  0
 48 49  1  0  0  0
 43 44  1  0  0  0
  3  4  1  0  0  0
  8  9  1  0  0  0
 30 32  1  0  0  0
 13 14  1  0  0  0
 17 19  1  0  0  0
M  END
> <minimizedAffinity>
-9.08147

> <CNNscore>
0.2049310207

> <CNNaffinity>
7.5154924393

> <CNN_VS>
1.5401575565

> <CNNaffinity_variance>
0.4875507951

$$$$
[H]OC(=O)C([H])([H])C([H])([H])[C@@]([H])(C(=O)N([H])[C@]([H])(C(=O)O[H])C([H])([H])c1c([H])c([H])c([H])c([H])c1[H])N([H])C(=O)[C@@]([H])(N([H])C(=O)[C@@]([H])(N([H])C(=O)[C@@]([H])(N([H])C(=O)c1c([H])c([H])c(S(=O)(=O)N([H])[H])c([H])c1[H])C([H])([H])c1c([H])c([H])c([H])c([H])c1[H])C([H])([H])c1c([H])c([H])c([H])c([H])c1[H])C([H])([H])c1c([H])c([H])c([H])c([H])c1[H]


 75 79  0  0  0  0  0  0  0  0999 V2000
    4.0369    4.0644   17.6305 C   0  0  0  0  0  0  0  0  0  0  0  0
    5.1903    4.4390   17.3054 O   0  0  0  0  0  0  0  0  0  0  0  0
    3.3539    4.7042   18.6691 N   0  0  0  0  0  0  0  0  0  0  0  0
    2.3855    4.2562   18.8830 H   0  0  0  0  0  0  0  0  0  0  0  0
    3.6931    5.7958   19.4717 C   0  0  0  0  0  0  0  0  0  0  0  0
    3.6360    7.1709   18.7782 C   0  0  0  0  0  0  0  0  0  0  0  0
    3.4543    7.3515   17.5838 O   0  0  0  0  0  0  0  0  0  0  0  0
    3.8036    8.2922   19.6346 N   0  0  0  0  0  0  0  0  0  0  0  0
    3.9490    8.0431   20.6662 H   0  0  0  0  0  0  0  0  0  0  0  0
    3.7933    9.7036   19.2921 C   0  0  0  0  0  0  0  0  0  0  0  0
    4.2876    9.8592   17.9320 C   0  0  0  0  0  0  0  0  0  0  0  0
    5.5769    9.8305   17.7992 O   0  0  0  0  0  0  0  0  0  0  0  0
    3.5651   10.0296   16.7542 N   0  0  0  0  0  0  0  0  0  0  0  0
    2.5377   10.0641   16.7496 H   0  0  0  0  0  0  0  0  0  0  0  0
    4.2713   10.1666   15.4889 C   0  0  0  0  0  0  0  0  0  0  0  0
    3.8616   11.3570   14.7185 C   0  0  0  0  0  0  0  0  0  0  0  0
    2.4797   11.6622   14.7056 O   0  0  0  0  0  0  0  0  0  0  0  0
    4.6909   12.0494   14.1181 O   0  0  0  0  0  0  0  0  0  0  0  0
    2.1820   12.2929   13.9692 H   0  0  0  0  0  0  0  0  0  0  0  0
    4.1975    8.8848   14.6860 C   0  0  0  0  0  0  0  0  0  0  0  0
    5.4163    8.7456   13.8205 C   0  0  0  0  0  0  0  0  0  0  0  0
    5.3558    8.5034   12.4678 C   0  0  0  0  0  0  0  0  0  0  0  0
    6.5309    8.3852   11.7512 C   0  0  0  0  0  0  0  0  0  0  0  0
    7.7709    8.4970   12.3247 C   0  0  0  0  0  0  0  0  0  0  0  0
    7.8425    8.7403   13.6811 C   0  0  0  0  0  0  0  0  0  0  0  0
    6.6800    8.8606   14.4026 C   0  0  0  0  0  0  0  0  0  0  0  0
    4.8710   10.2556   20.2683 C   0  0  0  0  0  0  0  0  0  0  0  0
    5.2355    9.4307   21.4036 C   0  0  0  0  0  0  0  0  0  0  0  0
    6.2969    9.8781   22.2951 C   0  0  0  0  0  0  0  0  0  0  0  0
    7.5020   10.3228   21.6992 O   0  0  0  0  0  0  0  0  0  0  0  0
    6.2732    9.9137   23.5459 O   0  0  0  0  0  0  0  0  0  0  0  0
    8.3758    9.9104   22.1094 H   0  0  0  0  0  0  0  0  0  0  0  0
    4.8368    5.7743   20.3965 C   0  0  0  0  0  0  0  0  0  0  0  0
    4.8495    4.8323   21.5008 C   0  0  0  0  0  0  0  0  0  0  0  0
    5.8552    3.8853   21.6963 C   0  0  0  0  0  0  0  0  0  0  0  0
    5.7782    3.0371   22.7431 C   0  0  0  0  0  0  0  0  0  0  0  0
    4.7743    3.0081   23.6676 C   0  0  0  0  0  0  0  0  0  0  0  0
    3.7548    3.9505   23.4942 C   0  0  0  0  0  0  0  0  0  0  0  0
    3.8193    4.8192   22.4371 C   0  0  0  0  0  0  0  0  0  0  0  0
    3.4579    2.9609   16.8643 C   0  0  0  0  0  0  0  0  0  0  0  0
    2.4754    4.2670   14.9343 C   0  0  0  0  0  0  0  0  0  0  0  0
    1.7399    4.9645   15.7183 O   0  0  0  0  0  0  0  0  0  0  0  0
    3.3391    3.2786   15.4413 N   0  0  0  0  0  0  0  0  0  0  0  0
    3.9343    2.7452   14.7917 H   0  0  0  0  0  0  0  0  0  0  0  0
    2.4015    4.5219   13.4680 C   0  0  0  0  0  0  0  0  0  0  0  0
    0.3771    4.4288   12.0052 C   0  0  0  0  0  0  0  0  0  0  0  0
    1.0433    3.6845   11.2233 O   0  0  0  0  0  0  0  0  0  0  0  0
    0.9918    4.9210   13.2106 N   0  0  0  0  0  0  0  0  0  0  0  0
    0.4542    5.5283   13.8310 H   0  0  0  0  0  0  0  0  0  0  0  0
   -3.5828    5.3884   10.9383 C   0  0  0  0  0  0  0  0  0  0  0  0
   -2.8091    4.5601   10.1443 C   0  0  0  0  0  0  0  0  0  0  0  0
   -1.5167    4.2590   10.5217 C   0  0  0  0  0  0  0  0  0  0  0  0
   -0.9798    4.7768   11.6913 C   0  0  0  0  0  0  0  0  0  0  0  0
   -1.7428    5.5894   12.4679 C   0  0  0  0  0  0  0  0  0  0  0  0
   -3.0430    5.8934   12.0926 C   0  0  0  0  0  0  0  0  0  0  0  0
   -5.2392    6.3496    8.8528 N   0  0  0  0  0  0  0  0  0  0  0  0
   -5.2406    5.7400   10.4584 S   0  0  0  0  0  0  0  0  0  0  0  0
   -6.0637    4.4718   10.5157 O   0  0  0  0  0  0  0  0  0  0  0  0
   -5.7796    6.7523   11.4108 O   0  0  0  0  0  0  0  0  0  0  0  0
   -4.9249    5.5622    8.2324 H   0  0  0  0  0  0  0  0  0  0  0  0
   -4.5823    7.1754    8.8111 H   0  0  0  0  0  0  0  0  0  0  0  0
    3.2645    5.6493   13.0260 C   0  0  0  0  0  0  0  0  0  0  0  0
    3.9836    5.4238   11.7560 C   0  0  0  0  0  0  0  0  0  0  0  0
    3.6027    6.0768   10.5800 C   0  0  0  0  0  0  0  0  0  0  0  0
    4.2486    5.8877    9.3736 C   0  0  0  0  0  0  0  0  0  0  0  0
    5.3181    5.0194    9.3225 C   0  0  0  0  0  0  0  0  0  0  0  0
    5.7206    4.3626   10.4522 C   0  0  0  0  0  0  0  0  0  0  0  0
    5.0456    4.5743   11.6571 C   0  0  0  0  0  0  0  0  0  0  0  0
    3.9251    1.5803   17.0299 C   0  0  0  0  0  0  0  0  0  0  0  0
    3.6204    0.9052   18.3232 C   0  0  0  0  0  0  0  0  0  0  0  0
    2.6157   -0.0479   18.3890 C   0  0  0  0  0  0  0  0  0  0  0  0
    2.3030   -0.6093   19.5941 C   0  0  0  0  0  0  0  0  0  0  0  0
    2.9771   -0.2433   20.7747 C   0  0  0  0  0  0  0  0  0  0  0  0
    3.9678    0.6976   20.6982 C   0  0  0  0  0  0  0  0  0  0  0  0
    4.2695    1.2548   19.4662 C   0  0  0  0  0  0  0  0  0  0  0  0
 56 57  1  0  0  0
 57 58  2  0  0  0
 57 59  2  0  0  0
 57 50  1  0  0  0
 50 51  2  0  0  0
 51 52  1  0  0  0
 52 53  2  0  0  0
 53 54  1  0  0  0
 54 55  2  0  0  0
 53 46  1  0  0  0
 46 47  2  0  0  0
 46 48  1  0  0  0
 48 45  1  0  0  0
 45 62  1  0  0  0
 62 63  1  0  0  0
 63 64  2  0  0  0
 64 65  1  0  0  0
 65 66  2  0  0  0
 66 67  1  0  0  0
 67 68  2  0  0  0
 45 41  1  0  0  0
 41 42  2  0  0  0
 41 43  1  0  0  0
 43 40  1  0  0  0
 40 69  1  0  0  0
 69 70  1  0  0  0
 70 71  2  0  0  0
 71 72  1  0  0  0
 72 73  2  0  0  0
 73 74  1  0  0  0
 74 75  2  0  0  0
 40  1  1  0  0  0
  1  2  2  0  0  0
  1  3  1  0  0  0
  3  5  1  0  0  0
  5 33  1  0  0  0
 33 34  1  0  0  0
 34 35  2  0  0  0
 35 36  1  0  0  0
 36 37  2  0  0  0
 37 38  1  0  0  0
 38 39  2  0  0  0
  5  6  1  0  0  0
  6  7  2  0  0  0
  6  8  1  0  0  0
  8 10  1  0  0  0
 10 27  1  0  0  0
 27 28  1  0  0  0
 28 29  1  0  0  0
 29 30  1  0  0  0
 29 31  2  0  0  0
 10 11  1  0  0  0
 11 12  2  0  0  0
 11 13  1  0  0  0
 13 15  1  0  0  0
 15 20  1  0  0  0
 20 21  1  0  0  0
 21 22  2  0  0  0
 22 23  1  0  0  0
 23 24  2  0  0  0
 24 25  1  0  0  0
 25 26  2  0  0  0
 15 16  1  0  0  0
 16 17  1  0  0  0
 16 18  2  0  0  0
 55 50  1  0  0  0
 68 63  1  0  0  0
 75 70  1  0  0  0
 39 34  1  0  0  0
 26 21  1  0  0  0
 56 60  1  0  0  0
 56 61  1  0  0  0
 48 49  1  0  0  0
 43 44  1  0  0  0
  3  4  1  0  0  0
  8  9  1  0  0  0
 30 32  1  0  0  0
 13 14  1  0  0  0
 17 19  1  0  0  0
M  END
> <minimizedAffinity>
-9.87572

> <CNNscore>
0.1969331801

> <CNNaffinity>
7.7554655075

> <CNN_VS>
1.5273084641

> <CNNaffinity_variance>
0.2829757333

$$$$
[H]OC(=O)C([H])([H])C([H])([H])[C@@]([H])(C(=O)N([H])[C@]([H])(C(=O)O[H])C([H])([H])c1c([H])c([H])c([H])c([H])c1[H])N([H])C(=O)[C@@]([H])(N([H])C(=O)[C@@]([H])(N([H])C(=O)[C@@]([H])(N([H])C(=O)c1c([H])c([H])c(S(=O)(=O)N([H])[H])c([H])c1[H])C([H])([H])c1c([H])c([H])c([H])c([H])c1[H])C([H])([H])c1c([H])c([H])c([H])c([H])c1[H])C([H])([H])c1c([H])c([H])c([H])c([H])c1[H]


 75 79  0  0  0  0  0  0  0  0999 V2000
    3.1679    4.6653   14.2483 C   0  0  0  0  0  0  0  0  0  0  0  0
    2.2441    3.8931   14.6044 O   0  0  0  0  0  0  0  0  0  0  0  0
    4.2418    4.9231   15.1056 N   0  0  0  0  0  0  0  0  0  0  0  0
    4.9494    5.6430   14.6989 H   0  0  0  0  0  0  0  0  0  0  0  0
    4.5578    4.4319   16.3742 C   0  0  0  0  0  0  0  0  0  0  0  0
    5.2596    5.4304   17.3153 C   0  0  0  0  0  0  0  0  0  0  0  0
    6.3202    5.2335   17.8885 O   0  0  0  0  0  0  0  0  0  0  0  0
    4.5901    6.6706   17.4958 N   0  0  0  0  0  0  0  0  0  0  0  0
    3.6727    6.7616   16.9504 H   0  0  0  0  0  0  0  0  0  0  0  0
    4.9925    7.8083   18.3039 C   0  0  0  0  0  0  0  0  0  0  0  0
    5.2425    7.3524   19.6634 C   0  0  0  0  0  0  0  0  0  0  0  0
    4.1929    6.9934   20.3344 O   0  0  0  0  0  0  0  0  0  0  0  0
    6.4548    7.2444   20.3394 N   0  0  0  0  0  0  0  0  0  0  0  0
    7.3462    7.5014   19.8966 H   0  0  0  0  0  0  0  0  0  0  0  0
    6.4742    6.7586   21.7113 C   0  0  0  0  0  0  0  0  0  0  0  0
    7.1253    7.6920   22.6510 C   0  0  0  0  0  0  0  0  0  0  0  0
    6.8323    7.5197   24.0249 O   0  0  0  0  0  0  0  0  0  0  0  0
    7.8893    8.5771   22.2502 O   0  0  0  0  0  0  0  0  0  0  0  0
    7.0512    8.3132   24.6175 H   0  0  0  0  0  0  0  0  0  0  0  0
    7.0385    5.3551   21.7808 C   0  0  0  0  0  0  0  0  0  0  0  0
    5.9578    4.3807   22.1504 C   0  0  0  0  0  0  0  0  0  0  0  0
    5.9834    3.0541   21.7876 C   0  0  0  0  0  0  0  0  0  0  0  0
    4.9415    2.2311   22.1686 C   0  0  0  0  0  0  0  0  0  0  0  0
    3.8682    2.6726   22.8981 C   0  0  0  0  0  0  0  0  0  0  0  0
    3.8331    4.0017   23.2674 C   0  0  0  0  0  0  0  0  0  0  0  0
    4.8647    4.8283   22.8946 C   0  0  0  0  0  0  0  0  0  0  0  0
    3.6850    8.6508   18.3054 C   0  0  0  0  0  0  0  0  0  0  0  0
    3.7857   10.0477   18.6804 C   0  0  0  0  0  0  0  0  0  0  0  0
    2.9455   11.0270   18.0046 C   0  0  0  0  0  0  0  0  0  0  0  0
    2.4233   12.0856   18.7867 O   0  0  0  0  0  0  0  0  0  0  0  0
    2.6208   11.0436   16.7960 O   0  0  0  0  0  0  0  0  0  0  0  0
    1.3938   12.2542   18.6705 H   0  0  0  0  0  0  0  0  0  0  0  0
    5.1299    3.0933   16.5858 C   0  0  0  0  0  0  0  0  0  0  0  0
    4.3000    2.0366   17.1350 C   0  0  0  0  0  0  0  0  0  0  0  0
    3.4018    1.2866   16.3753 C   0  0  0  0  0  0  0  0  0  0  0  0
    2.6574    0.3324   16.9725 C   0  0  0  0  0  0  0  0  0  0  0  0
    2.6932    0.0141   18.2995 C   0  0  0  0  0  0  0  0  0  0  0  0
    3.5886    0.7511   19.0820 C   0  0  0  0  0  0  0  0  0  0  0  0
    4.3521    1.7222   18.4902 C   0  0  0  0  0  0  0  0  0  0  0  0
    3.0660    5.2478   12.9102 C   0  0  0  0  0  0  0  0  0  0  0  0
    4.8227    6.7970   11.9562 C   0  0  0  0  0  0  0  0  0  0  0  0
    4.0820    7.8268   12.1385 O   0  0  0  0  0  0  0  0  0  0  0  0
    4.3787    5.5128   12.3215 N   0  0  0  0  0  0  0  0  0  0  0  0
    5.0009    4.7038   12.1825 H   0  0  0  0  0  0  0  0  0  0  0  0
    6.1703    6.9830   11.3482 C   0  0  0  0  0  0  0  0  0  0  0  0
    6.2301    6.2020    8.9748 C   0  0  0  0  0  0  0  0  0  0  0  0
    6.6988    5.1044    9.4049 O   0  0  0  0  0  0  0  0  0  0  0  0
    5.9160    7.2528    9.9075 N   0  0  0  0  0  0  0  0  0  0  0  0
    5.5488    8.1379    9.5548 H   0  0  0  0  0  0  0  0  0  0  0  0
    5.5942    6.9242    4.8742 C   0  0  0  0  0  0  0  0  0  0  0  0
    5.9479    7.9490    5.7343 C   0  0  0  0  0  0  0  0  0  0  0  0
    6.1548    7.6818    7.0719 C   0  0  0  0  0  0  0  0  0  0  0  0
    6.0132    6.3944    7.5688 C   0  0  0  0  0  0  0  0  0  0  0  0
    5.6659    5.3912    6.7210 C   0  0  0  0  0  0  0  0  0  0  0  0
    5.4584    5.6556    5.3754 C   0  0  0  0  0  0  0  0  0  0  0  0
    3.6836    7.4705    2.8573 N   0  0  0  0  0  0  0  0  0  0  0  0
    5.3621    7.2757    3.1640 S   0  0  0  0  0  0  0  0  0  0  0  0
    6.0916    8.5519    2.8063 O   0  0  0  0  0  0  0  0  0  0  0  0
    5.9141    6.1275    2.3899 O   0  0  0  0  0  0  0  0  0  0  0  0
    3.3830    8.3376    3.3687 H   0  0  0  0  0  0  0  0  0  0  0  0
    3.1799    6.6095    3.2040 H   0  0  0  0  0  0  0  0  0  0  0  0
    6.9006    8.1584   11.8926 C   0  0  0  0  0  0  0  0  0  0  0  0
    8.3612    7.9814   12.0196 C   0  0  0  0  0  0  0  0  0  0  0  0
    9.0516    7.0552   11.2324 C   0  0  0  0  0  0  0  0  0  0  0  0
   10.4159    6.8595   11.3264 C   0  0  0  0  0  0  0  0  0  0  0  0
   11.1329    7.6101   12.2336 C   0  0  0  0  0  0  0  0  0  0  0  0
   10.4927    8.5265   13.0209 C   0  0  0  0  0  0  0  0  0  0  0  0
    9.1113    8.7000   12.9029 C   0  0  0  0  0  0  0  0  0  0  0  0
    2.1670    4.6899   11.8942 C   0  0  0  0  0  0  0  0  0  0  0  0
    2.6697    3.5372   11.0943 C   0  0  0  0  0  0  0  0  0  0  0  0
    3.5621    3.7501   10.0550 C   0  0  0  0  0  0  0  0  0  0  0  0
    3.9621    2.6928    9.2885 C   0  0  0  0  0  0  0  0  0  0  0  0
    3.4895    1.3884    9.5281 C   0  0  0  0  0  0  0  0  0  0  0  0
    2.6099    1.1894   10.5573 C   0  0  0  0  0  0  0  0  0  0  0  0
    2.2167    2.2752   11.3226 C   0  0  0  0  0  0  0  0  0  0  0  0
 56 57  1  0  0  0
 57 58  2  0  0  0
 57 59  2  0  0  0
 57 50  1  0  0  0
 50 51  2  0  0  0
 51 52  1  0  0  0
 52 53  2  0  0  0
 53 54  1  0  0  0
 54 55  2  0  0  0
 53 46  1  0  0  0
 46 47  2  0  0  0
 46 48  1  0  0  0
 48 45  1  0  0  0
 45 62  1  0  0  0
 62 63  1  0  0  0
 63 64  2  0  0  0
 64 65  1  0  0  0
 65 66  2  0  0  0
 66 67  1  0  0  0
 67 68  2  0  0  0
 45 41  1  0  0  0
 41 42  2  0  0  0
 41 43  1  0  0  0
 43 40  1  0  0  0
 40 69  1  0  0  0
 69 70  1  0  0  0
 70 71  2  0  0  0
 71 72  1  0  0  0
 72 73  2  0  0  0
 73 74  1  0  0  0
 74 75  2  0  0  0
 40  1  1  0  0  0
  1  2  2  0  0  0
  1  3  1  0  0  0
  3  5  1  0  0  0
  5 33  1  0  0  0
 33 34  1  0  0  0
 34 35  2  0  0  0
 35 36  1  0  0  0
 36 37  2  0  0  0
 37 38  1  0  0  0
 38 39  2  0  0  0
  5  6  1  0  0  0
  6  7  2  0  0  0
  6  8  1  0  0  0
  8 10  1  0  0  0
 10 27  1  0  0  0
 27 28  1  0  0  0
 28 29  1  0  0  0
 29 30  1  0  0  0
 29 31  2  0  0  0
 10 11  1  0  0  0
 11 12  2  0  0  0
 11 13  1  0  0  0
 13 15  1  0  0  0
 15 20  1  0  0  0
 20 21  1  0  0  0
 21 22  2  0  0  0
 22 23  1  0  0  0
 23 24  2  0  0  0
 24 25  1  0  0  0
 25 26  2  0  0  0
 15 16  1  0  0  0
 16 17  1  0  0  0
 16 18  2  0  0  0
 55 50  1  0  0  0
 68 63  1  0  0  0
 75 70  1  0  0  0
 39 34  1  0  0  0
 26 21  1  0  0  0
 56 60  1  0  0  0
 56 61  1  0  0  0
 48 49  1  0  0  0
 43 44  1  0  0  0
  3  4  1  0  0  0
  8  9  1  0  0  0
 30 32  1  0  0  0
 13 14  1  0  0  0
 17 19  1  0  0  0
M  END
> <minimizedAffinity>
-9.11952

> <CNNscore>
0.1925141662

> <CNNaffinity>
7.2525568008

> <CNN_VS>
1.3962199688

> <CNNaffinity_variance>
0.6172934175

$$$$
[H]OC(=O)C([H])([H])C([H])([H])[C@@]([H])(C(=O)N([H])[C@]([H])(C(=O)O[H])C([H])([H])c1c([H])c([H])c([H])c([H])c1[H])N([H])C(=O)[C@@]([H])(N([H])C(=O)[C@@]([H])(N([H])C(=O)[C@@]([H])(N([H])C(=O)c1c([H])c([H])c(S(=O)(=O)N([H])[H])c([H])c1[H])C([H])([H])c1c([H])c([H])c([H])c([H])c1[H])C([H])([H])c1c([H])c([H])c([H])c([H])c1[H])C([H])([H])c1c([H])c([H])c([H])c([H])c1[H]


 75 79  0  0  0  0  0  0  0  0999 V2000
    3.3884    4.6907   17.4951 C   0  0  0  0  0  0  0  0  0  0  0  0
    2.1799    4.5099   17.2064 O   0  0  0  0  0  0  0  0  0  0  0  0
    4.2977    3.6314   17.4206 N   0  0  0  0  0  0  0  0  0  0  0  0
    5.3009    3.9066   17.7404 H   0  0  0  0  0  0  0  0  0  0  0  0
    4.1461    2.3019   17.0204 C   0  0  0  0  0  0  0  0  0  0  0  0
    3.5028    2.0965   15.6350 C   0  0  0  0  0  0  0  0  0  0  0  0
    2.8060    1.1455   15.3150 O   0  0  0  0  0  0  0  0  0  0  0  0
    3.7582    3.1232   14.6868 N   0  0  0  0  0  0  0  0  0  0  0  0
    4.3705    3.9219   15.0536 H   0  0  0  0  0  0  0  0  0  0  0  0
    3.2941    3.2251   13.3143 C   0  0  0  0  0  0  0  0  0  0  0  0
    4.0603    4.2603   12.6362 C   0  0  0  0  0  0  0  0  0  0  0  0
    4.3681    5.2916   13.3591 O   0  0  0  0  0  0  0  0  0  0  0  0
    4.5117    4.2919   11.3197 N   0  0  0  0  0  0  0  0  0  0  0  0
    4.3229    3.5229   10.6641 H   0  0  0  0  0  0  0  0  0  0  0  0
    5.2700    5.4401   10.8451 C   0  0  0  0  0  0  0  0  0  0  0  0
    4.5095    6.2968    9.9146 C   0  0  0  0  0  0  0  0  0  0  0  0
    3.2317    5.8322    9.5216 O   0  0  0  0  0  0  0  0  0  0  0  0
    4.9720    7.3671    9.5043 O   0  0  0  0  0  0  0  0  0  0  0  0
    2.8477    6.2705    8.6914 H   0  0  0  0  0  0  0  0  0  0  0  0
    6.6140    5.0113   10.2946 C   0  0  0  0  0  0  0  0  0  0  0  0
    6.4299    3.9502    9.2486 C   0  0  0  0  0  0  0  0  0  0  0  0
    6.6636    2.6148    9.4811 C   0  0  0  0  0  0  0  0  0  0  0  0
    6.4721    1.7087    8.4562 C   0  0  0  0  0  0  0  0  0  0  0  0
    6.0568    2.0751    7.2022 C   0  0  0  0  0  0  0  0  0  0  0  0
    5.8194    3.4124    6.9587 C   0  0  0  0  0  0  0  0  0  0  0  0
    6.0056    4.3214    7.9714 C   0  0  0  0  0  0  0  0  0  0  0  0
    1.8460    3.7514   13.5272 C   0  0  0  0  0  0  0  0  0  0  0  0
    0.7787    3.0981   12.7947 C   0  0  0  0  0  0  0  0  0  0  0  0
    0.6858    3.2889   11.3538 C   0  0  0  0  0  0  0  0  0  0  0  0
   -0.4731    2.7962   10.7062 O   0  0  0  0  0  0  0  0  0  0  0  0
    1.5230    3.8419   10.6055 O   0  0  0  0  0  0  0  0  0  0  0  0
   -0.2882    2.2198    9.8486 H   0  0  0  0  0  0  0  0  0  0  0  0
    3.6669    1.2502   17.9303 C   0  0  0  0  0  0  0  0  0  0  0  0
    4.0104    1.3087   19.3394 C   0  0  0  0  0  0  0  0  0  0  0  0
    4.9976    2.1465   19.8592 C   0  0  0  0  0  0  0  0  0  0  0  0
    5.2623    2.1242   21.1823 C   0  0  0  0  0  0  0  0  0  0  0  0
    4.6387    1.3314   22.1022 C   0  0  0  0  0  0  0  0  0  0  0  0
    3.6426    0.4839   21.6052 C   0  0  0  0  0  0  0  0  0  0  0  0
    3.3614    0.4959   20.2647 C   0  0  0  0  0  0  0  0  0  0  0  0
    3.7813    6.0450   17.8843 C   0  0  0  0  0  0  0  0  0  0  0  0
    4.1635    7.8101   16.1138 C   0  0  0  0  0  0  0  0  0  0  0  0
    5.4333    7.6408   16.1511 O   0  0  0  0  0  0  0  0  0  0  0  0
    3.3082    7.0521   16.9346 N   0  0  0  0  0  0  0  0  0  0  0  0
    2.2899    7.1936   16.8715 H   0  0  0  0  0  0  0  0  0  0  0  0
    3.6042    8.8283   15.1807 C   0  0  0  0  0  0  0  0  0  0  0  0
    2.1799    7.8879   13.3548 C   0  0  0  0  0  0  0  0  0  0  0  0
    3.1764    8.0240   12.5817 O   0  0  0  0  0  0  0  0  0  0  0  0
    2.2964    8.2758   14.7365 N   0  0  0  0  0  0  0  0  0  0  0  0
    1.4878    8.1738   15.3518 H   0  0  0  0  0  0  0  0  0  0  0  0
   -1.4776    6.2642   12.0407 C   0  0  0  0  0  0  0  0  0  0  0  0
   -1.2120    6.4299   13.3888 C   0  0  0  0  0  0  0  0  0  0  0  0
   -0.0072    6.9693   13.7897 C   0  0  0  0  0  0  0  0  0  0  0  0
    0.9458    7.3500   12.8563 C   0  0  0  0  0  0  0  0  0  0  0  0
    0.6811    7.1858   11.5339 C   0  0  0  0  0  0  0  0  0  0  0  0
   -0.5296    6.6451   11.1269 C   0  0  0  0  0  0  0  0  0  0  0  0
   -4.2435    6.1425   12.6337 N   0  0  0  0  0  0  0  0  0  0  0  0
   -3.0319    5.6015   11.5435 S   0  0  0  0  0  0  0  0  0  0  0  0
   -3.3615    6.0785   10.1460 O   0  0  0  0  0  0  0  0  0  0  0  0
   -2.9169    4.1155   11.5713 O   0  0  0  0  0  0  0  0  0  0  0  0
   -4.3232    7.1819   12.5033 H   0  0  0  0  0  0  0  0  0  0  0  0
   -3.9469    5.8863   13.6144 H   0  0  0  0  0  0  0  0  0  0  0  0
    3.3288   10.1342   15.8365 C   0  0  0  0  0  0  0  0  0  0  0  0
    4.0683   10.3696   17.0929 C   0  0  0  0  0  0  0  0  0  0  0  0
    5.3770   10.8609   17.0841 C   0  0  0  0  0  0  0  0  0  0  0  0
    6.1007   11.0893   18.2385 C   0  0  0  0  0  0  0  0  0  0  0  0
    5.5096   10.8249   19.4554 C   0  0  0  0  0  0  0  0  0  0  0  0
    4.2306   10.3439   19.5046 C   0  0  0  0  0  0  0  0  0  0  0  0
    3.5254   10.1220   18.3190 C   0  0  0  0  0  0  0  0  0  0  0  0
    3.6071    6.5327   19.2567 C   0  0  0  0  0  0  0  0  0  0  0  0
    4.7096    6.2650   20.2233 C   0  0  0  0  0  0  0  0  0  0  0  0
    4.4209    5.7716   21.4863 C   0  0  0  0  0  0  0  0  0  0  0  0
    5.4349    5.5945   22.3839 C   0  0  0  0  0  0  0  0  0  0  0  0
    6.7697    5.9013   22.0579 C   0  0  0  0  0  0  0  0  0  0  0  0
    7.0435    6.3867   20.8081 C   0  0  0  0  0  0  0  0  0  0  0  0
    6.0007    6.5591   19.9126 C   0  0  0  0  0  0  0  0  0  0  0  0
 56 57  1  0  0  0
 57 58  2  0  0  0
 57 59  2  0  0  0
 57 50  1  0  0  0
 50 51  2  0  0  0
 51 52  1  0  0  0
 52 53  2  0  0  0
 53 54  1  0  0  0
 54 55  2  0  0  0
 53 46  1  0  0  0
 46 47  2  0  0  0
 46 48  1  0  0  0
 48 45  1  0  0  0
 45 62  1  0  0  0
 62 63  1  0  0  0
 63 64  2  0  0  0
 64 65  1  0  0  0
 65 66  2  0  0  0
 66 67  1  0  0  0
 67 68  2  0  0  0
 45 41  1  0  0  0
 41 42  2  0  0  0
 41 43  1  0  0  0
 43 40  1  0  0  0
 40 69  1  0  0  0
 69 70  1  0  0  0
 70 71  2  0  0  0
 71 72  1  0  0  0
 72 73  2  0  0  0
 73 74  1  0  0  0
 74 75  2  0  0  0
 40  1  1  0  0  0
  1  2  2  0  0  0
  1  3  1  0  0  0
  3  5  1  0  0  0
  5 33  1  0  0  0
 33 34  1  0  0  0
 34 35  2  0  0  0
 35 36  1  0  0  0
 36 37  2  0  0  0
 37 38  1  0  0  0
 38 39  2  0  0  0
  5  6  1  0  0  0
  6  7  2  0  0  0
  6  8  1  0  0  0
  8 10  1  0  0  0
 10 27  1  0  0  0
 27 28  1  0  0  0
 28 29  1  0  0  0
 29 30  1  0  0  0
 29 31  2  0  0  0
 10 11  1  0  0  0
 11 12  2  0  0  0
 11 13  1  0  0  0
 13 15  1  0  0  0
 15 20  1  0  0  0
 20 21  1  0  0  0
 21 22  2  0  0  0
 22 23  1  0  0  0
 23 24  2  0  0  0
 24 25  1  0  0  0
 25 26  2  0  0  0
 15 16  1  0  0  0
 16 17  1  0  0  0
 16 18  2  0  0  0
 55 50  1  0  0  0
 68 63  1  0  0  0
 75 70  1  0  0  0
 39 34  1  0  0  0
 26 21  1  0  0  0
 56 60  1  0  0  0
 56 61  1  0  0  0
 48 49  1  0  0  0
 43 44  1  0  0  0
  3  4  1  0  0  0
  8  9  1  0  0  0
 30 32  1  0  0  0
 13 14  1  0  0  0
 17 19  1  0  0  0
M  END
> <minimizedAffinity>
-9.15600

> <CNNscore>
0.1690731496

> <CNNaffinity>
7.5114564896

> <CNN_VS>
1.2699855566

> <CNNaffinity_variance>
0.3688727319

$$$$
[H]OC(=O)C([H])([H])C([H])([H])[C@@]([H])(C(=O)N([H])[C@]([H])(C(=O)O[H])C([H])([H])c1c([H])c([H])c([H])c([H])c1[H])N([H])C(=O)[C@@]([H])(N([H])C(=O)[C@@]([H])(N([H])C(=O)[C@@]([H])(N([H])C(=O)c1c([H])c([H])c(S(=O)(=O)N([H])[H])c([H])c1[H])C([H])([H])c1c([H])c([H])c([H])c([H])c1[H])C([H])([H])c1c([H])c([H])c([H])c([H])c1[H])C([H])([H])c1c([H])c([H])c([H])c([H])c1[H]


 75 79  0  0  0  0  0  0  0  0999 V2000
    3.0139    7.9470   14.1923 C   0  0  0  0  0  0  0  0  0  0  0  0
    2.1965    8.7291   14.7367 O   0  0  0  0  0  0  0  0  0  0  0  0
    4.1468    7.5142   14.8880 N   0  0  0  0  0  0  0  0  0  0  0  0
    4.7975    6.8784   14.2908 H   0  0  0  0  0  0  0  0  0  0  0  0
    4.5863    7.7555   16.1916 C   0  0  0  0  0  0  0  0  0  0  0  0
    5.1115    9.1792   16.4606 C   0  0  0  0  0  0  0  0  0  0  0  0
    5.5055    9.9587   15.6066 O   0  0  0  0  0  0  0  0  0  0  0  0
    5.1119    9.5807   17.8235 N   0  0  0  0  0  0  0  0  0  0  0  0
    4.7429    8.8395   18.5031 H   0  0  0  0  0  0  0  0  0  0  0  0
    5.5334   10.8477   18.3948 C   0  0  0  0  0  0  0  0  0  0  0  0
    6.4081   10.5830   19.5276 C   0  0  0  0  0  0  0  0  0  0  0  0
    7.6245   10.2489   19.2283 O   0  0  0  0  0  0  0  0  0  0  0  0
    6.1184   10.6444   20.8879 N   0  0  0  0  0  0  0  0  0  0  0  0
    5.1841   10.9014   21.2313 H   0  0  0  0  0  0  0  0  0  0  0  0
    7.1564   10.3360   21.8606 C   0  0  0  0  0  0  0  0  0  0  0  0
    6.7790    9.2565   22.7935 C   0  0  0  0  0  0  0  0  0  0  0  0
    5.9726    9.6223   23.8976 O   0  0  0  0  0  0  0  0  0  0  0  0
    7.1513    8.0919   22.6116 O   0  0  0  0  0  0  0  0  0  0  0  0
    5.9538    8.9544   24.6606 H   0  0  0  0  0  0  0  0  0  0  0  0
    7.6295   11.5909   22.5638 C   0  0  0  0  0  0  0  0  0  0  0  0
    9.1175   11.5454   22.7579 C   0  0  0  0  0  0  0  0  0  0  0  0
    9.7512   12.0858   23.8527 C   0  0  0  0  0  0  0  0  0  0  0  0
   11.1269   12.0012   23.9449 C   0  0  0  0  0  0  0  0  0  0  0  0
   11.9047   11.4000   22.9896 C   0  0  0  0  0  0  0  0  0  0  0  0
   11.2787   10.8545   21.8874 C   0  0  0  0  0  0  0  0  0  0  0  0
    9.9111   10.9323   21.7867 C   0  0  0  0  0  0  0  0  0  0  0  0
    4.1827   11.3937   18.9394 C   0  0  0  0  0  0  0  0  0  0  0  0
    2.9639   10.7700   18.4622 C   0  0  0  0  0  0  0  0  0  0  0  0
    2.1683   11.4490   17.4485 C   0  0  0  0  0  0  0  0  0  0  0  0
    0.8316   11.7759   17.7826 O   0  0  0  0  0  0  0  0  0  0  0  0
    2.5286   11.7805   16.2967 O   0  0  0  0  0  0  0  0  0  0  0  0
    0.1171   11.4999   17.0649 H   0  0  0  0  0  0  0  0  0  0  0  0
    5.4084    6.7934   16.9415 C   0  0  0  0  0  0  0  0  0  0  0  0
    4.9949    6.3775   18.2692 C   0  0  0  0  0  0  0  0  0  0  0  0
    5.8849    6.1517   19.3197 C   0  0  0  0  0  0  0  0  0  0  0  0
    5.4133    5.7509   20.5189 C   0  0  0  0  0  0  0  0  0  0  0  0
    4.1002    5.5325   20.8215 C   0  0  0  0  0  0  0  0  0  0  0  0
    3.1877    5.7548   19.7845 C   0  0  0  0  0  0  0  0  0  0  0  0
    3.6508    6.1631   18.5617 C   0  0  0  0  0  0  0  0  0  0  0  0
    2.7076    7.5112   12.8298 C   0  0  0  0  0  0  0  0  0  0  0  0
    2.2952    5.1627   13.6729 C   0  0  0  0  0  0  0  0  0  0  0  0
    1.7774    5.5937   14.7631 O   0  0  0  0  0  0  0  0  0  0  0  0
    2.7600    6.0560   12.6901 N   0  0  0  0  0  0  0  0  0  0  0  0
    3.1541    5.6841   11.8141 H   0  0  0  0  0  0  0  0  0  0  0  0
    2.3966    3.6912   13.4613 C   0  0  0  0  0  0  0  0  0  0  0  0
    3.7436    3.0600   15.4697 C   0  0  0  0  0  0  0  0  0  0  0  0
    4.7597    3.5199   14.8653 O   0  0  0  0  0  0  0  0  0  0  0  0
    2.4563    3.1026   14.8261 N   0  0  0  0  0  0  0  0  0  0  0  0
    1.6437    2.7215   15.3131 H   0  0  0  0  0  0  0  0  0  0  0  0
    4.0017    1.3362   19.3041 C   0  0  0  0  0  0  0  0  0  0  0  0
    3.1509    0.8185   18.3432 C   0  0  0  0  0  0  0  0  0  0  0  0
    3.0912    1.4009   17.0939 C   0  0  0  0  0  0  0  0  0  0  0  0
    3.8759    2.5026   16.7861 C   0  0  0  0  0  0  0  0  0  0  0  0
    4.7097    3.0077   17.7322 C   0  0  0  0  0  0  0  0  0  0  0  0
    4.7737    2.4241   18.9889 C   0  0  0  0  0  0  0  0  0  0  0  0
    3.5463    1.6734   22.0782 N   0  0  0  0  0  0  0  0  0  0  0  0
    4.0885    0.5639   20.8847 S   0  0  0  0  0  0  0  0  0  0  0  0
    3.2034   -0.6630   20.8975 O   0  0  0  0  0  0  0  0  0  0  0  0
    5.5098    0.1814   21.1210 O   0  0  0  0  0  0  0  0  0  0  0  0
    2.5242    1.8348   21.8968 H   0  0  0  0  0  0  0  0  0  0  0  0
    4.1112    2.5611   21.9882 H   0  0  0  0  0  0  0  0  0  0  0  0
    1.2042    3.1137   12.7861 C   0  0  0  0  0  0  0  0  0  0  0  0
    1.4873    2.3921   11.5291 C   0  0  0  0  0  0  0  0  0  0  0  0
    0.5828    2.4075   10.4634 C   0  0  0  0  0  0  0  0  0  0  0  0
    0.8117    1.7414    9.2750 C   0  0  0  0  0  0  0  0  0  0  0  0
    1.9836    1.0306    9.1279 C   0  0  0  0  0  0  0  0  0  0  0  0
    2.8932    0.9924   10.1481 C   0  0  0  0  0  0  0  0  0  0  0  0
    2.6317    1.6756   11.3384 C   0  0  0  0  0  0  0  0  0  0  0  0
    1.5558    8.0420   12.0926 C   0  0  0  0  0  0  0  0  0  0  0  0
    0.3265    7.2006   12.0457 C   0  0  0  0  0  0  0  0  0  0  0  0
   -0.5189    7.1451   13.1431 C   0  0  0  0  0  0  0  0  0  0  0  0
   -1.6055    6.3183   13.1102 C   0  0  0  0  0  0  0  0  0  0  0  0
   -1.8894    5.5188   11.9867 C   0  0  0  0  0  0  0  0  0  0  0  0
   -1.0490    5.5822   10.9087 C   0  0  0  0  0  0  0  0  0  0  0  0
    0.0476    6.4271   10.9622 C   0  0  0  0  0  0  0  0  0  0  0  0
 56 57  1  0  0  0
 57 58  2  0  0  0
 57 59  2  0  0  0
 57 50  1  0  0  0
 50 51  2  0  0  0
 51 52  1  0  0  0
 52 53  2  0  0  0
 53 54  1  0  0  0
 54 55  2  0  0  0
 53 46  1  0  0  0
 46 47  2  0  0  0
 46 48  1  0  0  0
 48 45  1  0  0  0
 45 62  1  0  0  0
 62 63  1  0  0  0
 63 64  2  0  0  0
 64 65  1  0  0  0
 65 66  2  0  0  0
 66 67  1  0  0  0
 67 68  2  0  0  0
 45 41  1  0  0  0
 41 42  2  0  0  0
 41 43  1  0  0  0
 43 40  1  0  0  0
 40 69  1  0  0  0
 69 70  1  0  0  0
 70 71  2  0  0  0
 71 72  1  0  0  0
 72 73  2  0  0  0
 73 74  1  0  0  0
 74 75  2  0  0  0
 40  1  1  0  0  0
  1  2  2  0  0  0
  1  3  1  0  0  0
  3  5  1  0  0  0
  5 33  1  0  0  0
 33 34  1  0  0  0
 34 35  2  0  0  0
 35 36  1  0  0  0
 36 37  2  0  0  0
 37 38  1  0  0  0
 38 39  2  0  0  0
  5  6  1  0  0  0
  6  7  2  0  0  0
  6  8  1  0  0  0
  8 10  1  0  0  0
 10 27  1  0  0  0
 27 28  1  0  0  0
 28 29  1  0  0  0
 29 30  1  0  0  0
 29 31  2  0  0  0
 10 11  1  0  0  0
 11 12  2  0  0  0
 11 13  1  0  0  0
 13 15  1  0  0  0
 15 20  1  0  0  0
 20 21  1  0  0  0
 21 22  2  0  0  0
 22 23  1  0  0  0
 23 24  2  0  0  0
 24 25  1  0  0  0
 25 26  2  0  0  0
 15 16  1  0  0  0
 16 17  1  0  0  0
 16 18  2  0  0  0
 55 50  1  0  0  0
 68 63  1  0  0  0
 75 70  1  0  0  0
 39 34  1  0  0  0
 26 21  1  0  0  0
 56 60  1  0  0  0
 56 61  1  0  0  0
 48 49  1  0  0  0
 43 44  1  0  0  0
  3  4  1  0  0  0
  8  9  1  0  0  0
 30 32  1  0  0  0
 13 14  1  0  0  0
 17 19  1  0  0  0
M  END
> <minimizedAffinity>
-8.97254

> <CNNscore>
0.1572239250

> <CNNaffinity>
7.4120507240

> <CNN_VS>
1.1653517485

> <CNNaffinity_variance>
0.5293734074

$$$$
[H]OC(=O)C([H])([H])C([H])([H])[C@@]([H])(C(=O)N([H])[C@]([H])(C(=O)O[H])C([H])([H])c1c([H])c([H])c([H])c([H])c1[H])N([H])C(=O)[C@@]([H])(N([H])C(=O)[C@@]([H])(N([H])C(=O)[C@@]([H])(N([H])C(=O)c1c([H])c([H])c(S(=O)(=O)N([H])[H])c([H])c1[H])C([H])([H])c1c([H])c([H])c([H])c([H])c1[H])C([H])([H])c1c([H])c([H])c([H])c([H])c1[H])C([H])([H])c1c([H])c([H])c([H])c([H])c1[H]


 75 79  0  0  0  0  0  0  0  0999 V2000
    3.0818    4.3744   17.4442 C   0  0  0  0  0  0  0  0  0  0  0  0
    2.0278    5.0032   17.1799 O   0  0  0  0  0  0  0  0  0  0  0  0
    3.9838    4.8744   18.3883 N   0  0  0  0  0  0  0  0  0  0  0  0
    4.8771    4.2615   18.4916 H   0  0  0  0  0  0  0  0  0  0  0  0
    3.9434    6.0071   19.2044 C   0  0  0  0  0  0  0  0  0  0  0  0
    3.8698    7.3558   18.4622 C   0  0  0  0  0  0  0  0  0  0  0  0
    3.5048    8.4126   18.9543 O   0  0  0  0  0  0  0  0  0  0  0  0
    4.2769    7.3250   17.1013 N   0  0  0  0  0  0  0  0  0  0  0  0
    4.5890    6.3607   16.7546 H   0  0  0  0  0  0  0  0  0  0  0  0
    4.3292    8.4178   16.1462 C   0  0  0  0  0  0  0  0  0  0  0  0
    3.8922    7.9264   14.8476 C   0  0  0  0  0  0  0  0  0  0  0  0
    3.6982    6.6469   14.7707 O   0  0  0  0  0  0  0  0  0  0  0  0
    3.6493    8.6431   13.6791 N   0  0  0  0  0  0  0  0  0  0  0  0
    3.7710    9.6629   13.6343 H   0  0  0  0  0  0  0  0  0  0  0  0
    3.2136    7.9414   12.4806 C   0  0  0  0  0  0  0  0  0  0  0  0
    4.1960    8.0006   11.3808 C   0  0  0  0  0  0  0  0  0  0  0  0
    3.6911    8.2927   10.0913 O   0  0  0  0  0  0  0  0  0  0  0  0
    5.3994    7.8052   11.5842 O   0  0  0  0  0  0  0  0  0  0  0  0
    4.3087    8.0600    9.3212 H   0  0  0  0  0  0  0  0  0  0  0  0
    1.8280    8.3890   12.0646 C   0  0  0  0  0  0  0  0  0  0  0  0
    0.9084    7.2060   11.9714 C   0  0  0  0  0  0  0  0  0  0  0  0
    0.3925    6.7449   10.7826 C   0  0  0  0  0  0  0  0  0  0  0  0
   -0.4510    5.6510   10.7933 C   0  0  0  0  0  0  0  0  0  0  0  0
   -0.8067    4.9922   11.9416 C   0  0  0  0  0  0  0  0  0  0  0  0
   -0.2943    5.4468   13.1395 C   0  0  0  0  0  0  0  0  0  0  0  0
    0.5462    6.5330   13.1398 C   0  0  0  0  0  0  0  0  0  0  0  0
    5.8605    8.6811   16.0772 C   0  0  0  0  0  0  0  0  0  0  0  0
    6.4096    9.6910   16.9609 C   0  0  0  0  0  0  0  0  0  0  0  0
    5.6097   10.8652   17.2815 C   0  0  0  0  0  0  0  0  0  0  0  0
    5.0100   10.9131   18.5634 O   0  0  0  0  0  0  0  0  0  0  0  0
    5.3814   11.8522   16.5465 O   0  0  0  0  0  0  0  0  0  0  0  0
    3.9903   11.1622   18.5647 H   0  0  0  0  0  0  0  0  0  0  0  0
    4.8003    6.1605   20.3901 C   0  0  0  0  0  0  0  0  0  0  0  0
    4.7876    5.1395   21.4218 C   0  0  0  0  0  0  0  0  0  0  0  0
    5.8234    4.2251   21.6159 C   0  0  0  0  0  0  0  0  0  0  0  0
    5.7205    3.2980   22.5912 C   0  0  0  0  0  0  0  0  0  0  0  0
    4.6619    3.1559   23.4412 C   0  0  0  0  0  0  0  0  0  0  0  0
    3.6113    4.0634   23.2678 C   0  0  0  0  0  0  0  0  0  0  0  0
    3.7014    5.0112   22.2830 C   0  0  0  0  0  0  0  0  0  0  0  0
    3.2942    3.1106   16.7388 C   0  0  0  0  0  0  0  0  0  0  0  0
    2.8331    2.5375   14.3190 C   0  0  0  0  0  0  0  0  0  0  0  0
    2.0080    1.6128   14.6455 O   0  0  0  0  0  0  0  0  0  0  0  0
    3.4851    3.3053   15.3015 N   0  0  0  0  0  0  0  0  0  0  0  0
    4.1288    4.0556   15.0126 H   0  0  0  0  0  0  0  0  0  0  0  0
    3.0918    2.7884   12.8732 C   0  0  0  0  0  0  0  0  0  0  0  0
    1.9464    1.5906   11.0023 C   0  0  0  0  0  0  0  0  0  0  0  0
    3.0943    1.2200   10.6094 O   0  0  0  0  0  0  0  0  0  0  0  0
    1.8310    2.4124   12.1789 N   0  0  0  0  0  0  0  0  0  0  0  0
    0.9054    2.7164   12.4846 H   0  0  0  0  0  0  0  0  0  0  0  0
   -1.5459    0.5753    8.8779 C   0  0  0  0  0  0  0  0  0  0  0  0
   -1.1393    1.8928    8.9975 C   0  0  0  0  0  0  0  0  0  0  0  0
    0.0120    2.1950    9.6951 C   0  0  0  0  0  0  0  0  0  0  0  0
    0.7713    1.1923   10.2803 C   0  0  0  0  0  0  0  0  0  0  0  0
    0.3687   -0.0996   10.1604 C   0  0  0  0  0  0  0  0  0  0  0  0
   -0.7874   -0.4076    9.4587 C   0  0  0  0  0  0  0  0  0  0  0  0
   -4.0861    1.5300    8.0699 N   0  0  0  0  0  0  0  0  0  0  0  0
   -3.0018    0.2027    7.9594 S   0  0  0  0  0  0  0  0  0  0  0  0
   -2.6390   -0.0328    6.5096 O   0  0  0  0  0  0  0  0  0  0  0  0
   -3.6042   -1.0262    8.5502 O   0  0  0  0  0  0  0  0  0  0  0  0
   -3.6311    2.3327    7.5675 H   0  0  0  0  0  0  0  0  0  0  0  0
   -4.2498    1.7416    9.0915 H   0  0  0  0  0  0  0  0  0  0  0  0
    3.3523    4.2196   12.5653 C   0  0  0  0  0  0  0  0  0  0  0  0
    4.0470    4.4662   11.2857 C   0  0  0  0  0  0  0  0  0  0  0  0
    3.3378    4.7848   10.1239 C   0  0  0  0  0  0  0  0  0  0  0  0
    3.9530    5.0177    8.9091 C   0  0  0  0  0  0  0  0  0  0  0  0
    5.3270    4.9357    8.8347 C   0  0  0  0  0  0  0  0  0  0  0  0
    6.0553    4.6268    9.9499 C   0  0  0  0  0  0  0  0  0  0  0  0
    5.4033    4.3954   11.1638 C   0  0  0  0  0  0  0  0  0  0  0  0
    4.2356    2.1009   17.2348 C   0  0  0  0  0  0  0  0  0  0  0  0
    3.7889    1.2496   18.3737 C   0  0  0  0  0  0  0  0  0  0  0  0
    2.8430    0.2570   18.1691 C   0  0  0  0  0  0  0  0  0  0  0  0
    2.3943   -0.4704   19.2345 C   0  0  0  0  0  0  0  0  0  0  0  0
    2.8695   -0.2366   20.5389 C   0  0  0  0  0  0  0  0  0  0  0  0
    3.8039    0.7449   20.7293 C   0  0  0  0  0  0  0  0  0  0  0  0
    4.2458    1.4712   19.6355 C   0  0  0  0  0  0  0  0  0  0  0  0
 56 57  1  0  0  0
 57 58  2  0  0  0
 57 59  2  0  0  0
 57 50  1  0  0  0
 50 51  2  0  0  0
 51 52  1  0  0  0
 52 53  2  0  0  0
 53 54  1  0  0  0
 54 55  2  0  0  0
 53 46  1  0  0  0
 46 47  2  0  0  0
 46 48  1  0  0  0
 48 45  1  0  0  0
 45 62  1  0  0  0
 62 63  1  0  0  0
 63 64  2  0  0  0
 64 65  1  0  0  0
 65 66  2  0  0  0
 66 67  1  0  0  0
 67 68  2  0  0  0
 45 41  1  0  0  0
 41 42  2  0  0  0
 41 43  1  0  0  0
 43 40  1  0  0  0
 40 69  1  0  0  0
 69 70  1  0  0  0
 70 71  2  0  0  0
 71 72  1  0  0  0
 72 73  2  0  0  0
 73 74  1  0  0  0
 74 75  2  0  0  0
 40  1  1  0  0  0
  1  2  2  0  0  0
  1  3  1  0  0  0
  3  5  1  0  0  0
  5 33  1  0  0  0
 33 34  1  0  0  0
 34 35  2  0  0  0
 35 36  1  0  0  0
 36 37  2  0  0  0
 37 38  1  0  0  0
 38 39  2  0  0  0
  5  6  1  0  0  0
  6  7  2  0  0  0
  6  8  1  0  0  0
  8 10  1  0  0  0
 10 27  1  0  0  0
 27 28  1  0  0  0
 28 29  1  0  0  0
 29 30  1  0  0  0
 29 31  2  0  0  0
 10 11  1  0  0  0
 11 12  2  0  0  0
 11 13  1  0  0  0
 13 15  1  0  0  0
 15 20  1  0  0  0
 20 21  1  0  0  0
 21 22  2  0  0  0
 22 23  1  0  0  0
 23 24  2  0  0  0
 24 25  1  0  0  0
 25 26  2  0  0  0
 15 16  1  0  0  0
 16 17  1  0  0  0
 16 18  2  0  0  0
 55 50  1  0  0  0
 68 63  1  0  0  0
 75 70  1  0  0  0
 39 34  1  0  0  0
 26 21  1  0  0  0
 56 60  1  0  0  0
 56 61  1  0  0  0
 48 49  1  0  0  0
 43 44  1  0  0  0
  3  4  1  0  0  0
  8  9  1  0  0  0
 30 32  1  0  0  0
 13 14  1  0  0  0
 17 19  1  0  0  0
M  END
> <minimizedAffinity>
-8.75602

> <CNNscore>
0.1470765173

> <CNNaffinity>
7.5480155945

> <CNN_VS>
1.1101357937

> <CNNaffinity_variance>
0.5320361257

$$$$
[H]OC(=O)C([H])([H])C([H])([H])[C@@]([H])(C(=O)N([H])[C@]([H])(C(=O)O[H])C([H])([H])c1c([H])c([H])c([H])c([H])c1[H])N([H])C(=O)[C@@]([H])(N([H])C(=O)[C@@]([H])(N([H])C(=O)[C@@]([H])(N([H])C(=O)c1c([H])c([H])c(S(=O)(=O)N([H])[H])c([H])c1[H])C([H])([H])c1c([H])c([H])c([H])c([H])c1[H])C([H])([H])c1c([H])c([H])c([H])c([H])c1[H])C([H])([H])c1c([H])c([H])c([H])c([H])c1[H]


 75 79  0  0  0  0  0  0  0  0999 V2000
    3.5019    8.0498   14.6811 C   0  0  0  0  0  0  0  0  0  0  0  0
    2.9152    8.9952   15.2629 O   0  0  0  0  0  0  0  0  0  0  0  0
    4.5752    7.3996   15.2975 N   0  0  0  0  0  0  0  0  0  0  0  0
    5.0254    6.6315   14.6716 H   0  0  0  0  0  0  0  0  0  0  0  0
    5.1658    7.5641   16.5524 C   0  0  0  0  0  0  0  0  0  0  0  0
    6.0369    8.8251   16.7144 C   0  0  0  0  0  0  0  0  0  0  0  0
    6.7339    9.3178   15.8405 O   0  0  0  0  0  0  0  0  0  0  0  0
    5.9892    9.4377   17.9954 N   0  0  0  0  0  0  0  0  0  0  0  0
    5.3475    8.9453   18.6977 H   0  0  0  0  0  0  0  0  0  0  0  0
    6.6813   10.6283   18.4569 C   0  0  0  0  0  0  0  0  0  0  0  0
    7.2112   10.3756   19.7888 C   0  0  0  0  0  0  0  0  0  0  0  0
    6.4542    9.6660   20.5660 O   0  0  0  0  0  0  0  0  0  0  0  0
    8.4215   10.7873   20.3399 N   0  0  0  0  0  0  0  0  0  0  0  0
    9.0948   11.3523   19.8067 H   0  0  0  0  0  0  0  0  0  0  0  0
    8.7536   10.4170   21.7078 C   0  0  0  0  0  0  0  0  0  0  0  0
    8.5522   11.5143   22.6740 C   0  0  0  0  0  0  0  0  0  0  0  0
    7.2133   11.8731   22.9598 O   0  0  0  0  0  0  0  0  0  0  0  0
    9.5110   12.0859   23.2049 O   0  0  0  0  0  0  0  0  0  0  0  0
    7.0912   12.7825   23.3919 H   0  0  0  0  0  0  0  0  0  0  0  0
   10.1370    9.8057   21.7826 C   0  0  0  0  0  0  0  0  0  0  0  0
   10.0428    8.3585   22.1708 C   0  0  0  0  0  0  0  0  0  0  0  0
    9.3308    7.9159   23.2613 C   0  0  0  0  0  0  0  0  0  0  0  0
    9.3041    6.5643   23.5453 C   0  0  0  0  0  0  0  0  0  0  0  0
    9.9593    5.6281   22.7882 C   0  0  0  0  0  0  0  0  0  0  0  0
   10.6763    6.0618   21.6918 C   0  0  0  0  0  0  0  0  0  0  0  0
   10.7083    7.4035   21.4000 C   0  0  0  0  0  0  0  0  0  0  0  0
    5.4987   11.6303   18.5852 C   0  0  0  0  0  0  0  0  0  0  0  0
    4.3119   11.1833   19.2881 C   0  0  0  0  0  0  0  0  0  0  0  0
    3.0346   11.1702   18.5884 C   0  0  0  0  0  0  0  0  0  0  0  0
    2.7749   10.0745   17.7298 O   0  0  0  0  0  0  0  0  0  0  0  0
    2.1248   12.0274   18.6526 O   0  0  0  0  0  0  0  0  0  0  0  0
    2.4279   10.3351   16.7741 H   0  0  0  0  0  0  0  0  0  0  0  0
    5.7926    6.4532   17.2850 C   0  0  0  0  0  0  0  0  0  0  0  0
    5.6932    6.4008   18.7322 C   0  0  0  0  0  0  0  0  0  0  0  0
    4.4856    6.4804   19.4264 C   0  0  0  0  0  0  0  0  0  0  0  0
    4.4879    6.4392   20.7753 C   0  0  0  0  0  0  0  0  0  0  0  0
    5.5970    6.3250   21.5630 C   0  0  0  0  0  0  0  0  0  0  0  0
    6.8203    6.2410   20.8893 C   0  0  0  0  0  0  0  0  0  0  0  0
    6.8345    6.2801   19.5202 C   0  0  0  0  0  0  0  0  0  0  0  0
    2.9955    7.6662   13.3633 C   0  0  0  0  0  0  0  0  0  0  0  0
    2.3123    5.2744   13.8202 C   0  0  0  0  0  0  0  0  0  0  0  0
    1.4506    5.6375   14.6964 O   0  0  0  0  0  0  0  0  0  0  0  0
    3.0901    6.2246   13.1331 N   0  0  0  0  0  0  0  0  0  0  0  0
    3.7618    5.9080   12.4194 H   0  0  0  0  0  0  0  0  0  0  0  0
    2.4776    3.8206   13.5382 C   0  0  0  0  0  0  0  0  0  0  0  0
    3.7521    3.2264   15.6045 C   0  0  0  0  0  0  0  0  0  0  0  0
    4.7472    3.8288   15.0983 O   0  0  0  0  0  0  0  0  0  0  0  0
    2.5136    3.1646   14.8729 N   0  0  0  0  0  0  0  0  0  0  0  0
    1.7191    2.6693   15.2806 H   0  0  0  0  0  0  0  0  0  0  0  0
    3.9445    1.3297   19.3603 C   0  0  0  0  0  0  0  0  0  0  0  0
    3.1702    0.8121   18.3367 C   0  0  0  0  0  0  0  0  0  0  0  0
    3.1306    1.4521   17.1152 C   0  0  0  0  0  0  0  0  0  0  0  0
    3.8596    2.6121   16.8976 C   0  0  0  0  0  0  0  0  0  0  0  0
    4.6185    3.1169   17.9050 C   0  0  0  0  0  0  0  0  0  0  0  0
    4.6620    2.4755   19.1340 C   0  0  0  0  0  0  0  0  0  0  0  0
    3.1387   -0.9898   20.7700 N   0  0  0  0  0  0  0  0  0  0  0  0
    4.0080    0.4852   20.9046 S   0  0  0  0  0  0  0  0  0  0  0  0
    5.4485    0.1909   21.2615 O   0  0  0  0  0  0  0  0  0  0  0  0
    3.3904    1.3745   21.9293 O   0  0  0  0  0  0  0  0  0  0  0  0
    3.6718   -1.5926   20.0946 H   0  0  0  0  0  0  0  0  0  0  0  0
    2.1647   -0.7716   20.4251 H   0  0  0  0  0  0  0  0  0  0  0  0
    1.3321    3.2354   12.7923 C   0  0  0  0  0  0  0  0  0  0  0  0
    1.4941    3.2033   11.3248 C   0  0  0  0  0  0  0  0  0  0  0  0
    0.4730    2.7373   10.4915 C   0  0  0  0  0  0  0  0  0  0  0  0
    0.5902    2.6887    9.1159 C   0  0  0  0  0  0  0  0  0  0  0  0
    1.7633    3.1200    8.5344 C   0  0  0  0  0  0  0  0  0  0  0  0
    2.7847    3.5831    9.3165 C   0  0  0  0  0  0  0  0  0  0  0  0
    2.6358    3.6183   10.7053 C   0  0  0  0  0  0  0  0  0  0  0  0
    1.7154    8.1698   12.8541 C   0  0  0  0  0  0  0  0  0  0  0  0
    1.2223    7.6066   11.5654 C   0  0  0  0  0  0  0  0  0  0  0  0
    0.0246    6.9094   11.5256 C   0  0  0  0  0  0  0  0  0  0  0  0
   -0.3812    6.3419   10.3515 C   0  0  0  0  0  0  0  0  0  0  0  0
    0.3883    6.4474    9.1773 C   0  0  0  0  0  0  0  0  0  0  0  0
    1.5682    7.1387    9.2275 C   0  0  0  0  0  0  0  0  0  0  0  0
    1.9618    7.7066   10.4282 C   0  0  0  0  0  0  0  0  0  0  0  0
 56 57  1  0  0  0
 57 58  2  0  0  0
 57 59  2  0  0  0
 57 50  1  0  0  0
 50 51  2  0  0  0
 51 52  1  0  0  0
 52 53  2  0  0  0
 53 54  1  0  0  0
 54 55  2  0  0  0
 53 46  1  0  0  0
 46 47  2  0  0  0
 46 48  1  0  0  0
 48 45  1  0  0  0
 45 62  1  0  0  0
 62 63  1  0  0  0
 63 64  2  0  0  0
 64 65  1  0  0  0
 65 66  2  0  0  0
 66 67  1  0  0  0
 67 68  2  0  0  0
 45 41  1  0  0  0
 41 42  2  0  0  0
 41 43  1  0  0  0
 43 40  1  0  0  0
 40 69  1  0  0  0
 69 70  1  0  0  0
 70 71  2  0  0  0
 71 72  1  0  0  0
 72 73  2  0  0  0
 73 74  1  0  0  0
 74 75  2  0  0  0
 40  1  1  0  0  0
  1  2  2  0  0  0
  1  3  1  0  0  0
  3  5  1  0  0  0
  5 33  1  0  0  0
 33 34  1  0  0  0
 34 35  2  0  0  0
 35 36  1  0  0  0
 36 37  2  0  0  0
 37 38  1  0  0  0
 38 39  2  0  0  0
  5  6  1  0  0  0
  6  7  2  0  0  0
  6  8  1  0  0  0
  8 10  1  0  0  0
 10 27  1  0  0  0
 27 28  1  0  0  0
 28 29  1  0  0  0
 29 30  1  0  0  0
 29 31  2  0  0  0
 10 11  1  0  0  0
 11 12  2  0  0  0
 11 13  1  0  0  0
 13 15  1  0  0  0
 15 20  1  0  0  0
 20 21  1  0  0  0
 21 22  2  0  0  0
 22 23  1  0  0  0
 23 24  2  0  0  0
 24 25  1  0  0  0
 25 26  2  0  0  0
 15 16  1  0  0  0
 16 17  1  0  0  0
 16 18  2  0  0  0
 55 50  1  0  0  0
 68 63  1  0  0  0
 75 70  1  0  0  0
 39 34  1  0  0  0
 26 21  1  0  0  0
 56 60  1  0  0  0
 56 61  1  0  0  0
 48 49  1  0  0  0
 43 44  1  0  0  0
  3  4  1  0  0  0
  8  9  1  0  0  0
 30 32  1  0  0  0
 13 14  1  0  0  0
 17 19  1  0  0  0
M  END
> <minimizedAffinity>
-8.37136

> <CNNscore>
0.1455025822

> <CNNaffinity>
7.4118132591

> <CNN_VS>
1.0784379244

> <CNNaffinity_variance>
0.7787115574

$$$$
[H]OC(=O)[C@]([H])(N([H])S(=O)(=O)c1c([H])c([H])c(-c2c([H])c([H])c(OC([H])([H])[H])c([H])c2[H])c([H])c1[H])C([H])(C([H])([H])[H])C([H])([H])[H]


 27 28  0  0  0  0  0  0  0  0999 V2000
    3.6246    2.4585   15.9367 C   0  0  0  0  0  0  0  0  0  0  0  0
    4.2302    3.4086   16.7603 C   0  0  0  0  0  0  0  0  0  0  0  0
    4.4266    3.1192   18.0900 C   0  0  0  0  0  0  0  0  0  0  0  0
    4.0422    1.9062   18.6508 C   0  0  0  0  0  0  0  0  0  0  0  0
    3.4444    0.9652   17.8435 C   0  0  0  0  0  0  0  0  0  0  0  0
    3.2560    1.2737   16.5147 C   0  0  0  0  0  0  0  0  0  0  0  0
    3.0638    3.3416   11.7978 C   0  0  0  0  0  0  0  0  0  0  0  0
    2.5146    2.1983   12.3594 C   0  0  0  0  0  0  0  0  0  0  0  0
    2.6750    1.8794   13.7050 C   0  0  0  0  0  0  0  0  0  0  0  0
    3.4057    2.7272   14.5154 C   0  0  0  0  0  0  0  0  0  0  0  0
    3.9548    3.8611   13.9754 C   0  0  0  0  0  0  0  0  0  0  0  0
    3.7856    4.1685   12.6225 C   0  0  0  0  0  0  0  0  0  0  0  0
    3.9275    3.4535    9.5234 C   0  0  0  0  0  0  0  0  0  0  0  0
    2.8741    3.6131   10.4502 O   0  0  0  0  0  0  0  0  0  0  0  0
    4.3390    1.6227   20.3644 S   0  0  0  0  0  0  0  0  0  0  0  0
    5.5956    0.8490   20.4765 O   0  0  0  0  0  0  0  0  0  0  0  0
    3.2059    0.8149   20.9215 O   0  0  0  0  0  0  0  0  0  0  0  0
    4.3723    3.1268   21.1433 N   0  0  0  0  0  0  0  0  0  0  0  0
    3.4742    3.5555   21.3675 H   0  0  0  0  0  0  0  0  0  0  0  0
    5.4418    3.3160   22.0586 C   0  0  0  0  0  0  0  0  0  0  0  0
    6.1316    4.6036   21.7534 C   0  0  0  0  0  0  0  0  0  0  0  0
    7.1105    5.1113   22.6055 O   0  0  0  0  0  0  0  0  0  0  0  0
    5.8432    5.2570   20.7212 O   0  0  0  0  0  0  0  0  0  0  0  0
    7.5957    5.9584   22.3974 H   0  0  0  0  0  0  0  0  0  0  0  0
    4.8701    3.3401   23.4703 C   0  0  0  0  0  0  0  0  0  0  0  0
    3.5276    4.0373   23.5125 C   0  0  0  0  0  0  0  0  0  0  0  0
    4.8620    1.9900   24.1038 C   0  0  0  0  0  0  0  0  0  0  0  0
 13 14  1  0  0  0
 14  7  1  0  0  0
  7  8  2  0  0  0
  8  9  1  0  0  0
  9 10  2  0  0  0
 10 11  1  0  0  0
 11 12  2  0  0  0
 10  1  1  0  0  0
  1  2  2  0  0  0
  2  3  1  0  0  0
  3  4  2  0  0  0
  4  5  1  0  0  0
  5  6  2  0  0  0
  4 15  1  0  0  0
 15 16  2  0  0  0
 15 17  2  0  0  0
 15 18  1  0  0  0
 18 20  1  0  0  0
 20 25  1  0  0  0
 25 26  1  0  0  0
 25 27  1  0  0  0
 20 21  1  0  0  0
 21 22  1  0  0  0
 21 23  2  0  0  0
 12  7  1  0  0  0
  6  1  1  0  0  0
 18 19  1  0  0  0
 22 24  1  0  0  0
M  END
> <minimizedAffinity>
-7.68126

> <CNNscore>
0.3124468923

> <CNNaffinity>
5.3969449997

> <CNN_VS>
1.6862586737

> <CNNaffinity_variance>
0.1461042762

$$$$
[H]OC(=O)[C@]([H])(N([H])S(=O)(=O)c1c([H])c([H])c(-c2c([H])c([H])c(OC([H])([H])[H])c([H])c2[H])c([H])c1[H])C([H])(C([H])([H])[H])C([H])([H])[H]


 27 28  0  0  0  0  0  0  0  0999 V2000
    2.9203    2.4897   14.3644 C   0  0  0  0  0  0  0  0  0  0  0  0
    1.8594    1.7905   13.7871 C   0  0  0  0  0  0  0  0  0  0  0  0
    1.4668    2.1004   12.5063 C   0  0  0  0  0  0  0  0  0  0  0  0
    2.0912    3.0918   11.7575 C   0  0  0  0  0  0  0  0  0  0  0  0
    3.1381    3.7850   12.3216 C   0  0  0  0  0  0  0  0  0  0  0  0
    3.5164    3.4603   13.6053 C   0  0  0  0  0  0  0  0  0  0  0  0
    4.1801    1.4824   18.3170 C   0  0  0  0  0  0  0  0  0  0  0  0
    4.6064    2.6571   17.7148 C   0  0  0  0  0  0  0  0  0  0  0  0
    4.2145    3.0189   16.4290 C   0  0  0  0  0  0  0  0  0  0  0  0
    3.3714    2.1831   15.7219 C   0  0  0  0  0  0  0  0  0  0  0  0
    2.9412    1.0186   16.3031 C   0  0  0  0  0  0  0  0  0  0  0  0
    3.3431    0.6682   17.5950 C   0  0  0  0  0  0  0  0  0  0  0  0
    3.8226    1.5225   20.7257 C   0  0  0  0  0  0  0  0  0  0  0  0
    4.6006    1.1685   19.6017 O   0  0  0  0  0  0  0  0  0  0  0  0
    1.5218    3.4160   10.1218 S   0  0  0  0  0  0  0  0  0  0  0  0
    1.1414    2.1196    9.5177 O   0  0  0  0  0  0  0  0  0  0  0  0
    2.6434    4.0222    9.3335 O   0  0  0  0  0  0  0  0  0  0  0  0
    0.2566    4.5380   10.2233 N   0  0  0  0  0  0  0  0  0  0  0  0
   -0.6317    4.2060   10.5992 H   0  0  0  0  0  0  0  0  0  0  0  0
    0.6457    5.8700   10.5259 C   0  0  0  0  0  0  0  0  0  0  0  0
    0.4699    6.7236    9.3145 C   0  0  0  0  0  0  0  0  0  0  0  0
   -0.8005    7.0098    8.8181 O   0  0  0  0  0  0  0  0  0  0  0  0
    1.4647    7.2016    8.7166 O   0  0  0  0  0  0  0  0  0  0  0  0
   -0.9299    7.6002    8.0238 H   0  0  0  0  0  0  0  0  0  0  0  0
   -0.2252    6.3797   11.6670 C   0  0  0  0  0  0  0  0  0  0  0  0
   -0.7822    5.2390   12.4909 C   0  0  0  0  0  0  0  0  0  0  0  0
    0.4585    7.4260   12.4807 C   0  0  0  0  0  0  0  0  0  0  0  0
 13 14  1  0  0  0
 14  7  1  0  0  0
  7  8  2  0  0  0
  8  9  1  0  0  0
  9 10  2  0  0  0
 10 11  1  0  0  0
 11 12  2  0  0  0
 10  1  1  0  0  0
  1  2  2  0  0  0
  2  3  1  0  0  0
  3  4  2  0  0  0
  4  5  1  0  0  0
  5  6  2  0  0  0
  4 15  1  0  0  0
 15 16  2  0  0  0
 15 17  2  0  0  0
 15 18  1  0  0  0
 18 20  1  0  0  0
 20 25  1  0  0  0
 25 26  1  0  0  0
 25 27  1  0  0  0
 20 21  1  0  0  0
 21 22  1  0  0  0
 21 23  2  0  0  0
 12  7  1  0  0  0
  6  1  1  0  0  0
 18 19  1  0  0  0
 22 24  1  0  0  0
M  END
> <minimizedAffinity>
-6.20475

> <CNNscore>
0.2980772257

> <CNNaffinity>
4.6624417305

> <CNN_VS>
1.3897676468

> <CNNaffinity_variance>
0.1831722707

$$$$
[H]OC(=O)[C@]([H])(N([H])S(=O)(=O)c1c([H])c([H])c(-c2c([H])c([H])c(OC([H])([H])[H])c([H])c2[H])c([H])c1[H])C([H])(C([H])([H])[H])C([H])([H])[H]


 27 28  0  0  0  0  0  0  0  0999 V2000
    3.2982    2.3083   15.4773 C   0  0  0  0  0  0  0  0  0  0  0  0
    2.7546    1.6918   14.3495 C   0  0  0  0  0  0  0  0  0  0  0  0
    2.7855    2.3495   13.1424 C   0  0  0  0  0  0  0  0  0  0  0  0
    3.3423    3.6158   13.0005 C   0  0  0  0  0  0  0  0  0  0  0  0
    3.8800    4.2289   14.1094 C   0  0  0  0  0  0  0  0  0  0  0  0
    3.8392    3.5544   15.3093 C   0  0  0  0  0  0  0  0  0  0  0  0
    3.2074    0.2557   19.2194 C   0  0  0  0  0  0  0  0  0  0  0  0
    3.9645    1.4072   19.0607 C   0  0  0  0  0  0  0  0  0  0  0  0
    4.0163    2.1036   17.8564 C   0  0  0  0  0  0  0  0  0  0  0  0
    3.2906    1.6369   16.7771 C   0  0  0  0  0  0  0  0  0  0  0  0
    2.5373    0.5003   16.9179 C   0  0  0  0  0  0  0  0  0  0  0  0
    2.4949   -0.1886   18.1332 C   0  0  0  0  0  0  0  0  0  0  0  0
    3.6362    0.2431   21.6168 C   0  0  0  0  0  0  0  0  0  0  0  0
    3.1904   -0.4010   20.4418 O   0  0  0  0  0  0  0  0  0  0  0  0
    3.3408    4.3788   11.4122 S   0  0  0  0  0  0  0  0  0  0  0  0
    3.2730    5.8423   11.6215 O   0  0  0  0  0  0  0  0  0  0  0  0
    2.1241    3.9265   10.6626 O   0  0  0  0  0  0  0  0  0  0  0  0
    4.7208    3.8547   10.5811 N   0  0  0  0  0  0  0  0  0  0  0  0
    5.2885    3.1345   11.0279 H   0  0  0  0  0  0  0  0  0  0  0  0
    4.6042    3.8208    9.1659 C   0  0  0  0  0  0  0  0  0  0  0  0
    5.1695    5.0775    8.5931 C   0  0  0  0  0  0  0  0  0  0  0  0
    5.5945    6.1145    9.4215 O   0  0  0  0  0  0  0  0  0  0  0  0
    5.2733    5.2265    7.3511 O   0  0  0  0  0  0  0  0  0  0  0  0
    5.9974    6.9483    9.0494 H   0  0  0  0  0  0  0  0  0  0  0  0
    5.3680    2.6091    8.6477 C   0  0  0  0  0  0  0  0  0  0  0  0
    6.8051    2.6157    9.1219 C   0  0  0  0  0  0  0  0  0  0  0  0
    4.6549    1.3279    8.9207 C   0  0  0  0  0  0  0  0  0  0  0  0
 13 14  1  0  0  0
 14  7  1  0  0  0
  7  8  2  0  0  0
  8  9  1  0  0  0
  9 10  2  0  0  0
 10 11  1  0  0  0
 11 12  2  0  0  0
 10  1  1  0  0  0
  1  2  2  0  0  0
  2  3  1  0  0  0
  3  4  2  0  0  0
  4  5  1  0  0  0
  5  6  2  0  0  0
  4 15  1  0  0  0
 15 16  2  0  0  0
 15 17  2  0  0  0
 15 18  1  0  0  0
 18 20  1  0  0  0
 20 25  1  0  0  0
 25 26  1  0  0  0
 25 27  1  0  0  0
 20 21  1  0  0  0
 21 22  1  0  0  0
 21 23  2  0  0  0
 12  7  1  0  0  0
  6  1  1  0  0  0
 18 19  1  0  0  0
 22 24  1  0  0  0
M  END
> <minimizedAffinity>
-6.08166

> <CNNscore>
0.2669657767

> <CNNaffinity>
4.8737082481

> <CNN_VS>
1.3011133671

> <CNNaffinity_variance>
0.1086044088

$$$$
[H]OC(=O)[C@]([H])(N([H])S(=O)(=O)c1c([H])c([H])c(-c2c([H])c([H])c(OC([H])([H])[H])c([H])c2[H])c([H])c1[H])C([H])(C([H])([H])[H])C([H])([H])[H]


 27 28  0  0  0  0  0  0  0  0999 V2000
    3.2935    2.3820   15.0056 C   0  0  0  0  0  0  0  0  0  0  0  0
    3.9887    3.5388   14.6507 C   0  0  0  0  0  0  0  0  0  0  0  0
    3.8676    4.0313   13.3727 C   0  0  0  0  0  0  0  0  0  0  0  0
    3.0723    3.4165   12.4120 C   0  0  0  0  0  0  0  0  0  0  0  0
    2.3842    2.2750   12.7561 C   0  0  0  0  0  0  0  0  0  0  0  0
    2.5185    1.7971   14.0406 C   0  0  0  0  0  0  0  0  0  0  0  0
    3.5128    0.6767   18.9131 C   0  0  0  0  0  0  0  0  0  0  0  0
    4.1984    1.8437   18.6095 C   0  0  0  0  0  0  0  0  0  0  0  0
    4.1484    2.4293   17.3475 C   0  0  0  0  0  0  0  0  0  0  0  0
    3.3913    1.8322   16.3578 C   0  0  0  0  0  0  0  0  0  0  0  0
    2.7079    0.6784   16.6421 C   0  0  0  0  0  0  0  0  0  0  0  0
    2.7674    0.1018   17.9138 C   0  0  0  0  0  0  0  0  0  0  0  0
    3.3152    0.9170   21.3287 C   0  0  0  0  0  0  0  0  0  0  0  0
    3.5963    0.1340   20.1876 O   0  0  0  0  0  0  0  0  0  0  0  0
    2.9749    4.1233   10.8008 S   0  0  0  0  0  0  0  0  0  0  0  0
    3.9050    5.2737   10.7624 O   0  0  0  0  0  0  0  0  0  0  0  0
    1.5748    4.6075   10.5721 O   0  0  0  0  0  0  0  0  0  0  0  0
    3.3223    2.9054    9.6757 N   0  0  0  0  0  0  0  0  0  0  0  0
    4.0752    2.2574    9.9079 H   0  0  0  0  0  0  0  0  0  0  0  0
    2.2032    2.3919    8.9678 C   0  0  0  0  0  0  0  0  0  0  0  0
    2.3486    2.7081    7.5166 C   0  0  0  0  0  0  0  0  0  0  0  0
    1.7781    1.8889    6.5443 O   0  0  0  0  0  0  0  0  0  0  0  0
    2.9896    3.7201    7.1417 O   0  0  0  0  0  0  0  0  0  0  0  0
    1.8480    2.1054    5.5725 H   0  0  0  0  0  0  0  0  0  0  0  0
    2.1476    0.8846    9.1810 C   0  0  0  0  0  0  0  0  0  0  0  0
    3.4326    0.3630    9.7866 C   0  0  0  0  0  0  0  0  0  0  0  0
    0.9236    0.4595    9.9197 C   0  0  0  0  0  0  0  0  0  0  0  0
 13 14  1  0  0  0
 14  7  1  0  0  0
  7  8  2  0  0  0
  8  9  1  0  0  0
  9 10  2  0  0  0
 10 11  1  0  0  0
 11 12  2  0  0  0
 10  1  1  0  0  0
  1  2  2  0  0  0
  2  3  1  0  0  0
  3  4  2  0  0  0
  4  5  1  0  0  0
  5  6  2  0  0  0
  4 15  1  0  0  0
 15 16  2  0  0  0
 15 17  2  0  0  0
 15 18  1  0  0  0
 18 20  1  0  0  0
 20 25  1  0  0  0
 25 26  1  0  0  0
 25 27  1  0  0  0
 20 21  1  0  0  0
 21 22  1  0  0  0
 21 23  2  0  0  0
 12  7  1  0  0  0
  6  1  1  0  0  0
 18 19  1  0  0  0
 22 24  1  0  0  0
M  END
> <minimizedAffinity>
-5.91018

> <CNNscore>
0.2442132384

> <CNNaffinity>
4.8676705360

> <CNN_VS>
1.1887495518

> <CNNaffinity_variance>
0.2533474565

$$$$
[H]OC(=O)[C@]([H])(N([H])S(=O)(=O)c1c([H])c([H])c(-c2c([H])c([H])c(OC([H])([H])[H])c([H])c2[H])c([H])c1[H])C([H])(C([H])([H])[H])C([H])([H])[H]


 27 28  0  0  0  0  0  0  0  0999 V2000
    3.6966    2.5410   16.2585 C   0  0  0  0  0  0  0  0  0  0  0  0
    4.0691    3.6153   15.4494 C   0  0  0  0  0  0  0  0  0  0  0  0
    3.6218    3.6663   14.1503 C   0  0  0  0  0  0  0  0  0  0  0  0
    2.8055    2.6806   13.6066 C   0  0  0  0  0  0  0  0  0  0  0  0
    2.4347    1.6184   14.3998 C   0  0  0  0  0  0  0  0  0  0  0  0
    2.8931    1.5850   15.6979 C   0  0  0  0  0  0  0  0  0  0  0  0
    5.0472    2.4133   20.3062 C   0  0  0  0  0  0  0  0  0  0  0  0
    4.3677    1.3388   19.7514 C   0  0  0  0  0  0  0  0  0  0  0  0
    3.9147    1.3442   18.4351 C   0  0  0  0  0  0  0  0  0  0  0  0
    4.1465    2.4559   17.6479 C   0  0  0  0  0  0  0  0  0  0  0  0
    4.8167    3.5260   18.1815 C   0  0  0  0  0  0  0  0  0  0  0  0
    5.2657    3.5064   19.5049 C   0  0  0  0  0  0  0  0  0  0  0  0
    6.6310    1.6233   21.9793 C   0  0  0  0  0  0  0  0  0  0  0  0
    5.4777    2.3568   21.6243 O   0  0  0  0  0  0  0  0  0  0  0  0
    2.2774    2.8332   11.9325 S   0  0  0  0  0  0  0  0  0  0  0  0
    0.8038    2.9689   11.9411 O   0  0  0  0  0  0  0  0  0  0  0  0
    2.6579    1.5862   11.1927 O   0  0  0  0  0  0  0  0  0  0  0  0
    3.0965    4.1474   11.2455 N   0  0  0  0  0  0  0  0  0  0  0  0
    3.0763    5.0289   11.7584 H   0  0  0  0  0  0  0  0  0  0  0  0
    4.2833    3.8228   10.5359 C   0  0  0  0  0  0  0  0  0  0  0  0
    4.0650    4.0504    9.0773 C   0  0  0  0  0  0  0  0  0  0  0  0
    4.5092    3.1261    8.1337 O   0  0  0  0  0  0  0  0  0  0  0  0
    3.4761    5.0814    8.6699 O   0  0  0  0  0  0  0  0  0  0  0  0
    4.3457    3.2566    7.1578 H   0  0  0  0  0  0  0  0  0  0  0  0
    5.4105    4.7090   11.0499 C   0  0  0  0  0  0  0  0  0  0  0  0
    6.5630    4.7633   10.0707 C   0  0  0  0  0  0  0  0  0  0  0  0
    4.9269    6.0533   11.4782 C   0  0  0  0  0  0  0  0  0  0  0  0
 13 14  1  0  0  0
 14  7  1  0  0  0
  7  8  2  0  0  0
  8  9  1  0  0  0
  9 10  2  0  0  0
 10 11  1  0  0  0
 11 12  2  0  0  0
 10  1  1  0  0  0
  1  2  2  0  0  0
  2  3  1  0  0  0
  3  4  2  0  0  0
  4  5  1  0  0  0
  5  6  2  0  0  0
  4 15  1  0  0  0
 15 16  2  0  0  0
 15 17  2  0  0  0
 15 18  1  0  0  0
 18 20  1  0  0  0
 20 25  1  0  0  0
 25 26  1  0  0  0
 25 27  1  0  0  0
 20 21  1  0  0  0
 21 22  1  0  0  0
 21 23  2  0  0  0
 12  7  1  0  0  0
  6  1  1  0  0  0
 18 19  1  0  0  0
 22 24  1  0  0  0
M  END
> <minimizedAffinity>
-6.09911

> <CNNscore>
0.2318439335

> <CNNaffinity>
4.9359154701

> <CNN_VS>
1.1443620920

> <CNNaffinity_variance>
0.1916275322

$$$$
[H]OC(=O)[C@]([H])(N([H])S(=O)(=O)c1c([H])c([H])c(-c2c([H])c([H])c(OC([H])([H])[H])c([H])c2[H])c([H])c1[H])C([H])(C([H])([H])[H])C([H])([H])[H]


 27 28  0  0  0  0  0  0  0  0999 V2000
    3.3588    1.9702   16.2390 C   0  0  0  0  0  0  0  0  0  0  0  0
    3.9473    2.6944   17.2767 C   0  0  0  0  0  0  0  0  0  0  0  0
    3.9413    2.1730   18.5490 C   0  0  0  0  0  0  0  0  0  0  0  0
    3.3668    0.9417   18.8444 C   0  0  0  0  0  0  0  0  0  0  0  0
    2.7848    0.2228   17.8250 C   0  0  0  0  0  0  0  0  0  0  0  0
    2.8006    0.7617   16.5578 C   0  0  0  0  0  0  0  0  0  0  0  0
    3.2572    3.3929   12.2152 C   0  0  0  0  0  0  0  0  0  0  0  0
    3.9596    4.0817   13.1931 C   0  0  0  0  0  0  0  0  0  0  0  0
    4.0166    3.6466   14.5143 C   0  0  0  0  0  0  0  0  0  0  0  0
    3.3523    2.4887   14.8710 C   0  0  0  0  0  0  0  0  0  0  0  0
    2.6537    1.7965   13.9162 C   0  0  0  0  0  0  0  0  0  0  0  0
    2.6053    2.2454   12.5935 C   0  0  0  0  0  0  0  0  0  0  0  0
    2.3218    3.3487    9.9670 C   0  0  0  0  0  0  0  0  0  0  0  0
    3.2322    3.8699   10.9123 O   0  0  0  0  0  0  0  0  0  0  0  0
    3.4113    0.3521   20.5043 S   0  0  0  0  0  0  0  0  0  0  0  0
    4.3956   -0.7516   20.5585 O   0  0  0  0  0  0  0  0  0  0  0  0
    2.0543   -0.1733   20.8644 O   0  0  0  0  0  0  0  0  0  0  0  0
    3.7749    1.6634   21.5134 N   0  0  0  0  0  0  0  0  0  0  0  0
    2.9891    2.1973   21.8852 H   0  0  0  0  0  0  0  0  0  0  0  0
    4.9123    1.4943   22.3470 C   0  0  0  0  0  0  0  0  0  0  0  0
    6.0891    2.1639   21.7195 C   0  0  0  0  0  0  0  0  0  0  0  0
    6.0037    3.4752   21.2554 O   0  0  0  0  0  0  0  0  0  0  0  0
    7.1815    1.5582   21.5961 O   0  0  0  0  0  0  0  0  0  0  0  0
    6.7919    3.9405   20.8574 H   0  0  0  0  0  0  0  0  0  0  0  0
    4.6106    2.1123   23.7062 C   0  0  0  0  0  0  0  0  0  0  0  0
    5.8092    2.0378   24.6270 C   0  0  0  0  0  0  0  0  0  0  0  0
    4.0292    3.4810   23.5922 C   0  0  0  0  0  0  0  0  0  0  0  0
 13 14  1  0  0  0
 14  7  1  0  0  0
  7  8  2  0  0  0
  8  9  1  0  0  0
  9 10  2  0  0  0
 10 11  1  0  0  0
 11 12  2  0  0  0
 10  1  1  0  0  0
  1  2  2  0  0  0
  2  3  1  0  0  0
  3  4  2  0  0  0
  4  5  1  0  0  0
  5  6  2  0  0  0
  4 15  1  0  0  0
 15 16  2  0  0  0
 15 17  2  0  0  0
 15 18  1  0  0  0
 18 20  1  0  0  0
 20 25  1  0  0  0
 25 26  1  0  0  0
 25 27  1  0  0  0
 20 21  1  0  0  0
 21 22  1  0  0  0
 21 23  2  0  0  0
 12  7  1  0  0  0
  6  1  1  0  0  0
 18 19  1  0  0  0
 22 24  1  0  0  0
M  END
> <minimizedAffinity>
-6.92308

> <CNNscore>
0.2299075425

> <CNNaffinity>
5.1726522446

> <CNN_VS>
1.1892317533

> <CNNaffinity_variance>
0.1859792173

$$$$
[H]OC(=O)[C@]([H])(N([H])S(=O)(=O)c1c([H])c([H])c(-c2c([H])c([H])c(OC([H])([H])[H])c([H])c2[H])c([H])c1[H])C([H])(C([H])([H])[H])C([H])([H])[H]


 27 28  0  0  0  0  0  0  0  0999 V2000
    3.8039    2.2585   16.7326 C   0  0  0  0  0  0  0  0  0  0  0  0
    3.3146    1.1598   17.4403 C   0  0  0  0  0  0  0  0  0  0  0  0
    3.7490    0.9398   18.7261 C   0  0  0  0  0  0  0  0  0  0  0  0
    4.6646    1.7769   19.3542 C   0  0  0  0  0  0  0  0  0  0  0  0
    5.1509    2.8622   18.6612 C   0  0  0  0  0  0  0  0  0  0  0  0
    4.7041    3.0656   17.3746 C   0  0  0  0  0  0  0  0  0  0  0  0
    2.4219    2.9566   12.7542 C   0  0  0  0  0  0  0  0  0  0  0  0
    3.3657    3.7919   13.3335 C   0  0  0  0  0  0  0  0  0  0  0  0
    3.8408    3.5937   14.6270 C   0  0  0  0  0  0  0  0  0  0  0  0
    3.3595    2.5296   15.3653 C   0  0  0  0  0  0  0  0  0  0  0  0
    2.4264    1.6949   14.8070 C   0  0  0  0  0  0  0  0  0  0  0  0
    1.9585    1.9062   13.5071 C   0  0  0  0  0  0  0  0  0  0  0  0
    0.6273    3.5040   11.2014 C   0  0  0  0  0  0  0  0  0  0  0  0
    1.9814    3.1986   11.4607 O   0  0  0  0  0  0  0  0  0  0  0  0
    5.1597    1.4179   21.0068 S   0  0  0  0  0  0  0  0  0  0  0  0
    6.2850    0.4593   20.9361 O   0  0  0  0  0  0  0  0  0  0  0  0
    4.0087    0.7817   21.7261 O   0  0  0  0  0  0  0  0  0  0  0  0
    5.5367    2.8837   21.7678 N   0  0  0  0  0  0  0  0  0  0  0  0
    6.3594    3.3849   21.4324 H   0  0  0  0  0  0  0  0  0  0  0  0
    4.4220    3.6538   22.1941 C   0  0  0  0  0  0  0  0  0  0  0  0
    4.2129    3.4526   23.6579 C   0  0  0  0  0  0  0  0  0  0  0  0
    4.9664    2.5195   24.3675 O   0  0  0  0  0  0  0  0  0  0  0  0
    3.3519    4.1207   24.2808 O   0  0  0  0  0  0  0  0  0  0  0  0
    4.8520    2.3954   25.3512 H   0  0  0  0  0  0  0  0  0  0  0  0
    4.7052    5.1200   21.8935 C   0  0  0  0  0  0  0  0  0  0  0  0
    6.1919    5.3970   21.8381 C   0  0  0  0  0  0  0  0  0  0  0  0
    3.9615    5.6092   20.6969 C   0  0  0  0  0  0  0  0  0  0  0  0
 13 14  1  0  0  0
 14  7  1  0  0  0
  7  8  2  0  0  0
  8  9  1  0  0  0
  9 10  2  0  0  0
 10 11  1  0  0  0
 11 12  2  0  0  0
 10  1  1  0  0  0
  1  2  2  0  0  0
  2  3  1  0  0  0
  3  4  2  0  0  0
  4  5  1  0  0  0
  5  6  2  0  0  0
  4 15  1  0  0  0
 15 16  2  0  0  0
 15 17  2  0  0  0
 15 18  1  0  0  0
 18 20  1  0  0  0
 20 25  1  0  0  0
 25 26  1  0  0  0
 25 27  1  0  0  0
 20 21  1  0  0  0
 21 22  1  0  0  0
 21 23  2  0  0  0
 12  7  1  0  0  0
  6  1  1  0  0  0
 18 19  1  0  0  0
 22 24  1  0  0  0
M  END
> <minimizedAffinity>
-7.48164

> <CNNscore>
0.2193069607

> <CNNaffinity>
5.3532652855

> <CNN_VS>
1.1740083694

> <CNNaffinity_variance>
0.1624224335

$$$$
[H]OC(=O)[C@]([H])(N([H])S(=O)(=O)c1c([H])c([H])c(-c2c([H])c([H])c(OC([H])([H])[H])c([H])c2[H])c([H])c1[H])C([H])(C([H])([H])[H])C([H])([H])[H]


 27 28  0  0  0  0  0  0  0  0999 V2000
    3.1004    2.3076   14.9880 C   0  0  0  0  0  0  0  0  0  0  0  0
    3.8079    3.3907   14.4648 C   0  0  0  0  0  0  0  0  0  0  0  0
    3.5552    3.8009   13.1771 C   0  0  0  0  0  0  0  0  0  0  0  0
    2.6137    3.1732   12.3689 C   0  0  0  0  0  0  0  0  0  0  0  0
    1.9127    2.1042   12.8794 C   0  0  0  0  0  0  0  0  0  0  0  0
    2.1802    1.7082   14.1709 C   0  0  0  0  0  0  0  0  0  0  0  0
    3.8569    1.0678   19.0024 C   0  0  0  0  0  0  0  0  0  0  0  0
    2.9969    0.3461   18.1877 C   0  0  0  0  0  0  0  0  0  0  0  0
    2.7283    0.7191   16.8737 C   0  0  0  0  0  0  0  0  0  0  0  0
    3.3362    1.8470   16.3564 C   0  0  0  0  0  0  0  0  0  0  0  0
    4.1888    2.5711   17.1488 C   0  0  0  0  0  0  0  0  0  0  0  0
    4.4490    2.1845   18.4665 C   0  0  0  0  0  0  0  0  0  0  0  0
    3.0215    0.2825   21.1511 C   0  0  0  0  0  0  0  0  0  0  0  0
    4.0904    0.6527   20.3058 O   0  0  0  0  0  0  0  0  0  0  0  0
    2.3544    3.7723   10.7322 S   0  0  0  0  0  0  0  0  0  0  0  0
    3.3996    3.1775    9.8697 O   0  0  0  0  0  0  0  0  0  0  0  0
    2.5027    5.2639   10.7370 O   0  0  0  0  0  0  0  0  0  0  0  0
    0.7692    3.3823   10.2797 N   0  0  0  0  0  0  0  0  0  0  0  0
    0.0605    4.1074   10.3924 H   0  0  0  0  0  0  0  0  0  0  0  0
    0.6503    2.5098    9.1652 C   0  0  0  0  0  0  0  0  0  0  0  0
    0.0973    1.2003    9.6195 C   0  0  0  0  0  0  0  0  0  0  0  0
   -1.2747    0.9568    9.6005 O   0  0  0  0  0  0  0  0  0  0  0  0
    0.8583    0.2900   10.0292 O   0  0  0  0  0  0  0  0  0  0  0  0
   -1.6526    0.0757    9.8781 H   0  0  0  0  0  0  0  0  0  0  0  0
   -0.2787    3.1545    8.1446 C   0  0  0  0  0  0  0  0  0  0  0  0
   -0.8718    4.4432    8.6716 C   0  0  0  0  0  0  0  0  0  0  0  0
    0.3593    3.2952    6.8039 C   0  0  0  0  0  0  0  0  0  0  0  0
 13 14  1  0  0  0
 14  7  1  0  0  0
  7  8  2  0  0  0
  8  9  1  0  0  0
  9 10  2  0  0  0
 10 11  1  0  0  0
 11 12  2  0  0  0
 10  1  1  0  0  0
  1  2  2  0  0  0
  2  3  1  0  0  0
  3  4  2  0  0  0
  4  5  1  0  0  0
  5  6  2  0  0  0
  4 15  1  0  0  0
 15 16  2  0  0  0
 15 17  2  0  0  0
 15 18  1  0  0  0
 18 20  1  0  0  0
 20 25  1  0  0  0
 25 26  1  0  0  0
 25 27  1  0  0  0
 20 21  1  0  0  0
 21 22  1  0  0  0
 21 23  2  0  0  0
 12  7  1  0  0  0
  6  1  1  0  0  0
 18 19  1  0  0  0
 22 24  1  0  0  0
M  END
> <minimizedAffinity>
-5.87336

> <CNNscore>
0.2063389122

> <CNNaffinity>
4.7835392952

> <CNN_VS>
0.9870302677

> <CNNaffinity_variance>
0.1063171253

$$$$
[H]OC(=O)[C@]([H])(N([H])S(=O)(=O)c1c([H])c([H])c(-c2c([H])c([H])c(OC([H])([H])[H])c([H])c2[H])c([H])c1[H])C([H])(C([H])([H])[H])C([H])([H])[H]


 27 28  0  0  0  0  0  0  0  0999 V2000
    2.8902    4.3050   15.3805 C   0  0  0  0  0  0  0  0  0  0  0  0
    2.9229    3.1766   16.2009 C   0  0  0  0  0  0  0  0  0  0  0  0
    3.4683    3.2750   17.4592 C   0  0  0  0  0  0  0  0  0  0  0  0
    3.9929    4.4654   17.9504 C   0  0  0  0  0  0  0  0  0  0  0  0
    3.9635    5.5819   17.1457 C   0  0  0  0  0  0  0  0  0  0  0  0
    3.4136    5.4633   15.8888 C   0  0  0  0  0  0  0  0  0  0  0  0
    1.2477    4.2339   11.4407 C   0  0  0  0  0  0  0  0  0  0  0  0
    1.1712    3.1179   12.2608 C   0  0  0  0  0  0  0  0  0  0  0  0
    1.6934    3.1054   13.5512 C   0  0  0  0  0  0  0  0  0  0  0  0
    2.3112    4.2413   14.0385 C   0  0  0  0  0  0  0  0  0  0  0  0
    2.3948    5.3525   13.2403 C   0  0  0  0  0  0  0  0  0  0  0  0
    1.8659    5.3505   11.9466 C   0  0  0  0  0  0  0  0  0  0  0  0
   -0.6778    4.0294    9.9634 C   0  0  0  0  0  0  0  0  0  0  0  0
    0.7107    4.1938   10.1617 O   0  0  0  0  0  0  0  0  0  0  0  0
    4.6672    4.4970   19.5780 S   0  0  0  0  0  0  0  0  0  0  0  0
    5.5097    3.2904   19.7344 O   0  0  0  0  0  0  0  0  0  0  0  0
    3.5409    4.4488   20.5660 O   0  0  0  0  0  0  0  0  0  0  0  0
    5.4992    5.9603   19.7690 N   0  0  0  0  0  0  0  0  0  0  0  0
    5.7648    6.4596   18.9200 H   0  0  0  0  0  0  0  0  0  0  0  0
    5.1223    6.7330   20.8996 C   0  0  0  0  0  0  0  0  0  0  0  0
    5.8840    6.2647   22.0945 C   0  0  0  0  0  0  0  0  0  0  0  0
    5.2325    5.6570   23.1661 O   0  0  0  0  0  0  0  0  0  0  0  0
    7.1291    6.4096   22.1588 O   0  0  0  0  0  0  0  0  0  0  0  0
    5.7357    5.3175   23.9584 H   0  0  0  0  0  0  0  0  0  0  0  0
    5.4335    8.1957   20.6098 C   0  0  0  0  0  0  0  0  0  0  0  0
    4.8948    8.6199   19.2608 C   0  0  0  0  0  0  0  0  0  0  0  0
    5.0247    9.0961   21.7262 C   0  0  0  0  0  0  0  0  0  0  0  0
 13 14  1  0  0  0
 14  7  1  0  0  0
  7  8  2  0  0  0
  8  9  1  0  0  0
  9 10  2  0  0  0
 10 11  1  0  0  0
 11 12  2  0  0  0
 10  1  1  0  0  0
  1  2  2  0  0  0
  2  3  1  0  0  0
  3  4  2  0  0  0
  4  5  1  0  0  0
  5  6  2  0  0  0
  4 15  1  0  0  0
 15 16  2  0  0  0
 15 17  2  0  0  0
 15 18  1  0  0  0
 18 20  1  0  0  0
 20 25  1  0  0  0
 25 26  1  0  0  0
 25 27  1  0  0  0
 20 21  1  0  0  0
 21 22  1  0  0  0
 21 23  2  0  0  0
 12  7  1  0  0  0
  6  1  1  0  0  0
 18 19  1  0  0  0
 22 24  1  0  0  0
M  END
> <minimizedAffinity>
-5.61951

> <CNNscore>
0.2050897479

> <CNNaffinity>
4.7972388268

> <CNN_VS>
0.9838644862

> <CNNaffinity_variance>
0.2431491166

$$$$
[H]c1c([H])c(S(=O)(=O)N([H])c2nnc(S(=O)(=O)N([H])[H])s2)c([H])c([H])c1N([H])S(=O)(=O)c1c(C([H])([H])[H])c([H])c(C([H])([H])[H])c([H])c1C([H])([H])[H]


 36 38  0  0  0  0  0  0  0  0999 V2000
    2.0954    2.4103   15.8156 C   0  0  0  0  0  0  0  0  0  0  0  0
    2.1778    1.8598   14.5200 C   0  0  0  0  0  0  0  0  0  0  0  0
    2.3937    2.6167   13.4006 C   0  0  0  0  0  0  0  0  0  0  0  0
    2.5464    3.9917   13.4767 C   0  0  0  0  0  0  0  0  0  0  0  0
    2.4680    4.5412   14.7326 C   0  0  0  0  0  0  0  0  0  0  0  0
    2.2464    3.7625   15.8836 C   0  0  0  0  0  0  0  0  0  0  0  0
    2.8023    4.9516   12.0382 S   0  0  0  0  0  0  0  0  0  0  0  0
    4.2475    5.3572   11.9378 O   0  0  0  0  0  0  0  0  0  0  0  0
    1.9287    6.1881   12.1393 O   0  0  0  0  0  0  0  0  0  0  0  0
    2.3522    4.1019   10.6298 N   0  0  0  0  0  0  0  0  0  0  0  0
    1.4164    4.2354   10.1735 H   0  0  0  0  0  0  0  0  0  0  0  0
    3.2286    3.1607    9.9955 C   0  0  0  0  0  0  0  0  0  0  0  0
    4.2794    3.4303    9.2145 N   0  0  0  0  0  0  0  0  0  0  0  0
    4.9548    2.4860    8.7330 N   0  0  0  0  0  0  0  0  0  0  0  0
    4.6278    1.2255    8.9973 C   0  0  0  0  0  0  0  0  0  0  0  0
    3.2633    1.4520   10.0008 S   0  0  0  0  0  0  0  0  0  0  0  0
    5.4248   -0.2530    8.4356 S   0  0  0  0  0  0  0  0  0  0  0  0
    5.6486   -0.2040    6.7269 N   0  0  0  0  0  0  0  0  0  0  0  0
    4.5768   -1.4200    8.7866 O   0  0  0  0  0  0  0  0  0  0  0  0
    6.7772   -0.2934    9.0836 O   0  0  0  0  0  0  0  0  0  0  0  0
    6.3286    0.4950    6.4142 H   0  0  0  0  0  0  0  0  0  0  0  0
    5.7126   -1.1335    6.3019 H   0  0  0  0  0  0  0  0  0  0  0  0
    1.8592    1.5441   16.9109 N   0  0  0  0  0  0  0  0  0  0  0  0
    0.8571    1.4974   17.3222 H   0  0  0  0  0  0  0  0  0  0  0  0
    2.9772    0.5251   17.7052 S   0  0  0  0  0  0  0  0  0  0  0  0
    2.1705   -0.6421   18.2558 O   0  0  0  0  0  0  0  0  0  0  0  0
    3.9173    0.0039   16.6745 O   0  0  0  0  0  0  0  0  0  0  0  0
    5.7693    3.2581   22.2801 C   0  0  0  0  0  0  0  0  0  0  0  0
    5.0603    2.5486   21.1611 C   0  0  0  0  0  0  0  0  0  0  0  0
    5.3053    2.9916   19.8854 C   0  0  0  0  0  0  0  0  0  0  0  0
    4.6723    2.3684   18.8012 C   0  0  0  0  0  0  0  0  0  0  0  0
    5.0438    2.9270   17.4721 C   0  0  0  0  0  0  0  0  0  0  0  0
    3.8228    1.3369   19.0001 C   0  0  0  0  0  0  0  0  0  0  0  0
    3.5815    0.8915   20.3199 C   0  0  0  0  0  0  0  0  0  0  0  0
    2.6687   -0.2438   20.5655 C   0  0  0  0  0  0  0  0  0  0  0  0
    4.2099    1.5126   21.3710 C   0  0  0  0  0  0  0  0  0  0  0  0
 28 29  1  0  0  0
 29 30  2  0  0  0
 30 31  1  0  0  0
 31 32  1  0  0  0
 31 33  2  0  0  0
 33 34  1  0  0  0
 34 35  1  0  0  0
 34 36  2  0  0  0
 33 25  1  0  0  0
 25 26  2  0  0  0
 25 27  2  0  0  0
 25 23  1  0  0  0
 23  1  1  0  0  0
  1  2  2  0  0  0
  2  3  1  0  0  0
  3  4  2  0  0  0
  4  5  1  0  0  0
  5  6  2  0  0  0
  4  7  1  0  0  0
  7  8  2  0  0  0
  7  9  2  0  0  0
  7 10  1  0  0  0
 10 12  1  0  0  0
 12 13  2  0  0  0
 13 14  1  0  0  0
 14 15  2  0  0  0
 15 16  1  0  0  0
 15 17  1  0  0  0
 17 18  1  0  0  0
 17 19  2  0  0  0
 17 20  2  0  0  0
 36 29  1  0  0  0
  6  1  1  0  0  0
 16 12  1  0  0  0
 23 24  1  0  0  0
 10 11  1  0  0  0
 18 21  1  0  0  0
 18 22  1  0  0  0
M  END
> <minimizedAffinity>
-7.30232

> <CNNscore>
0.4981210530

> <CNNaffinity>
6.4373335838

> <CNN_VS>
3.2065713406

> <CNNaffinity_variance>
0.3648508191

$$$$
[H]c1c([H])c(S(=O)(=O)N([H])c2nnc(S(=O)(=O)N([H])[H])s2)c([H])c([H])c1N([H])S(=O)(=O)c1c(C([H])([H])[H])c([H])c(C([H])([H])[H])c([H])c1C([H])([H])[H]


 36 38  0  0  0  0  0  0  0  0999 V2000
    3.2311    3.5655   15.7456 C   0  0  0  0  0  0  0  0  0  0  0  0
    2.8633    2.7085   14.6879 C   0  0  0  0  0  0  0  0  0  0  0  0
    2.9513    3.0694   13.3708 C   0  0  0  0  0  0  0  0  0  0  0  0
    3.4151    4.3194   12.9938 C   0  0  0  0  0  0  0  0  0  0  0  0
    3.7767    5.1643   14.0139 C   0  0  0  0  0  0  0  0  0  0  0  0
    3.6863    4.7927   15.3682 C   0  0  0  0  0  0  0  0  0  0  0  0
    3.5052    4.7773   11.3090 S   0  0  0  0  0  0  0  0  0  0  0  0
    2.1426    4.6932   10.6769 O   0  0  0  0  0  0  0  0  0  0  0  0
    4.4530    3.8180   10.6135 O   0  0  0  0  0  0  0  0  0  0  0  0
    4.1214    6.3562   11.1210 N   0  0  0  0  0  0  0  0  0  0  0  0
    3.4973    7.1797   10.9361 H   0  0  0  0  0  0  0  0  0  0  0  0
    5.5243    6.6414   11.2057 C   0  0  0  0  0  0  0  0  0  0  0  0
    6.4935    6.1876   10.4048 N   0  0  0  0  0  0  0  0  0  0  0  0
    7.6837    6.5352   10.6106 N   0  0  0  0  0  0  0  0  0  0  0  0
    7.9794    7.3491   11.6184 C   0  0  0  0  0  0  0  0  0  0  0  0
    6.4281    7.6085   12.2866 S   0  0  0  0  0  0  0  0  0  0  0  0
    9.5687    7.9675   12.0960 S   0  0  0  0  0  0  0  0  0  0  0  0
   10.3250    8.7704   10.7711 N   0  0  0  0  0  0  0  0  0  0  0  0
   10.4176    6.8292   12.5297 O   0  0  0  0  0  0  0  0  0  0  0  0
    9.3369    8.9751   13.1830 O   0  0  0  0  0  0  0  0  0  0  0  0
    9.8684    9.6452   10.4966 H   0  0  0  0  0  0  0  0  0  0  0  0
   11.3468    8.7837   10.8378 H   0  0  0  0  0  0  0  0  0  0  0  0
    3.0939    3.1031   17.0772 N   0  0  0  0  0  0  0  0  0  0  0  0
    2.4727    3.6742   17.7579 H   0  0  0  0  0  0  0  0  0  0  0  0
    3.7999    1.7185   17.7870 S   0  0  0  0  0  0  0  0  0  0  0  0
    2.7970    0.5888   17.6019 O   0  0  0  0  0  0  0  0  0  0  0  0
    5.0261    1.3927   17.0073 O   0  0  0  0  0  0  0  0  0  0  0  0
    5.1445    2.5906   23.5857 C   0  0  0  0  0  0  0  0  0  0  0  0
    4.8209    2.4075   22.1297 C   0  0  0  0  0  0  0  0  0  0  0  0
    4.0933    1.2957   21.7860 C   0  0  0  0  0  0  0  0  0  0  0  0
    3.7615    1.0721   20.4427 C   0  0  0  0  0  0  0  0  0  0  0  0
    2.9492   -0.1536   20.2089 C   0  0  0  0  0  0  0  0  0  0  0  0
    4.1520    1.9395   19.4835 C   0  0  0  0  0  0  0  0  0  0  0  0
    4.9001    3.0805   19.8535 C   0  0  0  0  0  0  0  0  0  0  0  0
    5.3276    4.0533   18.8273 C   0  0  0  0  0  0  0  0  0  0  0  0
    5.2166    3.2852   21.1739 C   0  0  0  0  0  0  0  0  0  0  0  0
 28 29  1  0  0  0
 29 30  2  0  0  0
 30 31  1  0  0  0
 31 32  1  0  0  0
 31 33  2  0  0  0
 33 34  1  0  0  0
 34 35  1  0  0  0
 34 36  2  0  0  0
 33 25  1  0  0  0
 25 26  2  0  0  0
 25 27  2  0  0  0
 25 23  1  0  0  0
 23  1  1  0  0  0
  1  2  2  0  0  0
  2  3  1  0  0  0
  3  4  2  0  0  0
  4  5  1  0  0  0
  5  6  2  0  0  0
  4  7  1  0  0  0
  7  8  2  0  0  0
  7  9  2  0  0  0
  7 10  1  0  0  0
 10 12  1  0  0  0
 12 13  2  0  0  0
 13 14  1  0  0  0
 14 15  2  0  0  0
 15 16  1  0  0  0
 15 17  1  0  0  0
 17 18  1  0  0  0
 17 19  2  0  0  0
 17 20  2  0  0  0
 36 29  1  0  0  0
  6  1  1  0  0  0
 16 12  1  0  0  0
 23 24  1  0  0  0
 10 11  1  0  0  0
 18 21  1  0  0  0
 18 22  1  0  0  0
M  END
> <minimizedAffinity>
-7.21691

> <CNNscore>
0.3671282828

> <CNNaffinity>
6.3458042145

> <CNN_VS>
2.3297243118

> <CNNaffinity_variance>
0.3018795550

$$$$
[H]c1c([H])c(S(=O)(=O)N([H])c2nnc(S(=O)(=O)N([H])[H])s2)c([H])c([H])c1N([H])S(=O)(=O)c1c(C([H])([H])[H])c([H])c(C([H])([H])[H])c([H])c1C([H])([H])[H]


 36 38  0  0  0  0  0  0  0  0999 V2000
    3.1524    2.9661   15.8762 C   0  0  0  0  0  0  0  0  0  0  0  0
    2.7792    1.8975   15.0354 C   0  0  0  0  0  0  0  0  0  0  0  0
    2.6934    2.0143   13.6746 C   0  0  0  0  0  0  0  0  0  0  0  0
    2.9732    3.2102   13.0332 C   0  0  0  0  0  0  0  0  0  0  0  0
    3.3378    4.2595   13.8403 C   0  0  0  0  0  0  0  0  0  0  0  0
    3.4262    4.1389   15.2395 C   0  0  0  0  0  0  0  0  0  0  0  0
    2.8416    3.3540   11.2959 S   0  0  0  0  0  0  0  0  0  0  0  0
    2.8463    1.9894   10.6625 O   0  0  0  0  0  0  0  0  0  0  0  0
    4.0328    4.1529   10.8010 O   0  0  0  0  0  0  0  0  0  0  0  0
    1.4238    4.1855   10.8417 N   0  0  0  0  0  0  0  0  0  0  0  0
    0.4668    3.8310   11.0873 H   0  0  0  0  0  0  0  0  0  0  0  0
    1.4648    5.4125   10.1006 C   0  0  0  0  0  0  0  0  0  0  0  0
    1.5777    6.6515   10.5894 N   0  0  0  0  0  0  0  0  0  0  0  0
    1.6024    7.6307    9.8018 N   0  0  0  0  0  0  0  0  0  0  0  0
    1.5166    7.4379    8.4899 C   0  0  0  0  0  0  0  0  0  0  0  0
    1.3946    5.7347    8.4236 S   0  0  0  0  0  0  0  0  0  0  0  0
    1.5301    8.6531    7.2017 S   0  0  0  0  0  0  0  0  0  0  0  0
   -0.0757    9.1679    6.8433 N   0  0  0  0  0  0  0  0  0  0  0  0
    2.1380    8.0580    5.9850 O   0  0  0  0  0  0  0  0  0  0  0  0
    2.2945    9.8340    7.7230 O   0  0  0  0  0  0  0  0  0  0  0  0
   -0.5189    9.7073    7.5927 H   0  0  0  0  0  0  0  0  0  0  0  0
   -0.1804    9.5282    5.8905 H   0  0  0  0  0  0  0  0  0  0  0  0
    3.2025    2.7480   17.2747 N   0  0  0  0  0  0  0  0  0  0  0  0
    2.8402    3.5319   17.9303 H   0  0  0  0  0  0  0  0  0  0  0  0
    3.7783    1.3694   18.1035 S   0  0  0  0  0  0  0  0  0  0  0  0
    2.7036    0.3026   17.9502 O   0  0  0  0  0  0  0  0  0  0  0  0
    5.0064    0.9057   17.4002 O   0  0  0  0  0  0  0  0  0  0  0  0
    4.9558    2.5480   23.8844 C   0  0  0  0  0  0  0  0  0  0  0  0
    4.6750    2.2876   22.4313 C   0  0  0  0  0  0  0  0  0  0  0  0
    3.9349    1.1724   22.1277 C   0  0  0  0  0  0  0  0  0  0  0  0
    3.6414    0.8781   20.7891 C   0  0  0  0  0  0  0  0  0  0  0  0
    2.8107   -0.3428   20.5988 C   0  0  0  0  0  0  0  0  0  0  0  0
    4.0808    1.6809   19.7953 C   0  0  0  0  0  0  0  0  0  0  0  0
    4.8412    2.8264   20.1242 C   0  0  0  0  0  0  0  0  0  0  0  0
    5.3220    3.7298   19.0589 C   0  0  0  0  0  0  0  0  0  0  0  0
    5.1197    3.1007   21.4405 C   0  0  0  0  0  0  0  0  0  0  0  0
 28 29  1  0  0  0
 29 30  2  0  0  0
 30 31  1  0  0  0
 31 32  1  0  0  0
 31 33  2  0  0  0
 33 34  1  0  0  0
 34 35  1  0  0  0
 34 36  2  0  0  0
 33 25  1  0  0  0
 25 26  2  0  0  0
 25 27  2  0  0  0
 25 23  1  0  0  0
 23  1  1  0  0  0
  1  2  2  0  0  0
  2  3  1  0  0  0
  3  4  2  0  0  0
  4  5  1  0  0  0
  5  6  2  0  0  0
  4  7  1  0  0  0
  7  8  2  0  0  0
  7  9  2  0  0  0
  7 10  1  0  0  0
 10 12  1  0  0  0
 12 13  2  0  0  0
 13 14  1  0  0  0
 14 15  2  0  0  0
 15 16  1  0  0  0
 15 17  1  0  0  0
 17 18  1  0  0  0
 17 19  2  0  0  0
 17 20  2  0  0  0
 36 29  1  0  0  0
  6  1  1  0  0  0
 16 12  1  0  0  0
 23 24  1  0  0  0
 10 11  1  0  0  0
 18 21  1  0  0  0
 18 22  1  0  0  0
M  END
> <minimizedAffinity>
-7.46893

> <CNNscore>
0.3564068973

> <CNNaffinity>
6.2215070724

> <CNN_VS>
2.2173879147

> <CNNaffinity_variance>
0.5782749653

$$$$
[H]c1c([H])c(S(=O)(=O)N([H])c2nnc(S(=O)(=O)N([H])[H])s2)c([H])c([H])c1N([H])S(=O)(=O)c1c(C([H])([H])[H])c([H])c(C([H])([H])[H])c([H])c1C([H])([H])[H]


 36 38  0  0  0  0  0  0  0  0999 V2000
    2.8008    3.2771   16.1048 C   0  0  0  0  0  0  0  0  0  0  0  0
    2.8060    4.6744   15.9148 C   0  0  0  0  0  0  0  0  0  0  0  0
    2.8171    5.2585   14.6773 C   0  0  0  0  0  0  0  0  0  0  0  0
    2.8238    4.4976   13.5193 C   0  0  0  0  0  0  0  0  0  0  0  0
    2.8190    3.1352   13.6899 C   0  0  0  0  0  0  0  0  0  0  0  0
    2.8073    2.5349   14.9625 C   0  0  0  0  0  0  0  0  0  0  0  0
    2.8577    5.2539   11.9436 S   0  0  0  0  0  0  0  0  0  0  0  0
    2.6025    4.2286   10.8726 O   0  0  0  0  0  0  0  0  0  0  0  0
    4.2315    5.8678   11.7486 O   0  0  0  0  0  0  0  0  0  0  0  0
    1.7010    6.5010   11.8223 N   0  0  0  0  0  0  0  0  0  0  0  0
    1.5690    7.2145   12.5808 H   0  0  0  0  0  0  0  0  0  0  0  0
    0.8481    6.6402   10.6778 C   0  0  0  0  0  0  0  0  0  0  0  0
    1.1034    7.3177    9.5542 N   0  0  0  0  0  0  0  0  0  0  0  0
    0.2474    7.3411    8.6342 N   0  0  0  0  0  0  0  0  0  0  0  0
   -0.9061    6.6968    8.7756 C   0  0  0  0  0  0  0  0  0  0  0  0
   -0.7112    6.0296   10.3367 S   0  0  0  0  0  0  0  0  0  0  0  0
   -2.2486    6.5902    7.6255 S   0  0  0  0  0  0  0  0  0  0  0  0
   -2.7690    8.1666    7.1604 N   0  0  0  0  0  0  0  0  0  0  0  0
   -3.3769    5.8703    8.2681 O   0  0  0  0  0  0  0  0  0  0  0  0
   -1.7245    5.8917    6.4056 O   0  0  0  0  0  0  0  0  0  0  0  0
   -2.0888    8.6811    6.5933 H   0  0  0  0  0  0  0  0  0  0  0  0
   -3.7444    8.1938    6.8496 H   0  0  0  0  0  0  0  0  0  0  0  0
    2.7994    2.7687   17.4267 N   0  0  0  0  0  0  0  0  0  0  0  0
    2.0912    3.1826   18.1355 H   0  0  0  0  0  0  0  0  0  0  0  0
    3.7983    1.5486   18.0846 S   0  0  0  0  0  0  0  0  0  0  0  0
    3.0698    0.2327   17.8519 O   0  0  0  0  0  0  0  0  0  0  0  0
    5.0623    1.5333   17.2973 O   0  0  0  0  0  0  0  0  0  0  0  0
    4.9729    2.4453   23.9164 C   0  0  0  0  0  0  0  0  0  0  0  0
    4.6914    2.2563   22.4524 C   0  0  0  0  0  0  0  0  0  0  0  0
    3.9917    1.1325   22.0904 C   0  0  0  0  0  0  0  0  0  0  0  0
    3.6996    0.9028   20.7389 C   0  0  0  0  0  0  0  0  0  0  0  0
    2.9142   -0.3362   20.4845 C   0  0  0  0  0  0  0  0  0  0  0  0
    4.1012    1.7761   19.7896 C   0  0  0  0  0  0  0  0  0  0  0  0
    4.8203    2.9295   20.1785 C   0  0  0  0  0  0  0  0  0  0  0  0
    5.2590    3.9087   19.1632 C   0  0  0  0  0  0  0  0  0  0  0  0
    5.0980    3.1399   21.5067 C   0  0  0  0  0  0  0  0  0  0  0  0
 28 29  1  0  0  0
 29 30  2  0  0  0
 30 31  1  0  0  0
 31 32  1  0  0  0
 31 33  2  0  0  0
 33 34  1  0  0  0
 34 35  1  0  0  0
 34 36  2  0  0  0
 33 25  1  0  0  0
 25 26  2  0  0  0
 25 27  2  0  0  0
 25 23  1  0  0  0
 23  1  1  0  0  0
  1  2  2  0  0  0
  2  3  1  0  0  0
  3  4  2  0  0  0
  4  5  1  0  0  0
  5  6  2  0  0  0
  4  7  1  0  0  0
  7  8  2  0  0  0
  7  9  2  0  0  0
  7 10  1  0  0  0
 10 12  1  0  0  0
 12 13  2  0  0  0
 13 14  1  0  0  0
 14 15  2  0  0  0
 15 16  1  0  0  0
 15 17  1  0  0  0
 17 18  1  0  0  0
 17 19  2  0  0  0
 17 20  2  0  0  0
 36 29  1  0  0  0
  6  1  1  0  0  0
 16 12  1  0  0  0
 23 24  1  0  0  0
 10 11  1  0  0  0
 18 21  1  0  0  0
 18 22  1  0  0  0
M  END
> <minimizedAffinity>
-7.23784

> <CNNscore>
0.3005755544

> <CNNaffinity>
6.1152558327

> <CNN_VS>
1.8380963802

> <CNNaffinity_variance>
0.5303915739

$$$$
[H]c1c([H])c(S(=O)(=O)N([H])c2nnc(S(=O)(=O)N([H])[H])s2)c([H])c([H])c1N([H])S(=O)(=O)c1c(C([H])([H])[H])c([H])c(C([H])([H])[H])c([H])c1C([H])([H])[H]


 36 38  0  0  0  0  0  0  0  0999 V2000
    2.9898    2.9726   15.9975 C   0  0  0  0  0  0  0  0  0  0  0  0
    2.9274    2.2783   14.7718 C   0  0  0  0  0  0  0  0  0  0  0  0
    3.2238    2.8603   13.5692 C   0  0  0  0  0  0  0  0  0  0  0  0
    3.6092    4.1885   13.4851 C   0  0  0  0  0  0  0  0  0  0  0  0
    3.6740    4.8767   14.6714 C   0  0  0  0  0  0  0  0  0  0  0  0
    3.3694    4.2778   15.9078 C   0  0  0  0  0  0  0  0  0  0  0  0
    3.9668    4.9276   11.9416 S   0  0  0  0  0  0  0  0  0  0  0  0
    5.2379    4.3547   11.3764 O   0  0  0  0  0  0  0  0  0  0  0  0
    4.1314    6.4194   12.1642 O   0  0  0  0  0  0  0  0  0  0  0  0
    2.6963    4.6979   10.8277 N   0  0  0  0  0  0  0  0  0  0  0  0
    2.1797    3.7872   10.7514 H   0  0  0  0  0  0  0  0  0  0  0  0
    2.2672    5.7366    9.9368 C   0  0  0  0  0  0  0  0  0  0  0  0
    1.1454    6.4591   10.0147 N   0  0  0  0  0  0  0  0  0  0  0  0
    0.9134    7.3421    9.1508 N   0  0  0  0  0  0  0  0  0  0  0  0
    1.7772    7.5579    8.1644 C   0  0  0  0  0  0  0  0  0  0  0  0
    2.9816    6.4036    8.5349 S   0  0  0  0  0  0  0  0  0  0  0  0
    1.6627    8.7362    6.8473 S   0  0  0  0  0  0  0  0  0  0  0  0
    3.2180    9.3846    6.4831 N   0  0  0  0  0  0  0  0  0  0  0  0
    0.7571    9.8367    7.2633 O   0  0  0  0  0  0  0  0  0  0  0  0
    1.1704    7.9950    5.6395 O   0  0  0  0  0  0  0  0  0  0  0  0
    3.8643    8.7101    6.0633 H   0  0  0  0  0  0  0  0  0  0  0  0
    3.1772   10.3138    6.0546 H   0  0  0  0  0  0  0  0  0  0  0  0
    2.6540    2.2844   17.1889 N   0  0  0  0  0  0  0  0  0  0  0  0
    1.6877    2.4799   17.6402 H   0  0  0  0  0  0  0  0  0  0  0  0
    3.5969    1.1472   18.0473 S   0  0  0  0  0  0  0  0  0  0  0  0
    2.7816   -0.1375   18.0851 O   0  0  0  0  0  0  0  0  0  0  0  0
    4.8312    0.8990   17.2519 O   0  0  0  0  0  0  0  0  0  0  0  0
    4.7473    2.8524   23.7009 C   0  0  0  0  0  0  0  0  0  0  0  0
    4.4481    2.3931   22.3017 C   0  0  0  0  0  0  0  0  0  0  0  0
    4.8962    3.1854   21.2744 C   0  0  0  0  0  0  0  0  0  0  0  0
    4.6467    2.8079   19.9478 C   0  0  0  0  0  0  0  0  0  0  0  0
    5.2079    3.7392   18.9307 C   0  0  0  0  0  0  0  0  0  0  0  0
    3.9687    1.6726   19.6710 C   0  0  0  0  0  0  0  0  0  0  0  0
    3.5145    0.8667   20.7399 C   0  0  0  0  0  0  0  0  0  0  0  0
    2.7836   -0.3874   20.4661 C   0  0  0  0  0  0  0  0  0  0  0  0
    3.7675    1.2505   22.0338 C   0  0  0  0  0  0  0  0  0  0  0  0
 28 29  1  0  0  0
 29 30  2  0  0  0
 30 31  1  0  0  0
 31 32  1  0  0  0
 31 33  2  0  0  0
 33 34  1  0  0  0
 34 35  1  0  0  0
 34 36  2  0  0  0
 33 25  1  0  0  0
 25 26  2  0  0  0
 25 27  2  0  0  0
 25 23  1  0  0  0
 23  1  1  0  0  0
  1  2  2  0  0  0
  2  3  1  0  0  0
  3  4  2  0  0  0
  4  5  1  0  0  0
  5  6  2  0  0  0
  4  7  1  0  0  0
  7  8  2  0  0  0
  7  9  2  0  0  0
  7 10  1  0  0  0
 10 12  1  0  0  0
 12 13  2  0  0  0
 13 14  1  0  0  0
 14 15  2  0  0  0
 15 16  1  0  0  0
 15 17  1  0  0  0
 17 18  1  0  0  0
 17 19  2  0  0  0
 17 20  2  0  0  0
 36 29  1  0  0  0
  6  1  1  0  0  0
 16 12  1  0  0  0
 23 24  1  0  0  0
 10 11  1  0  0  0
 18 21  1  0  0  0
 18 22  1  0  0  0
M  END
> <minimizedAffinity>
-7.29544

> <CNNscore>
0.2778085470

> <CNNaffinity>
6.0301399231

> <CNN_VS>
1.6752244234

> <CNNaffinity_variance>
0.6644312143

$$$$
[H]c1c([H])c(S(=O)(=O)N([H])c2nnc(S(=O)(=O)N([H])[H])s2)c([H])c([H])c1N([H])S(=O)(=O)c1c(C([H])([H])[H])c([H])c(C([H])([H])[H])c([H])c1C([H])([H])[H]


 36 38  0  0  0  0  0  0  0  0999 V2000
    2.6845    3.3006   15.9543 C   0  0  0  0  0  0  0  0  0  0  0  0
    3.0744    2.8116   14.6904 C   0  0  0  0  0  0  0  0  0  0  0  0
    3.2709    3.6222   13.6055 C   0  0  0  0  0  0  0  0  0  0  0  0
    3.0951    4.9941   13.6876 C   0  0  0  0  0  0  0  0  0  0  0  0
    2.7151    5.4838   14.9128 C   0  0  0  0  0  0  0  0  0  0  0  0
    2.5135    4.6500   16.0282 C   0  0  0  0  0  0  0  0  0  0  0  0
    3.3298    6.0184   12.2904 S   0  0  0  0  0  0  0  0  0  0  0  0
    4.7916    6.0908   11.9423 O   0  0  0  0  0  0  0  0  0  0  0  0
    2.8154    7.4038   12.6343 O   0  0  0  0  0  0  0  0  0  0  0  0
    2.4530    5.4502   10.9427 N   0  0  0  0  0  0  0  0  0  0  0  0
    2.9151    5.2482   10.0220 H   0  0  0  0  0  0  0  0  0  0  0  0
    1.0388    5.2186   10.9966 C   0  0  0  0  0  0  0  0  0  0  0  0
    0.4049    4.0462   10.8949 N   0  0  0  0  0  0  0  0  0  0  0  0
   -0.8494    4.0094   10.9659 N   0  0  0  0  0  0  0  0  0  0  0  0
   -1.5438    5.1286   11.1409 C   0  0  0  0  0  0  0  0  0  0  0  0
   -0.2837    6.2812   11.2026 S   0  0  0  0  0  0  0  0  0  0  0  0
   -3.2999    5.3187   11.2691 S   0  0  0  0  0  0  0  0  0  0  0  0
   -3.7061    6.2198   12.6816 N   0  0  0  0  0  0  0  0  0  0  0  0
   -3.9251    3.9744   11.3475 O   0  0  0  0  0  0  0  0  0  0  0  0
   -3.7431    6.1037   10.0700 O   0  0  0  0  0  0  0  0  0  0  0  0
   -3.4224    7.2032   12.6461 H   0  0  0  0  0  0  0  0  0  0  0  0
   -4.6497    6.0232   13.0277 H   0  0  0  0  0  0  0  0  0  0  0  0
    2.4967    2.3795   17.0136 N   0  0  0  0  0  0  0  0  0  0  0  0
    1.4962    2.2503   17.4107 H   0  0  0  0  0  0  0  0  0  0  0  0
    3.6731    1.4082   17.7829 S   0  0  0  0  0  0  0  0  0  0  0  0
    3.1313   -0.0138   17.7583 O   0  0  0  0  0  0  0  0  0  0  0  0
    4.9068    1.4571   16.9502 O   0  0  0  0  0  0  0  0  0  0  0  0
    4.6134    3.0129   23.5043 C   0  0  0  0  0  0  0  0  0  0  0  0
    4.3676    2.5780   22.0871 C   0  0  0  0  0  0  0  0  0  0  0  0
    4.8127    3.4113   21.0914 C   0  0  0  0  0  0  0  0  0  0  0  0
    4.6117    3.0581   19.7500 C   0  0  0  0  0  0  0  0  0  0  0  0
    5.1643    4.0340   18.7708 C   0  0  0  0  0  0  0  0  0  0  0  0
    3.9833    1.9063   19.4281 C   0  0  0  0  0  0  0  0  0  0  0  0
    3.5315    1.0582   20.4649 C   0  0  0  0  0  0  0  0  0  0  0  0
    2.8544   -0.2144   20.1417 C   0  0  0  0  0  0  0  0  0  0  0  0
    3.7366    1.4186   21.7739 C   0  0  0  0  0  0  0  0  0  0  0  0
 28 29  1  0  0  0
 29 30  2  0  0  0
 30 31  1  0  0  0
 31 32  1  0  0  0
 31 33  2  0  0  0
 33 34  1  0  0  0
 34 35  1  0  0  0
 34 36  2  0  0  0
 33 25  1  0  0  0
 25 26  2  0  0  0
 25 27  2  0  0  0
 25 23  1  0  0  0
 23  1  1  0  0  0
  1  2  2  0  0  0
  2  3  1  0  0  0
  3  4  2  0  0  0
  4  5  1  0  0  0
  5  6  2  0  0  0
  4  7  1  0  0  0
  7  8  2  0  0  0
  7  9  2  0  0  0
  7 10  1  0  0  0
 10 12  1  0  0  0
 12 13  2  0  0  0
 13 14  1  0  0  0
 14 15  2  0  0  0
 15 16  1  0  0  0
 15 17  1  0  0  0
 17 18  1  0  0  0
 17 19  2  0  0  0
 17 20  2  0  0  0
 36 29  1  0  0  0
  6  1  1  0  0  0
 16 12  1  0  0  0
 23 24  1  0  0  0
 10 11  1  0  0  0
 18 21  1  0  0  0
 18 22  1  0  0  0
M  END
> <minimizedAffinity>
-7.48105

> <CNNscore>
0.2682986259

> <CNNaffinity>
6.2181940079

> <CNN_VS>
1.6683329344

> <CNNaffinity_variance>
0.2847643495

$$$$
[H]c1c([H])c(S(=O)(=O)N([H])c2nnc(S(=O)(=O)N([H])[H])s2)c([H])c([H])c1N([H])S(=O)(=O)c1c(C([H])([H])[H])c([H])c(C([H])([H])[H])c([H])c1C([H])([H])[H]


 36 38  0  0  0  0  0  0  0  0999 V2000
    3.4786    6.0782   18.8115 C   0  0  0  0  0  0  0  0  0  0  0  0
    2.6139    5.2144   18.1083 C   0  0  0  0  0  0  0  0  0  0  0  0
    2.5927    5.1302   16.7426 C   0  0  0  0  0  0  0  0  0  0  0  0
    3.4344    5.9022   15.9582 C   0  0  0  0  0  0  0  0  0  0  0  0
    4.2818    6.7482   16.6302 C   0  0  0  0  0  0  0  0  0  0  0  0
    4.3035    6.8342   18.0346 C   0  0  0  0  0  0  0  0  0  0  0  0
    3.3856    5.8011   14.2136 S   0  0  0  0  0  0  0  0  0  0  0  0
    1.9643    5.8985   13.7298 O   0  0  0  0  0  0  0  0  0  0  0  0
    3.9755    4.4640   13.8057 O   0  0  0  0  0  0  0  0  0  0  0  0
    4.3173    7.0316   13.4884 N   0  0  0  0  0  0  0  0  0  0  0  0
    4.9052    7.6922   14.0540 H   0  0  0  0  0  0  0  0  0  0  0  0
    4.3464    7.2282   12.0682 C   0  0  0  0  0  0  0  0  0  0  0  0
    3.3092    7.4787   11.2632 N   0  0  0  0  0  0  0  0  0  0  0  0
    3.5015    7.6306   10.0304 N   0  0  0  0  0  0  0  0  0  0  0  0
    4.7284    7.5429    9.5278 C   0  0  0  0  0  0  0  0  0  0  0  0
    5.6320    7.2223   10.9423 S   0  0  0  0  0  0  0  0  0  0  0  0
    5.2351    7.7192    7.8400 S   0  0  0  0  0  0  0  0  0  0  0  0
    6.7314    6.9056    7.5729 N   0  0  0  0  0  0  0  0  0  0  0  0
    5.4000    9.1628    7.5352 O   0  0  0  0  0  0  0  0  0  0  0  0
    4.1855    7.0569    6.9972 O   0  0  0  0  0  0  0  0  0  0  0  0
    6.6693    5.8851    7.6348 H   0  0  0  0  0  0  0  0  0  0  0  0
    7.2642    7.2892    6.7870 H   0  0  0  0  0  0  0  0  0  0  0  0
    3.4181    6.1002   20.2264 N   0  0  0  0  0  0  0  0  0  0  0  0
    2.8361    6.8806   20.7036 H   0  0  0  0  0  0  0  0  0  0  0  0
    4.1649    5.0279   21.3272 S   0  0  0  0  0  0  0  0  0  0  0  0
    3.2695    4.9914   22.5574 O   0  0  0  0  0  0  0  0  0  0  0  0
    4.1646    3.6756   20.7036 O   0  0  0  0  0  0  0  0  0  0  0  0
    9.6845    6.9334   22.7754 C   0  0  0  0  0  0  0  0  0  0  0  0
    8.2935    6.4929   22.4158 C   0  0  0  0  0  0  0  0  0  0  0  0
    8.0491    5.1425   22.4026 C   0  0  0  0  0  0  0  0  0  0  0  0
    6.7702    4.6723   22.0744 C   0  0  0  0  0  0  0  0  0  0  0  0
    6.6319    3.1907   22.1226 C   0  0  0  0  0  0  0  0  0  0  0  0
    5.7765    5.5354   21.7700 C   0  0  0  0  0  0  0  0  0  0  0  0
    6.0436    6.9235   21.7888 C   0  0  0  0  0  0  0  0  0  0  0  0
    4.9720    7.8905   21.4745 C   0  0  0  0  0  0  0  0  0  0  0  0
    7.3018    7.3678   22.1127 C   0  0  0  0  0  0  0  0  0  0  0  0
 28 29  1  0  0  0
 29 30  2  0  0  0
 30 31  1  0  0  0
 31 32  1  0  0  0
 31 33  2  0  0  0
 33 34  1  0  0  0
 34 35  1  0  0  0
 34 36  2  0  0  0
 33 25  1  0  0  0
 25 26  2  0  0  0
 25 27  2  0  0  0
 25 23  1  0  0  0
 23  1  1  0  0  0
  1  2  2  0  0  0
  2  3  1  0  0  0
  3  4  2  0  0  0
  4  5  1  0  0  0
  5  6  2  0  0  0
  4  7  1  0  0  0
  7  8  2  0  0  0
  7  9  2  0  0  0
  7 10  1  0  0  0
 10 12  1  0  0  0
 12 13  2  0  0  0
 13 14  1  0  0  0
 14 15  2  0  0  0
 15 16  1  0  0  0
 15 17  1  0  0  0
 17 18  1  0  0  0
 17 19  2  0  0  0
 17 20  2  0  0  0
 36 29  1  0  0  0
  6  1  1  0  0  0
 16 12  1  0  0  0
 23 24  1  0  0  0
 10 11  1  0  0  0
 18 21  1  0  0  0
 18 22  1  0  0  0
M  END
> <minimizedAffinity>
-7.63953

> <CNNscore>
0.2519295216

> <CNNaffinity>
5.2276191711

> <CNN_VS>
1.3169915676

> <CNNaffinity_variance>
0.9268127680

$$$$
[H]c1c([H])c(S(=O)(=O)N([H])c2nnc(S(=O)(=O)N([H])[H])s2)c([H])c([H])c1N([H])S(=O)(=O)c1c(C([H])([H])[H])c([H])c(C([H])([H])[H])c([H])c1C([H])([H])[H]


 36 38  0  0  0  0  0  0  0  0999 V2000
    3.8934    5.5970   17.3365 C   0  0  0  0  0  0  0  0  0  0  0  0
    3.1996    6.1141   18.4500 C   0  0  0  0  0  0  0  0  0  0  0  0
    3.7350    7.0490   19.2938 C   0  0  0  0  0  0  0  0  0  0  0  0
    5.0120    7.5503   19.0994 C   0  0  0  0  0  0  0  0  0  0  0  0
    5.6991    7.0552   18.0187 C   0  0  0  0  0  0  0  0  0  0  0  0
    5.1481    6.0940   17.1511 C   0  0  0  0  0  0  0  0  0  0  0  0
    5.6939    8.7301   20.1947 S   0  0  0  0  0  0  0  0  0  0  0  0
    4.6532    9.7500   20.5689 O   0  0  0  0  0  0  0  0  0  0  0  0
    6.8494    9.4127   19.4868 O   0  0  0  0  0  0  0  0  0  0  0  0
    6.3018    7.9948   21.6081 N   0  0  0  0  0  0  0  0  0  0  0  0
    6.9879    8.4795   22.2376 H   0  0  0  0  0  0  0  0  0  0  0  0
    5.9077    6.6760   22.0105 C   0  0  0  0  0  0  0  0  0  0  0  0
    4.6975    6.2805   22.4177 N   0  0  0  0  0  0  0  0  0  0  0  0
    4.5105    5.0789   22.7357 N   0  0  0  0  0  0  0  0  0  0  0  0
    5.5090    4.2048   22.6684 C   0  0  0  0  0  0  0  0  0  0  0  0
    6.7756    5.2072   22.1107 S   0  0  0  0  0  0  0  0  0  0  0  0
    5.4808    2.4783   23.0621 S   0  0  0  0  0  0  0  0  0  0  0  0
    5.9003    2.2312   24.7159 N   0  0  0  0  0  0  0  0  0  0  0  0
    6.4582    1.7713   22.1966 O   0  0  0  0  0  0  0  0  0  0  0  0
    4.0705    2.0075   22.8618 O   0  0  0  0  0  0  0  0  0  0  0  0
    5.2020    2.5771   25.3805 H   0  0  0  0  0  0  0  0  0  0  0  0
    6.2916    1.3026   24.8982 H   0  0  0  0  0  0  0  0  0  0  0  0
    3.2567    4.6240   16.5280 N   0  0  0  0  0  0  0  0  0  0  0  0
    2.3085    4.8789   16.0681 H   0  0  0  0  0  0  0  0  0  0  0  0
    3.7951    3.0437   16.1646 S   0  0  0  0  0  0  0  0  0  0  0  0
    2.9666    2.5761   14.9765 O   0  0  0  0  0  0  0  0  0  0  0  0
    5.2180    3.1438   15.7369 O   0  0  0  0  0  0  0  0  0  0  0  0
    2.9714   -0.8104   20.7100 C   0  0  0  0  0  0  0  0  0  0  0  0
    3.1599    0.1280   19.5516 C   0  0  0  0  0  0  0  0  0  0  0  0
    3.9793    1.2108   19.7511 C   0  0  0  0  0  0  0  0  0  0  0  0
    4.1928    2.1208   18.7067 C   0  0  0  0  0  0  0  0  0  0  0  0
    5.1214    3.2342   19.0453 C   0  0  0  0  0  0  0  0  0  0  0  0
    3.5991    1.9427   17.5063 C   0  0  0  0  0  0  0  0  0  0  0  0
    2.7586    0.8221   17.3160 C   0  0  0  0  0  0  0  0  0  0  0  0
    2.1082    0.5947   16.0093 C   0  0  0  0  0  0  0  0  0  0  0  0
    2.5601   -0.0601   18.3494 C   0  0  0  0  0  0  0  0  0  0  0  0
 28 29  1  0  0  0
 29 30  2  0  0  0
 30 31  1  0  0  0
 31 32  1  0  0  0
 31 33  2  0  0  0
 33 34  1  0  0  0
 34 35  1  0  0  0
 34 36  2  0  0  0
 33 25  1  0  0  0
 25 26  2  0  0  0
 25 27  2  0  0  0
 25 23  1  0  0  0
 23  1  1  0  0  0
  1  2  2  0  0  0
  2  3  1  0  0  0
  3  4  2  0  0  0
  4  5  1  0  0  0
  5  6  2  0  0  0
  4  7  1  0  0  0
  7  8  2  0  0  0
  7  9  2  0  0  0
  7 10  1  0  0  0
 10 12  1  0  0  0
 12 13  2  0  0  0
 13 14  1  0  0  0
 14 15  2  0  0  0
 15 16  1  0  0  0
 15 17  1  0  0  0
 17 18  1  0  0  0
 17 19  2  0  0  0
 17 20  2  0  0  0
 36 29  1  0  0  0
  6  1  1  0  0  0
 16 12  1  0  0  0
 23 24  1  0  0  0
 10 11  1  0  0  0
 18 21  1  0  0  0
 18 22  1  0  0  0
M  END
> <minimizedAffinity>
-7.41379

> <CNNscore>
0.2291040868

> <CNNaffinity>
6.5232582092

> <CNN_VS>
1.4945051670

> <CNNaffinity_variance>
0.2556421757

$$$$
[H]c1c([H])c(S(=O)(=O)N([H])c2nnc(S(=O)(=O)N([H])[H])s2)c([H])c([H])c1N([H])S(=O)(=O)c1c(C([H])([H])[H])c([H])c(C([H])([H])[H])c([H])c1C([H])([H])[H]


 36 38  0  0  0  0  0  0  0  0999 V2000
    3.2620    6.2103   16.4110 C   0  0  0  0  0  0  0  0  0  0  0  0
    2.9138    5.8796   17.7369 C   0  0  0  0  0  0  0  0  0  0  0  0
    3.4126    6.5414   18.8259 C   0  0  0  0  0  0  0  0  0  0  0  0
    4.3041    7.5930   18.6863 C   0  0  0  0  0  0  0  0  0  0  0  0
    4.6519    7.9254   17.4003 C   0  0  0  0  0  0  0  0  0  0  0  0
    4.1386    7.2448   16.2807 C   0  0  0  0  0  0  0  0  0  0  0  0
    4.9503    8.4189   20.0850 S   0  0  0  0  0  0  0  0  0  0  0  0
    4.4477    9.8364   20.1262 O   0  0  0  0  0  0  0  0  0  0  0  0
    6.4635    8.4147   19.9731 O   0  0  0  0  0  0  0  0  0  0  0  0
    4.5265    7.6243   21.5331 N   0  0  0  0  0  0  0  0  0  0  0  0
    3.9813    8.1023   22.2922 H   0  0  0  0  0  0  0  0  0  0  0  0
    4.8928    6.2617   21.7895 C   0  0  0  0  0  0  0  0  0  0  0  0
    6.0954    5.7013   21.6270 N   0  0  0  0  0  0  0  0  0  0  0  0
    6.2570    4.4854   21.9014 N   0  0  0  0  0  0  0  0  0  0  0  0
    5.2391    3.7589   22.3506 C   0  0  0  0  0  0  0  0  0  0  0  0
    3.9930    4.9282   22.3661 S   0  0  0  0  0  0  0  0  0  0  0  0
    5.2305    2.0453   22.7978 S   0  0  0  0  0  0  0  0  0  0  0  0
    5.0339    1.8690   24.5014 N   0  0  0  0  0  0  0  0  0  0  0  0
    6.5194    1.4340   22.3864 O   0  0  0  0  0  0  0  0  0  0  0  0
    4.0435    1.4237   22.1231 O   0  0  0  0  0  0  0  0  0  0  0  0
    4.1110    2.1481   24.8468 H   0  0  0  0  0  0  0  0  0  0  0  0
    5.4161    0.9903   24.8626 H   0  0  0  0  0  0  0  0  0  0  0  0
    2.6994    5.4587   15.3506 N   0  0  0  0  0  0  0  0  0  0  0  0
    1.7368    5.7657   14.9576 H   0  0  0  0  0  0  0  0  0  0  0  0
    3.3513    4.0818   14.5768 S   0  0  0  0  0  0  0  0  0  0  0  0
    2.5742    3.9173   13.2785 O   0  0  0  0  0  0  0  0  0  0  0  0
    4.7698    4.3873   14.2417 O   0  0  0  0  0  0  0  0  0  0  0  0
    3.0398   -0.8652   17.9862 C   0  0  0  0  0  0  0  0  0  0  0  0
    3.1408    0.3859   17.1599 C   0  0  0  0  0  0  0  0  0  0  0  0
    2.2752    0.5079   16.1018 C   0  0  0  0  0  0  0  0  0  0  0  0
    2.3229    1.6532   15.2953 C   0  0  0  0  0  0  0  0  0  0  0  0
    1.3150    1.6724   14.1996 C   0  0  0  0  0  0  0  0  0  0  0  0
    3.2131    2.6372   15.5488 C   0  0  0  0  0  0  0  0  0  0  0  0
    4.0973    2.4974   16.6429 C   0  0  0  0  0  0  0  0  0  0  0  0
    5.0710    3.5644   16.9521 C   0  0  0  0  0  0  0  0  0  0  0  0
    4.0375    1.3693   17.4235 C   0  0  0  0  0  0  0  0  0  0  0  0
 28 29  1  0  0  0
 29 30  2  0  0  0
 30 31  1  0  0  0
 31 32  1  0  0  0
 31 33  2  0  0  0
 33 34  1  0  0  0
 34 35  1  0  0  0
 34 36  2  0  0  0
 33 25  1  0  0  0
 25 26  2  0  0  0
 25 27  2  0  0  0
 25 23  1  0  0  0
 23  1  1  0  0  0
  1  2  2  0  0  0
  2  3  1  0  0  0
  3  4  2  0  0  0
  4  5  1  0  0  0
  5  6  2  0  0  0
  4  7  1  0  0  0
  7  8  2  0  0  0
  7  9  2  0  0  0
  7 10  1  0  0  0
 10 12  1  0  0  0
 12 13  2  0  0  0
 13 14  1  0  0  0
 14 15  2  0  0  0
 15 16  1  0  0  0
 15 17  1  0  0  0
 17 18  1  0  0  0
 17 19  2  0  0  0
 17 20  2  0  0  0
 36 29  1  0  0  0
  6  1  1  0  0  0
 16 12  1  0  0  0
 23 24  1  0  0  0
 10 11  1  0  0  0
 18 21  1  0  0  0
 18 22  1  0  0  0
M  END
> <minimizedAffinity>
-8.00195

> <CNNscore>
0.2182186544

> <CNNaffinity>
6.2931499481

> <CNN_VS>
1.3732826710

> <CNNaffinity_variance>
0.2829986215

$$$$
[H]OC(=O)c1c([H])c([H])c(-c2c([H])c([H])c(N3C(=O)N(c4nc([H])n([H])c(=O)c4[H])C4(C3=O)C([H])([H])C([H])([H])N(C([H])([H])c3nc([H])c([H])c([H])c3C([H])([H])[H])C([H])([H])C4([H])[H])c([H])c2[H])c(C([H])([H])[H])c1[H]


 45 50  0  0  0  0  0  0  0  0999 V2000
    4.8699    6.8681   18.3976 N   0  0  0  0  0  0  0  0  0  0  0  0
    3.5650    6.4641   18.9645 C   0  0  0  0  0  0  0  0  0  0  0  0
    3.4577    4.9951   19.1759 C   0  0  0  0  0  0  0  0  0  0  0  0
    3.9166    4.1891   18.0029 C   0  0  0  0  0  0  0  0  0  0  0  0
    5.1984    4.7012   17.3807 C   0  0  0  0  0  0  0  0  0  0  0  0
    5.0505    6.1641   17.1357 C   0  0  0  0  0  0  0  0  0  0  0  0
    4.0166    2.7808   18.3148 N   0  0  0  0  0  0  0  0  0  0  0  0
    3.8306    2.1146   17.0548 C   0  0  0  0  0  0  0  0  0  0  0  0
    4.2391    0.9448   16.7999 O   0  0  0  0  0  0  0  0  0  0  0  0
    3.1260    2.9831   16.1763 N   0  0  0  0  0  0  0  0  0  0  0  0
    2.8887    4.1739   16.9085 C   0  0  0  0  0  0  0  0  0  0  0  0
    1.9828    5.0480   16.6768 O   0  0  0  0  0  0  0  0  0  0  0  0
    4.2448    2.1101   19.5603 C   0  0  0  0  0  0  0  0  0  0  0  0
    5.3331    2.4248   20.3389 C   0  0  0  0  0  0  0  0  0  0  0  0
    5.5058    1.7501   21.5261 C   0  0  0  0  0  0  0  0  0  0  0  0
    6.5080    2.0181   22.2758 O   0  0  0  0  0  0  0  0  0  0  0  0
    4.6277    0.8074   21.9090 N   0  0  0  0  0  0  0  0  0  0  0  0
    3.5587    0.4860   21.1617 C   0  0  0  0  0  0  0  0  0  0  0  0
    3.4107    1.1564   20.0091 N   0  0  0  0  0  0  0  0  0  0  0  0
    4.7506    0.2934   22.8048 H   0  0  0  0  0  0  0  0  0  0  0  0
    2.7115    2.7660   14.8438 C   0  0  0  0  0  0  0  0  0  0  0  0
    3.3577    3.4467   13.8329 C   0  0  0  0  0  0  0  0  0  0  0  0
    3.0065    3.2853   12.5188 C   0  0  0  0  0  0  0  0  0  0  0  0
    1.9700    2.4173   12.1373 C   0  0  0  0  0  0  0  0  0  0  0  0
    1.3351    1.7469   13.1465 C   0  0  0  0  0  0  0  0  0  0  0  0
    1.6946    1.9124   14.4892 C   0  0  0  0  0  0  0  0  0  0  0  0
    1.6334    2.3023   10.7321 C   0  0  0  0  0  0  0  0  0  0  0  0
    0.5783    3.0578   10.2065 C   0  0  0  0  0  0  0  0  0  0  0  0
    0.2303    2.9706    8.8898 C   0  0  0  0  0  0  0  0  0  0  0  0
    0.9290    2.1190    8.0435 C   0  0  0  0  0  0  0  0  0  0  0  0
    1.9627    1.3771    8.5533 C   0  0  0  0  0  0  0  0  0  0  0  0
    2.3091    1.4749    9.9009 C   0  0  0  0  0  0  0  0  0  0  0  0
    3.4390    0.6594   10.3841 C   0  0  0  0  0  0  0  0  0  0  0  0
    0.5803    2.0064    6.6289 C   0  0  0  0  0  0  0  0  0  0  0  0
   -0.6286    1.4516    6.2384 O   0  0  0  0  0  0  0  0  0  0  0  0
    1.4278    2.4362    5.7740 O   0  0  0  0  0  0  0  0  0  0  0  0
   -0.7543    1.2556    5.2444 H   0  0  0  0  0  0  0  0  0  0  0  0
    5.8540    6.5825   19.3848 C   0  0  0  0  0  0  0  0  0  0  0  0
    6.8325    5.6589   21.9389 C   0  0  0  0  0  0  0  0  0  0  0  0
    6.4917    7.0986   21.7273 C   0  0  0  0  0  0  0  0  0  0  0  0
    6.6182    8.0221   22.7168 C   0  0  0  0  0  0  0  0  0  0  0  0
    6.3103    9.3585   22.5453 C   0  0  0  0  0  0  0  0  0  0  0  0
    5.8543    9.7446   21.2971 C   0  0  0  0  0  0  0  0  0  0  0  0
    5.7328    8.8242   20.3266 N   0  0  0  0  0  0  0  0  0  0  0  0
    6.0253    7.5296   20.4732 C   0  0  0  0  0  0  0  0  0  0  0  0
 39 40  1  0  0  0
 40 41  2  0  0  0
 41 42  1  0  0  0
 42 43  2  0  0  0
 43 44  1  0  0  0
 44 45  2  0  0  0
 45 38  1  0  0  0
 38  1  1  0  0  0
  1  2  1  0  0  0
  2  3  1  0  0  0
  3  4  1  0  0  0
  4  5  1  0  0  0
  5  6  1  0  0  0
  4  7  1  0  0  0
  7  8  1  0  0  0
  8  9  2  0  0  0
  8 10  1  0  0  0
 10 11  1  0  0  0
 11 12  2  0  0  0
 10 21  1  0  0  0
 21 22  2  0  0  0
 22 23  1  0  0  0
 23 24  2  0  0  0
 24 25  1  0  0  0
 25 26  2  0  0  0
 24 27  1  0  0  0
 27 28  2  0  0  0
 28 29  1  0  0  0
 29 30  2  0  0  0
 30 31  1  0  0  0
 31 32  2  0  0  0
 32 33  1  0  0  0
 30 34  1  0  0  0
 34 35  1  0  0  0
 34 36  2  0  0  0
  7 13  1  0  0  0
 13 14  2  0  0  0
 14 15  1  0  0  0
 15 16  2  0  0  0
 15 17  1  0  0  0
 17 18  1  0  0  0
 18 19  2  0  0  0
 45 40  1  0  0  0
  6  1  1  0  0  0
 26 21  1  0  0  0
 32 27  1  0  0  0
 19 13  1  0  0  0
 11  4  1  0  0  0
 35 37  1  0  0  0
 17 20  1  0  0  0
M  END
> <minimizedAffinity>
-9.54462

> <CNNscore>
0.5779316425

> <CNNaffinity>
7.2204084396

> <CNN_VS>
4.1729025841

> <CNNaffinity_variance>
0.2321519405

$$$$
[H]OC(=O)c1c([H])c([H])c(-c2c([H])c([H])c(N3C(=O)N(c4nc([H])n([H])c(=O)c4[H])C4(C3=O)C([H])([H])C([H])([H])N(C([H])([H])c3nc([H])c([H])c([H])c3C([H])([H])[H])C([H])([H])C4([H])[H])c([H])c2[H])c(C([H])([H])[H])c1[H]


 45 50  0  0  0  0  0  0  0  0999 V2000
    4.6389    7.1644   18.3103 N   0  0  0  0  0  0  0  0  0  0  0  0
    3.3948    6.6479   18.9209 C   0  0  0  0  0  0  0  0  0  0  0  0
    3.4297    5.1774   19.1458 C   0  0  0  0  0  0  0  0  0  0  0  0
    3.9245    4.4054   17.9646 C   0  0  0  0  0  0  0  0  0  0  0  0
    5.1340    5.0268   17.2986 C   0  0  0  0  0  0  0  0  0  0  0  0
    4.8446    6.4675   17.0482 C   0  0  0  0  0  0  0  0  0  0  0  0
    4.1632    3.0154   18.2829 N   0  0  0  0  0  0  0  0  0  0  0  0
    4.0005    2.3226   17.0342 C   0  0  0  0  0  0  0  0  0  0  0  0
    4.5070    1.1927   16.7746 O   0  0  0  0  0  0  0  0  0  0  0  0
    3.1923    3.1140   16.1723 N   0  0  0  0  0  0  0  0  0  0  0  0
    2.8691    4.2852   16.9033 C   0  0  0  0  0  0  0  0  0  0  0  0
    1.8800    5.0702   16.6942 O   0  0  0  0  0  0  0  0  0  0  0  0
    4.4904    2.3807   19.5252 C   0  0  0  0  0  0  0  0  0  0  0  0
    3.7907    1.2791   19.9572 C   0  0  0  0  0  0  0  0  0  0  0  0
    4.1453    0.7078   21.1582 C   0  0  0  0  0  0  0  0  0  0  0  0
    3.5153   -0.3190   21.5905 O   0  0  0  0  0  0  0  0  0  0  0  0
    5.1525    1.2198   21.8862 N   0  0  0  0  0  0  0  0  0  0  0  0
    5.8475    2.2955   21.4807 C   0  0  0  0  0  0  0  0  0  0  0  0
    5.4844    2.8353   20.3074 N   0  0  0  0  0  0  0  0  0  0  0  0
    5.4272    0.7937   22.7943 H   0  0  0  0  0  0  0  0  0  0  0  0
    2.7587    2.8467   14.8551 C   0  0  0  0  0  0  0  0  0  0  0  0
    3.3570    3.5247   13.8134 C   0  0  0  0  0  0  0  0  0  0  0  0
    2.9849    3.3159   12.5118 C   0  0  0  0  0  0  0  0  0  0  0  0
    1.9748    2.3997   12.1751 C   0  0  0  0  0  0  0  0  0  0  0  0
    1.3872    1.7322   13.2146 C   0  0  0  0  0  0  0  0  0  0  0  0
    1.7682    1.9462   14.5445 C   0  0  0  0  0  0  0  0  0  0  0  0
    1.6135    2.2353   10.7810 C   0  0  0  0  0  0  0  0  0  0  0  0
    0.5260    2.9445   10.2570 C   0  0  0  0  0  0  0  0  0  0  0  0
    0.1543    2.8102    8.9508 C   0  0  0  0  0  0  0  0  0  0  0  0
    0.8610    1.9559    8.1138 C   0  0  0  0  0  0  0  0  0  0  0  0
    1.9264    1.2592    8.6221 C   0  0  0  0  0  0  0  0  0  0  0  0
    2.2968    1.4050    9.9589 C   0  0  0  0  0  0  0  0  0  0  0  0
    3.4599    0.6369   10.4406 C   0  0  0  0  0  0  0  0  0  0  0  0
    0.4873    1.7934    6.7104 C   0  0  0  0  0  0  0  0  0  0  0  0
    1.4559    1.7406    5.7202 O   0  0  0  0  0  0  0  0  0  0  0  0
   -0.7577    1.7032    6.4358 O   0  0  0  0  0  0  0  0  0  0  0  0
    1.1374    1.7828    4.7511 H   0  0  0  0  0  0  0  0  0  0  0  0
    5.6751    6.9800   19.2678 C   0  0  0  0  0  0  0  0  0  0  0  0
    7.7522    8.8273   18.4887 C   0  0  0  0  0  0  0  0  0  0  0  0
    7.0223    9.0003   19.7813 C   0  0  0  0  0  0  0  0  0  0  0  0
    7.3059   10.0164   20.6387 C   0  0  0  0  0  0  0  0  0  0  0  0
    6.6447   10.1977   21.8387 C   0  0  0  0  0  0  0  0  0  0  0  0
    5.6525    9.2863   22.1551 C   0  0  0  0  0  0  0  0  0  0  0  0
    5.3804    8.2861   21.3011 N   0  0  0  0  0  0  0  0  0  0  0  0
    6.0079    8.0949   20.1380 C   0  0  0  0  0  0  0  0  0  0  0  0
 39 40  1  0  0  0
 40 41  2  0  0  0
 41 42  1  0  0  0
 42 43  2  0  0  0
 43 44  1  0  0  0
 44 45  2  0  0  0
 45 38  1  0  0  0
 38  1  1  0  0  0
  1  2  1  0  0  0
  2  3  1  0  0  0
  3  4  1  0  0  0
  4  5  1  0  0  0
  5  6  1  0  0  0
  4  7  1  0  0  0
  7  8  1  0  0  0
  8  9  2  0  0  0
  8 10  1  0  0  0
 10 11  1  0  0  0
 11 12  2  0  0  0
 10 21  1  0  0  0
 21 22  2  0  0  0
 22 23  1  0  0  0
 23 24  2  0  0  0
 24 25  1  0  0  0
 25 26  2  0  0  0
 24 27  1  0  0  0
 27 28  2  0  0  0
 28 29  1  0  0  0
 29 30  2  0  0  0
 30 31  1  0  0  0
 31 32  2  0  0  0
 32 33  1  0  0  0
 30 34  1  0  0  0
 34 35  1  0  0  0
 34 36  2  0  0  0
  7 13  1  0  0  0
 13 14  2  0  0  0
 14 15  1  0  0  0
 15 16  2  0  0  0
 15 17  1  0  0  0
 17 18  1  0  0  0
 18 19  2  0  0  0
 45 40  1  0  0  0
  6  1  1  0  0  0
 26 21  1  0  0  0
 32 27  1  0  0  0
 19 13  1  0  0  0
 11  4  1  0  0  0
 35 37  1  0  0  0
 17 20  1  0  0  0
M  END
> <minimizedAffinity>
-9.30809

> <CNNscore>
0.3862052262

> <CNNaffinity>
6.9657135010

> <CNN_VS>
2.6901948452

> <CNNaffinity_variance>
0.1461067349

$$$$
[H]OC(=O)c1c([H])c([H])c(-c2c([H])c([H])c(N3C(=O)N(c4nc([H])n([H])c(=O)c4[H])C4(C3=O)C([H])([H])C([H])([H])N(C([H])([H])c3nc([H])c([H])c([H])c3C([H])([H])[H])C([H])([H])C4([H])[H])c([H])c2[H])c(C([H])([H])[H])c1[H]


 45 50  0  0  0  0  0  0  0  0999 V2000
    5.3551    7.4918   18.6809 N   0  0  0  0  0  0  0  0  0  0  0  0
    4.0587    7.1321   19.2952 C   0  0  0  0  0  0  0  0  0  0  0  0
    3.9698    5.6905   19.6529 C   0  0  0  0  0  0  0  0  0  0  0  0
    4.4305    4.7764   18.5627 C   0  0  0  0  0  0  0  0  0  0  0  0
    5.7022    5.2378   17.8828 C   0  0  0  0  0  0  0  0  0  0  0  0
    5.5357    6.6672   17.4942 C   0  0  0  0  0  0  0  0  0  0  0  0
    4.5489    3.4075   19.0128 N   0  0  0  0  0  0  0  0  0  0  0  0
    4.3625    2.6168   17.8271 C   0  0  0  0  0  0  0  0  0  0  0  0
    4.7829    1.4320   17.6870 O   0  0  0  0  0  0  0  0  0  0  0  0
    3.6421    3.3855   16.8716 N   0  0  0  0  0  0  0  0  0  0  0  0
    3.3957    4.6408   17.4832 C   0  0  0  0  0  0  0  0  0  0  0  0
    2.4783    5.4775   17.1722 O   0  0  0  0  0  0  0  0  0  0  0  0
    4.7929    2.8670   20.3172 C   0  0  0  0  0  0  0  0  0  0  0  0
    3.8859    2.0193   20.9075 C   0  0  0  0  0  0  0  0  0  0  0  0
    4.1687    1.5286   22.1620 C   0  0  0  0  0  0  0  0  0  0  0  0
    3.3465    0.7368   22.7410 O   0  0  0  0  0  0  0  0  0  0  0  0
    5.3061    1.8740   22.7892 N   0  0  0  0  0  0  0  0  0  0  0  0
    6.2041    2.7011   22.2287 C   0  0  0  0  0  0  0  0  0  0  0  0
    5.9075    3.1667   21.0059 N   0  0  0  0  0  0  0  0  0  0  0  0
    5.5277    1.5073   23.7369 H   0  0  0  0  0  0  0  0  0  0  0  0
    3.2216    3.0319   15.5707 C   0  0  0  0  0  0  0  0  0  0  0  0
    3.7782    3.6926   14.4952 C   0  0  0  0  0  0  0  0  0  0  0  0
    3.4157    3.4016   13.2068 C   0  0  0  0  0  0  0  0  0  0  0  0
    2.4585    2.4146   12.9186 C   0  0  0  0  0  0  0  0  0  0  0  0
    1.9122    1.7650   13.9913 C   0  0  0  0  0  0  0  0  0  0  0  0
    2.2832    2.0630   15.3077 C   0  0  0  0  0  0  0  0  0  0  0  0
    2.1042    2.1642   11.5356 C   0  0  0  0  0  0  0  0  0  0  0  0
    2.8290    1.2251   10.7919 C   0  0  0  0  0  0  0  0  0  0  0  0
    2.5267    0.9679    9.4862 C   0  0  0  0  0  0  0  0  0  0  0  0
    1.4812    1.6446    8.8709 C   0  0  0  0  0  0  0  0  0  0  0  0
    0.7686    2.5652    9.5947 C   0  0  0  0  0  0  0  0  0  0  0  0
    1.0870    2.8193   10.9286 C   0  0  0  0  0  0  0  0  0  0  0  0
    0.2738    3.8121   11.6553 C   0  0  0  0  0  0  0  0  0  0  0  0
    1.1334    1.3886    7.4748 C   0  0  0  0  0  0  0  0  0  0  0  0
   -0.1354    1.6757    6.9960 O   0  0  0  0  0  0  0  0  0  0  0  0
    2.0385    0.8934    6.7203 O   0  0  0  0  0  0  0  0  0  0  0  0
   -0.3714    1.3358    6.0626 H   0  0  0  0  0  0  0  0  0  0  0  0
    6.3488    7.3169   19.6841 C   0  0  0  0  0  0  0  0  0  0  0  0
    6.4748    6.5905   22.4752 C   0  0  0  0  0  0  0  0  0  0  0  0
    6.5483    8.0229   22.0552 C   0  0  0  0  0  0  0  0  0  0  0  0
    6.6680    9.0331   22.9569 C   0  0  0  0  0  0  0  0  0  0  0  0
    6.7386   10.3646   22.5932 C   0  0  0  0  0  0  0  0  0  0  0  0
    6.6823   10.6518   21.2407 C   0  0  0  0  0  0  0  0  0  0  0  0
    6.5637    9.6463   20.3582 N   0  0  0  0  0  0  0  0  0  0  0  0
    6.4942    8.3549   20.6903 C   0  0  0  0  0  0  0  0  0  0  0  0
 39 40  1  0  0  0
 40 41  2  0  0  0
 41 42  1  0  0  0
 42 43  2  0  0  0
 43 44  1  0  0  0
 44 45  2  0  0  0
 45 38  1  0  0  0
 38  1  1  0  0  0
  1  2  1  0  0  0
  2  3  1  0  0  0
  3  4  1  0  0  0
  4  5  1  0  0  0
  5  6  1  0  0  0
  4  7  1  0  0  0
  7  8  1  0  0  0
  8  9  2  0  0  0
  8 10  1  0  0  0
 10 11  1  0  0  0
 11 12  2  0  0  0
 10 21  1  0  0  0
 21 22  2  0  0  0
 22 23  1  0  0  0
 23 24  2  0  0  0
 24 25  1  0  0  0
 25 26  2  0  0  0
 24 27  1  0  0  0
 27 28  2  0  0  0
 28 29  1  0  0  0
 29 30  2  0  0  0
 30 31  1  0  0  0
 31 32  2  0  0  0
 32 33  1  0  0  0
 30 34  1  0  0  0
 34 35  1  0  0  0
 34 36  2  0  0  0
  7 13  1  0  0  0
 13 14  2  0  0  0
 14 15  1  0  0  0
 15 16  2  0  0  0
 15 17  1  0  0  0
 17 18  1  0  0  0
 18 19  2  0  0  0
 45 40  1  0  0  0
  6  1  1  0  0  0
 26 21  1  0  0  0
 32 27  1  0  0  0
 19 13  1  0  0  0
 11  4  1  0  0  0
 35 37  1  0  0  0
 17 20  1  0  0  0
M  END
> <minimizedAffinity>
-9.81165

> <CNNscore>
0.2753779888

> <CNNaffinity>
6.8586454391

> <CNN_VS>
1.8887200356

> <CNNaffinity_variance>
0.1310509294

$$$$
[H]OC(=O)c1c([H])c([H])c(-c2c([H])c([H])c(N3C(=O)N(c4nc([H])n([H])c(=O)c4[H])C4(C3=O)C([H])([H])C([H])([H])N(C([H])([H])c3nc([H])c([H])c([H])c3C([H])([H])[H])C([H])([H])C4([H])[H])c([H])c2[H])c(C([H])([H])[H])c1[H]


 45 50  0  0  0  0  0  0  0  0999 V2000
    6.0534    7.1436   20.5854 N   0  0  0  0  0  0  0  0  0  0  0  0
    4.6414    7.0086   21.0042 C   0  0  0  0  0  0  0  0  0  0  0  0
    4.2215    5.5906   21.1691 C   0  0  0  0  0  0  0  0  0  0  0  0
    4.6327    4.7111   20.0317 C   0  0  0  0  0  0  0  0  0  0  0  0
    6.0496    4.9568   19.5579 C   0  0  0  0  0  0  0  0  0  0  0  0
    6.2232    6.4201   19.3330 C   0  0  0  0  0  0  0  0  0  0  0  0
    4.4162    3.3108   20.3194 N   0  0  0  0  0  0  0  0  0  0  0  0
    4.2361    2.6980   19.0318 C   0  0  0  0  0  0  0  0  0  0  0  0
    4.4281    1.4705   18.7935 O   0  0  0  0  0  0  0  0  0  0  0  0
    3.8164    3.6919   18.1052 N   0  0  0  0  0  0  0  0  0  0  0  0
    3.7447    4.9047   18.8364 C   0  0  0  0  0  0  0  0  0  0  0  0
    3.0612    5.9433   18.5322 O   0  0  0  0  0  0  0  0  0  0  0  0
    4.3722    2.6055   21.5659 C   0  0  0  0  0  0  0  0  0  0  0  0
    5.3478    2.7954   22.5155 C   0  0  0  0  0  0  0  0  0  0  0  0
    5.2583    2.0927   23.6957 C   0  0  0  0  0  0  0  0  0  0  0  0
    6.1493    2.2454   24.6019 O   0  0  0  0  0  0  0  0  0  0  0  0
    4.2390    1.2429   23.9080 N   0  0  0  0  0  0  0  0  0  0  0  0
    3.2766    1.0440   22.9921 C   0  0  0  0  0  0  0  0  0  0  0  0
    3.3843    1.7396   21.8500 N   0  0  0  0  0  0  0  0  0  0  0  0
    4.1637    0.7085   24.7972 H   0  0  0  0  0  0  0  0  0  0  0  0
    3.5111    3.5650   16.7323 C   0  0  0  0  0  0  0  0  0  0  0  0
    3.6215    2.3220   16.1442 C   0  0  0  0  0  0  0  0  0  0  0  0
    3.3427    2.1272   14.8174 C   0  0  0  0  0  0  0  0  0  0  0  0
    2.9301    3.1855   13.9909 C   0  0  0  0  0  0  0  0  0  0  0  0
    2.8236    4.4141   14.5828 C   0  0  0  0  0  0  0  0  0  0  0  0
    3.1088    4.6124   15.9388 C   0  0  0  0  0  0  0  0  0  0  0  0
    2.6664    2.9197   12.5906 C   0  0  0  0  0  0  0  0  0  0  0  0
    1.6438    2.0329   12.2325 C   0  0  0  0  0  0  0  0  0  0  0  0
    1.3714    1.7550   10.9245 C   0  0  0  0  0  0  0  0  0  0  0  0
    2.1161    2.3576    9.9186 C   0  0  0  0  0  0  0  0  0  0  0  0
    3.1185    3.2265   10.2640 C   0  0  0  0  0  0  0  0  0  0  0  0
    3.3874    3.5026   11.6045 C   0  0  0  0  0  0  0  0  0  0  0  0
    4.4706    4.4560   11.9090 C   0  0  0  0  0  0  0  0  0  0  0  0
    1.8458    2.0808    8.5094 C   0  0  0  0  0  0  0  0  0  0  0  0
    2.7895    2.3701    7.5361 O   0  0  0  0  0  0  0  0  0  0  0  0
    0.7139    1.5660    8.2136 O   0  0  0  0  0  0  0  0  0  0  0  0
    2.4926    2.3029    6.5616 H   0  0  0  0  0  0  0  0  0  0  0  0
    6.8501    6.6643   21.6624 C   0  0  0  0  0  0  0  0  0  0  0  0
    7.2880    8.9929   23.3116 C   0  0  0  0  0  0  0  0  0  0  0  0
    8.4265    8.3365   22.6001 C   0  0  0  0  0  0  0  0  0  0  0  0
    9.6993    8.8052   22.6906 C   0  0  0  0  0  0  0  0  0  0  0  0
   10.7683    8.2154   22.0430 C   0  0  0  0  0  0  0  0  0  0  0  0
   10.4995    7.0969   21.2739 C   0  0  0  0  0  0  0  0  0  0  0  0
    9.2385    6.6421   21.1910 N   0  0  0  0  0  0  0  0  0  0  0  0
    8.1935    7.1981   21.8091 C   0  0  0  0  0  0  0  0  0  0  0  0
 39 40  1  0  0  0
 40 41  2  0  0  0
 41 42  1  0  0  0
 42 43  2  0  0  0
 43 44  1  0  0  0
 44 45  2  0  0  0
 45 38  1  0  0  0
 38  1  1  0  0  0
  1  2  1  0  0  0
  2  3  1  0  0  0
  3  4  1  0  0  0
  4  5  1  0  0  0
  5  6  1  0  0  0
  4  7  1  0  0  0
  7  8  1  0  0  0
  8  9  2  0  0  0
  8 10  1  0  0  0
 10 11  1  0  0  0
 11 12  2  0  0  0
 10 21  1  0  0  0
 21 22  2  0  0  0
 22 23  1  0  0  0
 23 24  2  0  0  0
 24 25  1  0  0  0
 25 26  2  0  0  0
 24 27  1  0  0  0
 27 28  2  0  0  0
 28 29  1  0  0  0
 29 30  2  0  0  0
 30 31  1  0  0  0
 31 32  2  0  0  0
 32 33  1  0  0  0
 30 34  1  0  0  0
 34 35  1  0  0  0
 34 36  2  0  0  0
  7 13  1  0  0  0
 13 14  2  0  0  0
 14 15  1  0  0  0
 15 16  2  0  0  0
 15 17  1  0  0  0
 17 18  1  0  0  0
 18 19  2  0  0  0
 45 40  1  0  0  0
  6  1  1  0  0  0
 26 21  1  0  0  0
 32 27  1  0  0  0
 19 13  1  0  0  0
 11  4  1  0  0  0
 35 37  1  0  0  0
 17 20  1  0  0  0
M  END
> <minimizedAffinity>
-9.49084

> <CNNscore>
0.2007108480

> <CNNaffinity>
6.9839415550

> <CNN_VS>
1.4017528296

> <CNNaffinity_variance>
0.1077217087

$$$$
[H]OC(=O)c1c([H])c([H])c(-c2c([H])c([H])c(N3C(=O)N(c4nc([H])n([H])c(=O)c4[H])C4(C3=O)C([H])([H])C([H])([H])N(C([H])([H])c3nc([H])c([H])c([H])c3C([H])([H])[H])C([H])([H])C4([H])[H])c([H])c2[H])c(C([H])([H])[H])c1[H]


 45 50  0  0  0  0  0  0  0  0999 V2000
   -0.2397    5.4191    8.4914 N   0  0  0  0  0  0  0  0  0  0  0  0
   -0.1857    6.8967    8.5245 C   0  0  0  0  0  0  0  0  0  0  0  0
    1.2017    7.4258    8.4273 C   0  0  0  0  0  0  0  0  0  0  0  0
    2.1679    6.7352    9.3362 C   0  0  0  0  0  0  0  0  0  0  0  0
    2.0073    5.2298    9.3592 C   0  0  0  0  0  0  0  0  0  0  0  0
    0.5693    4.9138    9.5919 C   0  0  0  0  0  0  0  0  0  0  0  0
    3.5374    7.1077    9.0603 N   0  0  0  0  0  0  0  0  0  0  0  0
    4.2250    6.9177   10.3081 C   0  0  0  0  0  0  0  0  0  0  0  0
    5.4717    6.7311   10.4137 O   0  0  0  0  0  0  0  0  0  0  0  0
    3.2778    6.9763   11.3674 N   0  0  0  0  0  0  0  0  0  0  0  0
    2.0184    7.2010   10.7558 C   0  0  0  0  0  0  0  0  0  0  0  0
    0.9766    7.6987   11.3081 O   0  0  0  0  0  0  0  0  0  0  0  0
    4.1584    7.5717    7.8552 C   0  0  0  0  0  0  0  0  0  0  0  0
    4.6980    8.8341    7.7838 C   0  0  0  0  0  0  0  0  0  0  0  0
    5.2825    9.2303    6.6024 C   0  0  0  0  0  0  0  0  0  0  0  0
    5.7949   10.3989    6.5009 O   0  0  0  0  0  0  0  0  0  0  0  0
    5.3213    8.3982    5.5477 N   0  0  0  0  0  0  0  0  0  0  0  0
    4.7994    7.1614    5.5983 C   0  0  0  0  0  0  0  0  0  0  0  0
    4.2352    6.7969    6.7597 N   0  0  0  0  0  0  0  0  0  0  0  0
    5.7616    8.6896    4.6516 H   0  0  0  0  0  0  0  0  0  0  0  0
    3.4816    6.8520   12.7593 C   0  0  0  0  0  0  0  0  0  0  0  0
    3.6474    7.9995   13.5067 C   0  0  0  0  0  0  0  0  0  0  0  0
    3.8506    7.9525   14.8605 C   0  0  0  0  0  0  0  0  0  0  0  0
    3.8996    6.7316   15.5535 C   0  0  0  0  0  0  0  0  0  0  0  0
    3.7343    5.5993   14.8040 C   0  0  0  0  0  0  0  0  0  0  0  0
    3.5268    5.6482   13.4205 C   0  0  0  0  0  0  0  0  0  0  0  0
    4.1349    6.7462   16.9837 C   0  0  0  0  0  0  0  0  0  0  0  0
    5.0937    7.6135   17.5211 C   0  0  0  0  0  0  0  0  0  0  0  0
    5.3452    7.6501   18.8619 C   0  0  0  0  0  0  0  0  0  0  0  0
    4.6426    6.8152   19.7216 C   0  0  0  0  0  0  0  0  0  0  0  0
    3.7029    5.9641   19.2003 C   0  0  0  0  0  0  0  0  0  0  0  0
    3.4547    5.9360   17.8280 C   0  0  0  0  0  0  0  0  0  0  0  0
    2.4223    5.0068   17.3323 C   0  0  0  0  0  0  0  0  0  0  0  0
    4.8890    6.8338   21.1618 C   0  0  0  0  0  0  0  0  0  0  0  0
    3.9342    6.3653   22.0509 O   0  0  0  0  0  0  0  0  0  0  0  0
    6.0106    7.2958   21.5647 O   0  0  0  0  0  0  0  0  0  0  0  0
    4.0916    6.5436   23.0438 H   0  0  0  0  0  0  0  0  0  0  0  0
    0.1988    5.0198    7.1981 C   0  0  0  0  0  0  0  0  0  0  0  0
   -2.0364    5.4230    5.4162 C   0  0  0  0  0  0  0  0  0  0  0  0
   -1.5405    4.0461    5.7192 C   0  0  0  0  0  0  0  0  0  0  0  0
   -2.1172    2.9381    5.1827 C   0  0  0  0  0  0  0  0  0  0  0  0
   -1.6764    1.6551    5.4470 C   0  0  0  0  0  0  0  0  0  0  0  0
   -0.5957    1.5240    6.3012 C   0  0  0  0  0  0  0  0  0  0  0  0
   -0.0334    2.6251    6.8260 N   0  0  0  0  0  0  0  0  0  0  0  0
   -0.4449    3.8718    6.5824 C   0  0  0  0  0  0  0  0  0  0  0  0
 39 40  1  0  0  0
 40 41  2  0  0  0
 41 42  1  0  0  0
 42 43  2  0  0  0
 43 44  1  0  0  0
 44 45  2  0  0  0
 45 38  1  0  0  0
 38  1  1  0  0  0
  1  2  1  0  0  0
  2  3  1  0  0  0
  3  4  1  0  0  0
  4  5  1  0  0  0
  5  6  1  0  0  0
  4  7  1  0  0  0
  7  8  1  0  0  0
  8  9  2  0  0  0
  8 10  1  0  0  0
 10 11  1  0  0  0
 11 12  2  0  0  0
 10 21  1  0  0  0
 21 22  2  0  0  0
 22 23  1  0  0  0
 23 24  2  0  0  0
 24 25  1  0  0  0
 25 26  2  0  0  0
 24 27  1  0  0  0
 27 28  2  0  0  0
 28 29  1  0  0  0
 29 30  2  0  0  0
 30 31  1  0  0  0
 31 32  2  0  0  0
 32 33  1  0  0  0
 30 34  1  0  0  0
 34 35  1  0  0  0
 34 36  2  0  0  0
  7 13  1  0  0  0
 13 14  2  0  0  0
 14 15  1  0  0  0
 15 16  2  0  0  0
 15 17  1  0  0  0
 17 18  1  0  0  0
 18 19  2  0  0  0
 45 40  1  0  0  0
  6  1  1  0  0  0
 26 21  1  0  0  0
 32 27  1  0  0  0
 19 13  1  0  0  0
 11  4  1  0  0  0
 35 37  1  0  0  0
 17 20  1  0  0  0
M  END
> <minimizedAffinity>
-7.04359

> <CNNscore>
0.1860594898

> <CNNaffinity>
5.9198269844

> <CNN_VS>
1.1014399529

> <CNNaffinity_variance>
1.2041832209

$$$$
[H]OC(=O)c1c([H])c([H])c(-c2c([H])c([H])c(N3C(=O)N(c4nc([H])n([H])c(=O)c4[H])C4(C3=O)C([H])([H])C([H])([H])N(C([H])([H])c3nc([H])c([H])c([H])c3C([H])([H])[H])C([H])([H])C4([H])[H])c([H])c2[H])c(C([H])([H])[H])c1[H]


 45 50  0  0  0  0  0  0  0  0999 V2000
    5.2751    5.9512    8.1860 N   0  0  0  0  0  0  0  0  0  0  0  0
    4.6504    4.6753    7.7746 C   0  0  0  0  0  0  0  0  0  0  0  0
    3.2154    4.5854    8.1579 C   0  0  0  0  0  0  0  0  0  0  0  0
    2.9492    4.9953    9.5711 C   0  0  0  0  0  0  0  0  0  0  0  0
    3.6945    6.2451    9.9896 C   0  0  0  0  0  0  0  0  0  0  0  0
    5.1313    6.0786    9.6296 C   0  0  0  0  0  0  0  0  0  0  0  0
    1.5349    5.1168    9.8463 N   0  0  0  0  0  0  0  0  0  0  0  0
    1.4169    4.8777   11.2587 C   0  0  0  0  0  0  0  0  0  0  0  0
    0.4526    5.2806   11.9716 O   0  0  0  0  0  0  0  0  0  0  0  0
    2.5456    4.1297   11.6934 N   0  0  0  0  0  0  0  0  0  0  0  0
    3.3444    3.9193   10.5409 C   0  0  0  0  0  0  0  0  0  0  0  0
    4.2182    2.9993   10.3720 O   0  0  0  0  0  0  0  0  0  0  0  0
    0.4320    5.4043    8.9780 C   0  0  0  0  0  0  0  0  0  0  0  0
    0.1329    6.6993    8.6271 C   0  0  0  0  0  0  0  0  0  0  0  0
   -0.9375    6.9204    7.7905 C   0  0  0  0  0  0  0  0  0  0  0  0
   -1.2440    8.1136    7.4433 O   0  0  0  0  0  0  0  0  0  0  0  0
   -1.6685    5.8903    7.3312 N   0  0  0  0  0  0  0  0  0  0  0  0
   -1.3918    4.6184    7.6631 C   0  0  0  0  0  0  0  0  0  0  0  0
   -0.3443    4.4270    8.4792 N   0  0  0  0  0  0  0  0  0  0  0  0
   -2.4784    6.0487    6.6982 H   0  0  0  0  0  0  0  0  0  0  0  0
    2.8634    3.6568   12.9855 C   0  0  0  0  0  0  0  0  0  0  0  0
    3.4178    4.5365   13.8920 C   0  0  0  0  0  0  0  0  0  0  0  0
    3.7518    4.1453   15.1614 C   0  0  0  0  0  0  0  0  0  0  0  0
    3.5450    2.8275   15.6017 C   0  0  0  0  0  0  0  0  0  0  0  0
    2.9949    1.9624   14.6961 C   0  0  0  0  0  0  0  0  0  0  0  0
    2.6539    2.3631   13.3988 C   0  0  0  0  0  0  0  0  0  0  0  0
    3.9349    2.4698   16.9512 C   0  0  0  0  0  0  0  0  0  0  0  0
    4.7167    3.3531   17.7055 C   0  0  0  0  0  0  0  0  0  0  0  0
    5.1067    3.0468   18.9769 C   0  0  0  0  0  0  0  0  0  0  0  0
    4.7270    1.8377   19.5457 C   0  0  0  0  0  0  0  0  0  0  0  0
    3.9617    0.9694   18.8112 C   0  0  0  0  0  0  0  0  0  0  0  0
    3.5692    1.2938   17.5127 C   0  0  0  0  0  0  0  0  0  0  0  0
    2.7360    0.3219   16.7804 C   0  0  0  0  0  0  0  0  0  0  0  0
    5.1279    1.4836   20.9056 C   0  0  0  0  0  0  0  0  0  0  0  0
    6.4584    1.5415   21.2905 O   0  0  0  0  0  0  0  0  0  0  0  0
    4.2102    1.1213   21.7182 O   0  0  0  0  0  0  0  0  0  0  0  0
    6.7016    1.1380   22.1963 H   0  0  0  0  0  0  0  0  0  0  0  0
    4.6450    6.9802    7.4320 C   0  0  0  0  0  0  0  0  0  0  0  0
    4.1064    9.8138    7.5528 C   0  0  0  0  0  0  0  0  0  0  0  0
    5.2402    9.2866    6.7342 C   0  0  0  0  0  0  0  0  0  0  0  0
    6.0514   10.1061    6.0144 C   0  0  0  0  0  0  0  0  0  0  0  0
    7.1062    9.6427    5.2509 C   0  0  0  0  0  0  0  0  0  0  0  0
    7.3218    8.2758    5.2383 C   0  0  0  0  0  0  0  0  0  0  0  0
    6.5143    7.4750    5.9529 N   0  0  0  0  0  0  0  0  0  0  0  0
    5.4912    7.9040    6.6960 C   0  0  0  0  0  0  0  0  0  0  0  0
 39 40  1  0  0  0
 40 41  2  0  0  0
 41 42  1  0  0  0
 42 43  2  0  0  0
 43 44  1  0  0  0
 44 45  2  0  0  0
 45 38  1  0  0  0
 38  1  1  0  0  0
  1  2  1  0  0  0
  2  3  1  0  0  0
  3  4  1  0  0  0
  4  5  1  0  0  0
  5  6  1  0  0  0
  4  7  1  0  0  0
  7  8  1  0  0  0
  8  9  2  0  0  0
  8 10  1  0  0  0
 10 11  1  0  0  0
 11 12  2  0  0  0
 10 21  1  0  0  0
 21 22  2  0  0  0
 22 23  1  0  0  0
 23 24  2  0  0  0
 24 25  1  0  0  0
 25 26  2  0  0  0
 24 27  1  0  0  0
 27 28  2  0  0  0
 28 29  1  0  0  0
 29 30  2  0  0  0
 30 31  1  0  0  0
 31 32  2  0  0  0
 32 33  1  0  0  0
 30 34  1  0  0  0
 34 35  1  0  0  0
 34 36  2  0  0  0
  7 13  1  0  0  0
 13 14  2  0  0  0
 14 15  1  0  0  0
 15 16  2  0  0  0
 15 17  1  0  0  0
 17 18  1  0  0  0
 18 19  2  0  0  0
 45 40  1  0  0  0
  6  1  1  0  0  0
 26 21  1  0  0  0
 32 27  1  0  0  0
 19 13  1  0  0  0
 11  4  1  0  0  0
 35 37  1  0  0  0
 17 20  1  0  0  0
M  END
> <minimizedAffinity>
-9.60453

> <CNNscore>
0.1367976069

> <CNNaffinity>
6.1997003555

> <CNN_VS>
0.8481041789

> <CNNaffinity_variance>
0.1497031003

$$$$
[H]OC(=O)c1c([H])c([H])c(-c2c([H])c([H])c(N3C(=O)N(c4nc([H])n([H])c(=O)c4[H])C4(C3=O)C([H])([H])C([H])([H])N(C([H])([H])c3nc([H])c([H])c([H])c3C([H])([H])[H])C([H])([H])C4([H])[H])c([H])c2[H])c(C([H])([H])[H])c1[H]


 45 50  0  0  0  0  0  0  0  0999 V2000
    6.6100    7.5871   20.8573 N   0  0  0  0  0  0  0  0  0  0  0  0
    5.2343    7.5074   21.3945 C   0  0  0  0  0  0  0  0  0  0  0  0
    4.6736    6.1300   21.3428 C   0  0  0  0  0  0  0  0  0  0  0  0
    4.8809    5.4512   20.0266 C   0  0  0  0  0  0  0  0  0  0  0  0
    6.2691    5.6491   19.4553 C   0  0  0  0  0  0  0  0  0  0  0  0
    6.5859    7.1054   19.4832 C   0  0  0  0  0  0  0  0  0  0  0  0
    4.5343    4.0484   20.0761 N   0  0  0  0  0  0  0  0  0  0  0  0
    4.1733    3.7145   18.7255 C   0  0  0  0  0  0  0  0  0  0  0  0
    4.2039    2.5433   18.2484 O   0  0  0  0  0  0  0  0  0  0  0  0
    3.7880    4.9031   18.0464 N   0  0  0  0  0  0  0  0  0  0  0  0
    3.9183    5.9538   18.9896 C   0  0  0  0  0  0  0  0  0  0  0  0
    3.3320    7.0911   18.9553 O   0  0  0  0  0  0  0  0  0  0  0  0
    4.5215    3.1237   21.1706 C   0  0  0  0  0  0  0  0  0  0  0  0
    5.5480    3.1026   22.0847 C   0  0  0  0  0  0  0  0  0  0  0  0
    5.4867    2.1942   23.1171 C   0  0  0  0  0  0  0  0  0  0  0  0
    6.4251    2.1473   23.9862 O   0  0  0  0  0  0  0  0  0  0  0  0
    4.4454    1.3511   23.2230 N   0  0  0  0  0  0  0  0  0  0  0  0
    3.4334    1.3567   22.3396 C   0  0  0  0  0  0  0  0  0  0  0  0
    3.5144    2.2503   21.3422 N   0  0  0  0  0  0  0  0  0  0  0  0
    4.3912    0.6622   24.0003 H   0  0  0  0  0  0  0  0  0  0  0  0
    3.3501    5.0721   16.7144 C   0  0  0  0  0  0  0  0  0  0  0  0
    3.9850    6.0086   15.9252 C   0  0  0  0  0  0  0  0  0  0  0  0
    3.6112    6.2256   14.6255 C   0  0  0  0  0  0  0  0  0  0  0  0
    2.5620    5.5035   14.0331 C   0  0  0  0  0  0  0  0  0  0  0  0
    1.9384    4.5772   14.8233 C   0  0  0  0  0  0  0  0  0  0  0  0
    2.3211    4.3561   16.1515 C   0  0  0  0  0  0  0  0  0  0  0  0
    2.2017    5.7907   12.6588 C   0  0  0  0  0  0  0  0  0  0  0  0
    2.9810    5.2781   11.6147 C   0  0  0  0  0  0  0  0  0  0  0  0
    2.6746    5.5327   10.3095 C   0  0  0  0  0  0  0  0  0  0  0  0
    1.5697    6.3145    9.9971 C   0  0  0  0  0  0  0  0  0  0  0  0
    0.8035    6.8189   11.0157 C   0  0  0  0  0  0  0  0  0  0  0  0
    1.1268    6.5516   12.3460 C   0  0  0  0  0  0  0  0  0  0  0  0
    0.2550    7.1133   13.3944 C   0  0  0  0  0  0  0  0  0  0  0  0
    1.2160    6.6022    8.6087 C   0  0  0  0  0  0  0  0  0  0  0  0
    0.6372    7.8127    8.2605 O   0  0  0  0  0  0  0  0  0  0  0  0
    1.4597    5.7002    7.7365 O   0  0  0  0  0  0  0  0  0  0  0  0
    0.2701    7.9002    7.3118 H   0  0  0  0  0  0  0  0  0  0  0  0
    7.4397    6.8368   21.7366 C   0  0  0  0  0  0  0  0  0  0  0  0
   10.0862    6.7659   20.5855 C   0  0  0  0  0  0  0  0  0  0  0  0
    9.8288    7.4975   21.8631 C   0  0  0  0  0  0  0  0  0  0  0  0
   10.8174    8.1460   22.5339 C   0  0  0  0  0  0  0  0  0  0  0  0
   10.6042    8.8297   23.7160 C   0  0  0  0  0  0  0  0  0  0  0  0
    9.3136    8.8368   24.2154 C   0  0  0  0  0  0  0  0  0  0  0  0
    8.3443    8.1928   23.5449 N   0  0  0  0  0  0  0  0  0  0  0  0
    8.5310    7.5275   22.4022 C   0  0  0  0  0  0  0  0  0  0  0  0
 39 40  1  0  0  0
 40 41  2  0  0  0
 41 42  1  0  0  0
 42 43  2  0  0  0
 43 44  1  0  0  0
 44 45  2  0  0  0
 45 38  1  0  0  0
 38  1  1  0  0  0
  1  2  1  0  0  0
  2  3  1  0  0  0
  3  4  1  0  0  0
  4  5  1  0  0  0
  5  6  1  0  0  0
  4  7  1  0  0  0
  7  8  1  0  0  0
  8  9  2  0  0  0
  8 10  1  0  0  0
 10 11  1  0  0  0
 11 12  2  0  0  0
 10 21  1  0  0  0
 21 22  2  0  0  0
 22 23  1  0  0  0
 23 24  2  0  0  0
 24 25  1  0  0  0
 25 26  2  0  0  0
 24 27  1  0  0  0
 27 28  2  0  0  0
 28 29  1  0  0  0
 29 30  2  0  0  0
 30 31  1  0  0  0
 31 32  2  0  0  0
 32 33  1  0  0  0
 30 34  1  0  0  0
 34 35  1  0  0  0
 34 36  2  0  0  0
  7 13  1  0  0  0
 13 14  2  0  0  0
 14 15  1  0  0  0
 15 16  2  0  0  0
 15 17  1  0  0  0
 17 18  1  0  0  0
 18 19  2  0  0  0
 45 40  1  0  0  0
  6  1  1  0  0  0
 26 21  1  0  0  0
 32 27  1  0  0  0
 19 13  1  0  0  0
 11  4  1  0  0  0
 35 37  1  0  0  0
 17 20  1  0  0  0
M  END
> <minimizedAffinity>
-8.81025

> <CNNscore>
0.1359795034

> <CNNaffinity>
6.5953292847

> <CNN_VS>
0.8968296051

> <CNNaffinity_variance>
0.1730023324

$$$$
[H]OC(=O)c1c([H])c([H])c(-c2c([H])c([H])c(N3C(=O)N(c4nc([H])n([H])c(=O)c4[H])C4(C3=O)C([H])([H])C([H])([H])N(C([H])([H])c3nc([H])c([H])c([H])c3C([H])([H])[H])C([H])([H])C4([H])[H])c([H])c2[H])c(C([H])([H])[H])c1[H]


 45 50  0  0  0  0  0  0  0  0999 V2000
    0.5013    5.4972    9.0278 N   0  0  0  0  0  0  0  0  0  0  0  0
    0.4761    6.9566    8.7891 C   0  0  0  0  0  0  0  0  0  0  0  0
    1.8341    7.5330    8.5950 C   0  0  0  0  0  0  0  0  0  0  0  0
    2.8277    7.0739    9.6139 C   0  0  0  0  0  0  0  0  0  0  0  0
    2.7475    5.5918    9.9129 C   0  0  0  0  0  0  0  0  0  0  0  0
    1.3264    5.2465   10.2013 C   0  0  0  0  0  0  0  0  0  0  0  0
    4.1778    7.4631    9.2727 N   0  0  0  0  0  0  0  0  0  0  0  0
    4.8635    7.5424   10.5334 C   0  0  0  0  0  0  0  0  0  0  0  0
    6.1175    7.4459   10.6700 O   0  0  0  0  0  0  0  0  0  0  0  0
    3.9054    7.7428   11.5651 N   0  0  0  0  0  0  0  0  0  0  0  0
    2.6412    7.7832   10.9241 C   0  0  0  0  0  0  0  0  0  0  0  0
    1.5695    8.3166   11.3770 O   0  0  0  0  0  0  0  0  0  0  0  0
    4.7836    7.7313    8.0022 C   0  0  0  0  0  0  0  0  0  0  0  0
    5.1433    9.0109    7.6514 C   0  0  0  0  0  0  0  0  0  0  0  0
    5.7214    9.2138    6.4189 C   0  0  0  0  0  0  0  0  0  0  0  0
    6.0688   10.3922    6.0599 O   0  0  0  0  0  0  0  0  0  0  0  0
    5.9266    8.1813    5.5833 N   0  0  0  0  0  0  0  0  0  0  0  0
    5.5818    6.9243    5.9083 C   0  0  0  0  0  0  0  0  0  0  0  0
    5.0202    6.7505    7.1143 N   0  0  0  0  0  0  0  0  0  0  0  0
    6.3634    8.3259    4.6506 H   0  0  0  0  0  0  0  0  0  0  0  0
    4.1033    7.8868   12.9559 C   0  0  0  0  0  0  0  0  0  0  0  0
    3.5294    6.9616   13.8031 C   0  0  0  0  0  0  0  0  0  0  0  0
    3.6792    7.0414   15.1622 C   0  0  0  0  0  0  0  0  0  0  0  0
    4.4258    8.0706   15.7593 C   0  0  0  0  0  0  0  0  0  0  0  0
    4.9910    8.9832   14.9114 C   0  0  0  0  0  0  0  0  0  0  0  0
    4.8374    8.9010   13.5225 C   0  0  0  0  0  0  0  0  0  0  0  0
    4.5335    8.1111   17.2042 C   0  0  0  0  0  0  0  0  0  0  0  0
    3.8813    9.1213   17.9214 C   0  0  0  0  0  0  0  0  0  0  0  0
    3.9653    9.1933   19.2816 C   0  0  0  0  0  0  0  0  0  0  0  0
    4.7096    8.2515   19.9805 C   0  0  0  0  0  0  0  0  0  0  0  0
    5.3502    7.2605   19.2830 C   0  0  0  0  0  0  0  0  0  0  0  0
    5.2568    7.1973   17.8927 C   0  0  0  0  0  0  0  0  0  0  0  0
    5.9592    6.0992   17.2030 C   0  0  0  0  0  0  0  0  0  0  0  0
    4.8159    8.3023   21.4371 C   0  0  0  0  0  0  0  0  0  0  0  0
    4.4028    7.2326   22.2161 O   0  0  0  0  0  0  0  0  0  0  0  0
    5.3006    9.3637   21.9588 O   0  0  0  0  0  0  0  0  0  0  0  0
    4.3539    7.3798   23.2252 H   0  0  0  0  0  0  0  0  0  0  0  0
    0.9717    4.8919    7.8291 C   0  0  0  0  0  0  0  0  0  0  0  0
    3.3019    3.4464    6.9264 C   0  0  0  0  0  0  0  0  0  0  0  0
    2.0452    2.7212    7.2849 C   0  0  0  0  0  0  0  0  0  0  0  0
    1.9432    1.3686    7.1953 C   0  0  0  0  0  0  0  0  0  0  0  0
    0.7927    0.6756    7.5215 C   0  0  0  0  0  0  0  0  0  0  0  0
   -0.2892    1.4206    7.9566 C   0  0  0  0  0  0  0  0  0  0  0  0
   -0.1779    2.7564    8.0413 N   0  0  0  0  0  0  0  0  0  0  0  0
    0.9245    3.4430    7.7309 C   0  0  0  0  0  0  0  0  0  0  0  0
 39 40  1  0  0  0
 40 41  2  0  0  0
 41 42  1  0  0  0
 42 43  2  0  0  0
 43 44  1  0  0  0
 44 45  2  0  0  0
 45 38  1  0  0  0
 38  1  1  0  0  0
  1  2  1  0  0  0
  2  3  1  0  0  0
  3  4  1  0  0  0
  4  5  1  0  0  0
  5  6  1  0  0  0
  4  7  1  0  0  0
  7  8  1  0  0  0
  8  9  2  0  0  0
  8 10  1  0  0  0
 10 11  1  0  0  0
 11 12  2  0  0  0
 10 21  1  0  0  0
 21 22  2  0  0  0
 22 23  1  0  0  0
 23 24  2  0  0  0
 24 25  1  0  0  0
 25 26  2  0  0  0
 24 27  1  0  0  0
 27 28  2  0  0  0
 28 29  1  0  0  0
 29 30  2  0  0  0
 30 31  1  0  0  0
 31 32  2  0  0  0
 32 33  1  0  0  0
 30 34  1  0  0  0
 34 35  1  0  0  0
 34 36  2  0  0  0
  7 13  1  0  0  0
 13 14  2  0  0  0
 14 15  1  0  0  0
 15 16  2  0  0  0
 15 17  1  0  0  0
 17 18  1  0  0  0
 18 19  2  0  0  0
 45 40  1  0  0  0
  6  1  1  0  0  0
 26 21  1  0  0  0
 32 27  1  0  0  0
 19 13  1  0  0  0
 11  4  1  0  0  0
 35 37  1  0  0  0
 17 20  1  0  0  0
M  END
> <minimizedAffinity>
-7.45933

> <CNNscore>
0.1354340911

> <CNNaffinity>
5.8311777115

> <CNN_VS>
0.7897402644

> <CNNaffinity_variance>
1.2493941784

$$$$
[H]OC(=O)c1c([H])c([H])c(-c2c([H])c([H])c(N3C(=O)N(c4nc([H])n([H])c(=O)c4[H])C4(C3=O)C([H])([H])C([H])([H])N(C([H])([H])c3nc([H])c([H])c([H])c3C([H])([H])[H])C([H])([H])C4([H])[H])c([H])c2[H])c(C([H])([H])[H])c1[H]


 45 50  0  0  0  0  0  0  0  0999 V2000
    5.3143    6.4928    6.0277 N   0  0  0  0  0  0  0  0  0  0  0  0
    4.1412    5.6537    5.7003 C   0  0  0  0  0  0  0  0  0  0  0  0
    2.8812    6.1613    6.3077 C   0  0  0  0  0  0  0  0  0  0  0  0
    3.0193    6.5228    7.7522 C   0  0  0  0  0  0  0  0  0  0  0  0
    4.2888    7.2856    8.0667 C   0  0  0  0  0  0  0  0  0  0  0  0
    5.4405    6.5451    7.4775 C   0  0  0  0  0  0  0  0  0  0  0  0
    1.8561    7.2203    8.2532 N   0  0  0  0  0  0  0  0  0  0  0  0
    1.8392    6.9354    9.6619 C   0  0  0  0  0  0  0  0  0  0  0  0
    1.2593    7.6529   10.5273 O   0  0  0  0  0  0  0  0  0  0  0  0
    2.5700    5.7381    9.8966 N   0  0  0  0  0  0  0  0  0  0  0  0
    3.0280    5.3026    8.6272 C   0  0  0  0  0  0  0  0  0  0  0  0
    3.3741    4.1134    8.3044 O   0  0  0  0  0  0  0  0  0  0  0  0
    0.8858    8.0305    7.5785 C   0  0  0  0  0  0  0  0  0  0  0  0
    1.2443    9.2302    7.0110 C   0  0  0  0  0  0  0  0  0  0  0  0
    0.2732    9.9698    6.3752 C   0  0  0  0  0  0  0  0  0  0  0  0
    0.5721   11.0914    5.8356 O   0  0  0  0  0  0  0  0  0  0  0  0
   -0.9933    9.5241    6.3141 N   0  0  0  0  0  0  0  0  0  0  0  0
   -1.3626    8.3548    6.8627 C   0  0  0  0  0  0  0  0  0  0  0  0
   -0.3996    7.6511    7.4769 N   0  0  0  0  0  0  0  0  0  0  0  0
   -1.7329   10.0765    5.8351 H   0  0  0  0  0  0  0  0  0  0  0  0
    2.8201    5.0650   11.1126 C   0  0  0  0  0  0  0  0  0  0  0  0
    1.7452    4.6110   11.8484 C   0  0  0  0  0  0  0  0  0  0  0  0
    1.9147    3.9519   13.0371 C   0  0  0  0  0  0  0  0  0  0  0  0
    3.1933    3.7061   13.5643 C   0  0  0  0  0  0  0  0  0  0  0  0
    4.2530    4.1600   12.8278 C   0  0  0  0  0  0  0  0  0  0  0  0
    4.0789    4.8335   11.6131 C   0  0  0  0  0  0  0  0  0  0  0  0
    3.3073    3.0188   14.8354 C   0  0  0  0  0  0  0  0  0  0  0  0
    2.9762    1.6612   14.9231 C   0  0  0  0  0  0  0  0  0  0  0  0
    3.0663    0.9838   16.1043 C   0  0  0  0  0  0  0  0  0  0  0  0
    3.4940    1.6428   17.2500 C   0  0  0  0  0  0  0  0  0  0  0  0
    3.8193    2.9720   17.1693 C   0  0  0  0  0  0  0  0  0  0  0  0
    3.7231    3.6536   15.9562 C   0  0  0  0  0  0  0  0  0  0  0  0
    4.0999    5.0792   15.9338 C   0  0  0  0  0  0  0  0  0  0  0  0
    3.6023    0.9428   18.5282 C   0  0  0  0  0  0  0  0  0  0  0  0
    2.7506   -0.1066   18.8364 O   0  0  0  0  0  0  0  0  0  0  0  0
    4.5058    1.3344   19.3431 O   0  0  0  0  0  0  0  0  0  0  0  0
    2.7659   -0.4554   19.7958 H   0  0  0  0  0  0  0  0  0  0  0  0
    5.1061    7.7539    5.4025 C   0  0  0  0  0  0  0  0  0  0  0  0
    6.0411   10.3487    6.2547 C   0  0  0  0  0  0  0  0  0  0  0  0
    6.6946    9.6389    5.1133 C   0  0  0  0  0  0  0  0  0  0  0  0
    7.7382   10.1800    4.4307 C   0  0  0  0  0  0  0  0  0  0  0  0
    8.3592    9.5432    3.3729 C   0  0  0  0  0  0  0  0  0  0  0  0
    7.8737    8.2977    3.0149 C   0  0  0  0  0  0  0  0  0  0  0  0
    6.8421    7.7723    3.6957 N   0  0  0  0  0  0  0  0  0  0  0  0
    6.2299    8.3720    4.7197 C   0  0  0  0  0  0  0  0  0  0  0  0
 39 40  1  0  0  0
 40 41  2  0  0  0
 41 42  1  0  0  0
 42 43  2  0  0  0
 43 44  1  0  0  0
 44 45  2  0  0  0
 45 38  1  0  0  0
 38  1  1  0  0  0
  1  2  1  0  0  0
  2  3  1  0  0  0
  3  4  1  0  0  0
  4  5  1  0  0  0
  5  6  1  0  0  0
  4  7  1  0  0  0
  7  8  1  0  0  0
  8  9  2  0  0  0
  8 10  1  0  0  0
 10 11  1  0  0  0
 11 12  2  0  0  0
 10 21  1  0  0  0
 21 22  2  0  0  0
 22 23  1  0  0  0
 23 24  2  0  0  0
 24 25  1  0  0  0
 25 26  2  0  0  0
 24 27  1  0  0  0
 27 28  2  0  0  0
 28 29  1  0  0  0
 29 30  2  0  0  0
 30 31  1  0  0  0
 31 32  2  0  0  0
 32 33  1  0  0  0
 30 34  1  0  0  0
 34 35  1  0  0  0
 34 36  2  0  0  0
  7 13  1  0  0  0
 13 14  2  0  0  0
 14 15  1  0  0  0
 15 16  2  0  0  0
 15 17  1  0  0  0
 17 18  1  0  0  0
 18 19  2  0  0  0
 45 40  1  0  0  0
  6  1  1  0  0  0
 26 21  1  0  0  0
 32 27  1  0  0  0
 19 13  1  0  0  0
 11  4  1  0  0  0
 35 37  1  0  0  0
 17 20  1  0  0  0
M  END
> <minimizedAffinity>
-9.49792

> <CNNscore>
0.1154728681

> <CNNaffinity>
5.6617631912

> <CNN_VS>
0.6537800431

> <CNNaffinity_variance>
0.1652434766

$$$$
[H]C1=C([H])C([H])(F)C([H])([H])C([H])=C1N([H])C(=O)C1(C(=O)N([H])c2c([H])c([H])c(Oc3c([H])c([H])nc4c([H])c(OC([H])([H])C([H])([H])C([H])([H])N5C([H])([H])C([H])([H])C([H])([H])C([H])([H])C5([H])[H])c(OC([H])([H])[H])c([H])c34)c(F)c2[H])C([H])([H])C1([H])[H]


 48 53  0  0  0  0  0  0  0  0999 V2000
    4.9552    2.1358   21.2107 C   0  0  0  0  0  0  0  0  0  0  0  0
    3.9856    3.1121   21.2979 C   0  0  0  0  0  0  0  0  0  0  0  0
    4.2778    4.3485   21.8753 C   0  0  0  0  0  0  0  0  0  0  0  0
    5.5060    4.6536   22.3731 C   0  0  0  0  0  0  0  0  0  0  0  0
    6.4789    3.6712   22.2848 C   0  0  0  0  0  0  0  0  0  0  0  0
    6.2011    2.4465   21.7169 C   0  0  0  0  0  0  0  0  0  0  0  0
    7.2075    1.5136   21.6890 F   0  0  0  0  0  0  0  0  0  0  0  0
    5.8559    5.8812   23.0037 N   0  0  0  0  0  0  0  0  0  0  0  0
    6.5441    6.9012   22.3567 C   0  0  0  0  0  0  0  0  0  0  0  0
    6.8221    6.6767   21.1133 O   0  0  0  0  0  0  0  0  0  0  0  0
    5.5065    5.9426   24.0007 H   0  0  0  0  0  0  0  0  0  0  0  0
    7.0062    8.2146   22.8605 C   0  0  0  0  0  0  0  0  0  0  0  0
    7.1423    8.3278   24.3496 C   0  0  0  0  0  0  0  0  0  0  0  0
    8.3525    8.1041   23.5376 C   0  0  0  0  0  0  0  0  0  0  0  0
    6.6840    9.4983   22.2176 C   0  0  0  0  0  0  0  0  0  0  0  0
    6.4043   10.4447   23.0773 O   0  0  0  0  0  0  0  0  0  0  0  0
    6.6335    9.8204   20.8689 N   0  0  0  0  0  0  0  0  0  0  0  0
    6.7899    9.1107   20.1329 H   0  0  0  0  0  0  0  0  0  0  0  0
    6.3104   11.1411   20.4063 C   0  0  0  0  0  0  0  0  0  0  0  0
    7.2232   12.0893   20.3329 C   0  0  0  0  0  0  0  0  0  0  0  0
    6.9052   13.4541   19.8597 C   0  0  0  0  0  0  0  0  0  0  0  0
    5.5220   13.7060   19.4252 C   0  0  0  0  0  0  0  0  0  0  0  0
    5.5573   14.1538   18.0912 F   0  0  0  0  0  0  0  0  0  0  0  0
    4.5903   12.5840   19.5512 C   0  0  0  0  0  0  0  0  0  0  0  0
    4.9506   11.4075   20.0006 C   0  0  0  0  0  0  0  0  0  0  0  0
    4.6898    0.9005   20.6441 O   0  0  0  0  0  0  0  0  0  0  0  0
    5.0068    3.1192   17.1769 C   0  0  0  0  0  0  0  0  0  0  0  0
    4.9039    2.3799   18.3353 C   0  0  0  0  0  0  0  0  0  0  0  0
    3.9100    1.4324   18.4870 C   0  0  0  0  0  0  0  0  0  0  0  0
    3.7842    0.6658   19.6544 C   0  0  0  0  0  0  0  0  0  0  0  0
    2.7877   -0.2743   19.7833 C   0  0  0  0  0  0  0  0  0  0  0  0
    1.8916   -0.4691   18.7466 C   0  0  0  0  0  0  0  0  0  0  0  0
    2.0152    0.2676   17.6304 N   0  0  0  0  0  0  0  0  0  0  0  0
    2.9896    1.1926   17.4912 C   0  0  0  0  0  0  0  0  0  0  0  0
    3.1049    1.9459   16.3280 C   0  0  0  0  0  0  0  0  0  0  0  0
    4.1007    2.9026   16.1627 C   0  0  0  0  0  0  0  0  0  0  0  0
    5.9926    5.2662   17.7869 C   0  0  0  0  0  0  0  0  0  0  0  0
    6.0047    4.0736   17.0177 O   0  0  0  0  0  0  0  0  0  0  0  0
    4.2195    3.6571   15.0051 O   0  0  0  0  0  0  0  0  0  0  0  0
    3.0819    4.4062   14.5997 C   0  0  0  0  0  0  0  0  0  0  0  0
    2.8273    5.4929   15.6338 C   0  0  0  0  0  0  0  0  0  0  0  0
    3.6567    6.6840   15.2789 C   0  0  0  0  0  0  0  0  0  0  0  0
    3.3725    7.1188   13.9463 N   0  0  0  0  0  0  0  0  0  0  0  0
    2.2391    8.0466   13.9533 C   0  0  0  0  0  0  0  0  0  0  0  0
    2.6696    9.4552   13.7043 C   0  0  0  0  0  0  0  0  0  0  0  0
    3.9664    9.8338   14.3876 C   0  0  0  0  0  0  0  0  0  0  0  0
    5.0689    8.8648   14.1193 C   0  0  0  0  0  0  0  0  0  0  0  0
    4.5175    7.7255   13.3060 C   0  0  0  0  0  0  0  0  0  0  0  0
 37 38  1  0  0  0
 38 27  1  0  0  0
 27 28  2  0  0  0
 28 29  1  0  0  0
 29 30  2  0  0  0
 30 26  1  0  0  0
 26  1  1  0  0  0
  1  2  2  0  0  0
  2  3  1  0  0  0
  3  4  2  0  0  0
  4  8  1  0  0  0
  8  9  1  0  0  0
  9 10  2  0  0  0
  9 12  1  0  0  0
 12 13  1  0  0  0
 13 14  1  0  0  0
 12 15  1  0  0  0
 15 16  2  0  0  0
 15 17  1  0  0  0
 17 19  1  0  0  0
 19 20  2  0  0  0
 20 21  1  0  0  0
 21 22  1  0  0  0
 22 23  1  0  0  0
 22 24  1  0  0  0
 24 25  2  0  0  0
  4  5  1  0  0  0
  5  6  2  0  0  0
  6  7  1  0  0  0
 30 31  1  0  0  0
 31 32  2  0  0  0
 32 33  1  0  0  0
 33 34  2  0  0  0
 34 35  1  0  0  0
 35 36  2  0  0  0
 36 39  1  0  0  0
 39 40  1  0  0  0
 40 41  1  0  0  0
 41 42  1  0  0  0
 42 43  1  0  0  0
 43 44  1  0  0  0
 44 45  1  0  0  0
 45 46  1  0  0  0
 46 47  1  0  0  0
 47 48  1  0  0  0
 36 27  1  0  0  0
 48 43  1  0  0  0
 34 29  1  0  0  0
  6  1  1  0  0  0
 14 12  1  0  0  0
 25 19  1  0  0  0
  8 11  1  0  0  0
 17 18  1  0  0  0
M  END
> <minimizedAffinity>
-9.26700

> <CNNscore>
0.6549619436

> <CNNaffinity>
7.8260850906

> <CNN_VS>
5.1257877350

> <CNNaffinity_variance>
0.1685351878

$$$$
[H]C1=C([H])C([H])(F)C([H])([H])C([H])=C1N([H])C(=O)C1(C(=O)N([H])c2c([H])c([H])c(Oc3c([H])c([H])nc4c([H])c(OC([H])([H])C([H])([H])C([H])([H])N5C([H])([H])C([H])([H])C([H])([H])C([H])([H])C5([H])[H])c(OC([H])([H])[H])c([H])c34)c(F)c2[H])C([H])([H])C1([H])[H]


 48 53  0  0  0  0  0  0  0  0999 V2000
    4.0243    1.8560   17.2691 C   0  0  0  0  0  0  0  0  0  0  0  0
    4.5824    2.9177   16.5894 C   0  0  0  0  0  0  0  0  0  0  0  0
    3.9466    3.4512   15.4676 C   0  0  0  0  0  0  0  0  0  0  0  0
    2.7685    2.9659   14.9921 C   0  0  0  0  0  0  0  0  0  0  0  0
    2.2094    1.8990   15.6763 C   0  0  0  0  0  0  0  0  0  0  0  0
    2.8290    1.3640   16.7851 C   0  0  0  0  0  0  0  0  0  0  0  0
    2.2292    0.2907   17.3950 F   0  0  0  0  0  0  0  0  0  0  0  0
    2.0896    3.4432   13.8353 N   0  0  0  0  0  0  0  0  0  0  0  0
    1.6527    4.7555   13.6952 C   0  0  0  0  0  0  0  0  0  0  0  0
    1.9366    5.5398   14.6842 O   0  0  0  0  0  0  0  0  0  0  0  0
    1.9861    2.7020   13.0871 H   0  0  0  0  0  0  0  0  0  0  0  0
    0.9179    5.4076   12.5874 C   0  0  0  0  0  0  0  0  0  0  0  0
    1.3582    6.8000   12.2468 C   0  0  0  0  0  0  0  0  0  0  0  0
    1.8231    5.6797   11.4086 C   0  0  0  0  0  0  0  0  0  0  0  0
   -0.5053    5.1722   12.2977 C   0  0  0  0  0  0  0  0  0  0  0  0
   -0.9311    4.0140   12.7337 O   0  0  0  0  0  0  0  0  0  0  0  0
   -1.4173    5.9858   11.6406 N   0  0  0  0  0  0  0  0  0  0  0  0
   -1.1388    6.8900   11.2227 H   0  0  0  0  0  0  0  0  0  0  0  0
   -2.7892    5.6051   11.4514 C   0  0  0  0  0  0  0  0  0  0  0  0
   -3.1329    4.6671   10.5913 C   0  0  0  0  0  0  0  0  0  0  0  0
   -4.5413    4.2652   10.3847 C   0  0  0  0  0  0  0  0  0  0  0  0
   -5.5554    4.9293   11.2190 C   0  0  0  0  0  0  0  0  0  0  0  0
   -6.2513    3.9368   11.9346 F   0  0  0  0  0  0  0  0  0  0  0  0
   -5.0641    5.9566   12.1389 C   0  0  0  0  0  0  0  0  0  0  0  0
   -3.7962    6.2671   12.2465 C   0  0  0  0  0  0  0  0  0  0  0  0
    4.6364    1.3077   18.3836 O   0  0  0  0  0  0  0  0  0  0  0  0
    5.6139    4.9639   20.0333 C   0  0  0  0  0  0  0  0  0  0  0  0
    5.2887    3.7446   19.4796 C   0  0  0  0  0  0  0  0  0  0  0  0
    4.6179    2.7869   20.2155 C   0  0  0  0  0  0  0  0  0  0  0  0
    4.2737    1.5393   19.6757 C   0  0  0  0  0  0  0  0  0  0  0  0
    3.6035    0.6008   20.4263 C   0  0  0  0  0  0  0  0  0  0  0  0
    3.2623    0.8880   21.7365 C   0  0  0  0  0  0  0  0  0  0  0  0
    3.5943    2.0839   22.2499 N   0  0  0  0  0  0  0  0  0  0  0  0
    4.2512    3.0139   21.5232 C   0  0  0  0  0  0  0  0  0  0  0  0
    4.5859    4.2482   22.0693 C   0  0  0  0  0  0  0  0  0  0  0  0
    5.2609    5.2207   21.3393 C   0  0  0  0  0  0  0  0  0  0  0  0
    6.2992    5.8842   17.8799 C   0  0  0  0  0  0  0  0  0  0  0  0
    6.2883    5.9319   19.2982 O   0  0  0  0  0  0  0  0  0  0  0  0
    5.5979    6.4529   21.8795 O   0  0  0  0  0  0  0  0  0  0  0  0
    6.6472    6.4758   22.8378 C   0  0  0  0  0  0  0  0  0  0  0  0
    7.9449    6.8221   22.1229 C   0  0  0  0  0  0  0  0  0  0  0  0
    8.0291    8.3083   21.9940 C   0  0  0  0  0  0  0  0  0  0  0  0
    7.5162    8.9472   23.1663 N   0  0  0  0  0  0  0  0  0  0  0  0
    8.6123    9.5497   23.9286 C   0  0  0  0  0  0  0  0  0  0  0  0
    8.6151   11.0394   23.8191 C   0  0  0  0  0  0  0  0  0  0  0  0
    8.2751   11.5570   22.4376 C   0  0  0  0  0  0  0  0  0  0  0  0
    7.0198   10.9663   21.8885 C   0  0  0  0  0  0  0  0  0  0  0  0
    6.5093    9.9381   22.8610 C   0  0  0  0  0  0  0  0  0  0  0  0
 37 38  1  0  0  0
 38 27  1  0  0  0
 27 28  2  0  0  0
 28 29  1  0  0  0
 29 30  2  0  0  0
 30 26  1  0  0  0
 26  1  1  0  0  0
  1  2  2  0  0  0
  2  3  1  0  0  0
  3  4  2  0  0  0
  4  8  1  0  0  0
  8  9  1  0  0  0
  9 10  2  0  0  0
  9 12  1  0  0  0
 12 13  1  0  0  0
 13 14  1  0  0  0
 12 15  1  0  0  0
 15 16  2  0  0  0
 15 17  1  0  0  0
 17 19  1  0  0  0
 19 20  2  0  0  0
 20 21  1  0  0  0
 21 22  1  0  0  0
 22 23  1  0  0  0
 22 24  1  0  0  0
 24 25  2  0  0  0
  4  5  1  0  0  0
  5  6  2  0  0  0
  6  7  1  0  0  0
 30 31  1  0  0  0
 31 32  2  0  0  0
 32 33  1  0  0  0
 33 34  2  0  0  0
 34 35  1  0  0  0
 35 36  2  0  0  0
 36 39  1  0  0  0
 39 40  1  0  0  0
 40 41  1  0  0  0
 41 42  1  0  0  0
 42 43  1  0  0  0
 43 44  1  0  0  0
 44 45  1  0  0  0
 45 46  1  0  0  0
 46 47  1  0  0  0
 47 48  1  0  0  0
 36 27  1  0  0  0
 48 43  1  0  0  0
 34 29  1  0  0  0
  6  1  1  0  0  0
 14 12  1  0  0  0
 25 19  1  0  0  0
  8 11  1  0  0  0
 17 18  1  0  0  0
M  END
> <minimizedAffinity>
-9.14680

> <CNNscore>
0.2460424900

> <CNNaffinity>
6.8649263382

> <CNN_VS>
1.6890635490

> <CNNaffinity_variance>
0.3171572983

$$$$
[H]C1=C([H])C([H])(F)C([H])([H])C([H])=C1N([H])C(=O)C1(C(=O)N([H])c2c([H])c([H])c(Oc3c([H])c([H])nc4c([H])c(OC([H])([H])C([H])([H])C([H])([H])N5C([H])([H])C([H])([H])C([H])([H])C([H])([H])C5([H])[H])c(OC([H])([H])[H])c([H])c34)c(F)c2[H])C([H])([H])C1([H])[H]


 48 53  0  0  0  0  0  0  0  0999 V2000
    3.9442    1.9282   17.2989 C   0  0  0  0  0  0  0  0  0  0  0  0
    4.5870    3.0127   16.7408 C   0  0  0  0  0  0  0  0  0  0  0  0
    4.0202    3.6911   15.6610 C   0  0  0  0  0  0  0  0  0  0  0  0
    2.8303    3.3297   15.1106 C   0  0  0  0  0  0  0  0  0  0  0  0
    2.1861    2.2396   15.6726 C   0  0  0  0  0  0  0  0  0  0  0  0
    2.7370    1.5621   16.7390 C   0  0  0  0  0  0  0  0  0  0  0  0
    2.0541    0.4753   17.2254 F   0  0  0  0  0  0  0  0  0  0  0  0
    2.2183    3.9583   13.9894 N   0  0  0  0  0  0  0  0  0  0  0  0
    1.4856    5.1361   14.0819 C   0  0  0  0  0  0  0  0  0  0  0  0
    1.4216    5.6542   15.2657 O   0  0  0  0  0  0  0  0  0  0  0  0
    2.4108    3.4510   13.0808 H   0  0  0  0  0  0  0  0  0  0  0  0
    0.7689    5.9032   13.0377 C   0  0  0  0  0  0  0  0  0  0  0  0
    0.9779    7.3878   13.0639 C   0  0  0  0  0  0  0  0  0  0  0  0
    1.7319    6.5784   12.0893 C   0  0  0  0  0  0  0  0  0  0  0  0
   -0.5453    5.5213   12.4973 C   0  0  0  0  0  0  0  0  0  0  0  0
   -0.8727    4.2849   12.7749 O   0  0  0  0  0  0  0  0  0  0  0  0
   -1.4445    6.2722   11.7537 N   0  0  0  0  0  0  0  0  0  0  0  0
   -1.2294    7.2377   11.4517 H   0  0  0  0  0  0  0  0  0  0  0  0
   -2.7045    5.7440   11.3107 C   0  0  0  0  0  0  0  0  0  0  0  0
   -2.8143    5.0794   10.1777 C   0  0  0  0  0  0  0  0  0  0  0  0
   -4.1050    4.5306    9.7080 C   0  0  0  0  0  0  0  0  0  0  0  0
   -5.2706    4.7180   10.5864 C   0  0  0  0  0  0  0  0  0  0  0  0
   -5.7963    3.4485   10.8925 F   0  0  0  0  0  0  0  0  0  0  0  0
   -5.0368    5.4724   11.8190 C   0  0  0  0  0  0  0  0  0  0  0  0
   -3.8606    5.9430   12.1523 C   0  0  0  0  0  0  0  0  0  0  0  0
    4.4866    1.2373   18.3694 O   0  0  0  0  0  0  0  0  0  0  0  0
    5.6463    4.7393   20.2232 C   0  0  0  0  0  0  0  0  0  0  0  0
    5.2604    3.5716   19.6014 C   0  0  0  0  0  0  0  0  0  0  0  0
    4.5469    2.6057   20.2847 C   0  0  0  0  0  0  0  0  0  0  0  0
    4.1406    1.4099   19.6753 C   0  0  0  0  0  0  0  0  0  0  0  0
    3.4287    0.4623   20.3743 C   0  0  0  0  0  0  0  0  0  0  0  0
    3.1070    0.6882   21.7014 C   0  0  0  0  0  0  0  0  0  0  0  0
    3.4985    1.8346   22.2814 N   0  0  0  0  0  0  0  0  0  0  0  0
    4.1968    2.7730   21.6059 C   0  0  0  0  0  0  0  0  0  0  0  0
    4.5929    3.9557   22.2208 C   0  0  0  0  0  0  0  0  0  0  0  0
    5.3113    4.9357   21.5443 C   0  0  0  0  0  0  0  0  0  0  0  0
    5.9052    6.2081   18.2921 C   0  0  0  0  0  0  0  0  0  0  0  0
    6.3638    5.7152   19.5413 O   0  0  0  0  0  0  0  0  0  0  0  0
    5.7096    6.1164   22.1532 O   0  0  0  0  0  0  0  0  0  0  0  0
    4.8978    7.2630   21.9381 C   0  0  0  0  0  0  0  0  0  0  0  0
    5.8065    8.4711   21.7659 C   0  0  0  0  0  0  0  0  0  0  0  0
    5.0280    9.5533   21.0910 C   0  0  0  0  0  0  0  0  0  0  0  0
    5.0035    9.3507   19.6755 N   0  0  0  0  0  0  0  0  0  0  0  0
    3.6187    9.2989   19.2009 C   0  0  0  0  0  0  0  0  0  0  0  0
    3.2398   10.5335   18.4501 C   0  0  0  0  0  0  0  0  0  0  0  0
    3.7926   11.8112   19.0449 C   0  0  0  0  0  0  0  0  0  0  0  0
    5.2622   11.7474   19.2950 C   0  0  0  0  0  0  0  0  0  0  0  0
    5.7453   10.3629   18.9585 C   0  0  0  0  0  0  0  0  0  0  0  0
 37 38  1  0  0  0
 38 27  1  0  0  0
 27 28  2  0  0  0
 28 29  1  0  0  0
 29 30  2  0  0  0
 30 26  1  0  0  0
 26  1  1  0  0  0
  1  2  2  0  0  0
  2  3  1  0  0  0
  3  4  2  0  0  0
  4  8  1  0  0  0
  8  9  1  0  0  0
  9 10  2  0  0  0
  9 12  1  0  0  0
 12 13  1  0  0  0
 13 14  1  0  0  0
 12 15  1  0  0  0
 15 16  2  0  0  0
 15 17  1  0  0  0
 17 19  1  0  0  0
 19 20  2  0  0  0
 20 21  1  0  0  0
 21 22  1  0  0  0
 22 23  1  0  0  0
 22 24  1  0  0  0
 24 25  2  0  0  0
  4  5  1  0  0  0
  5  6  2  0  0  0
  6  7  1  0  0  0
 30 31  1  0  0  0
 31 32  2  0  0  0
 32 33  1  0  0  0
 33 34  2  0  0  0
 34 35  1  0  0  0
 35 36  2  0  0  0
 36 39  1  0  0  0
 39 40  1  0  0  0
 40 41  1  0  0  0
 41 42  1  0  0  0
 42 43  1  0  0  0
 43 44  1  0  0  0
 44 45  1  0  0  0
 45 46  1  0  0  0
 46 47  1  0  0  0
 47 48  1  0  0  0
 36 27  1  0  0  0
 48 43  1  0  0  0
 34 29  1  0  0  0
  6  1  1  0  0  0
 14 12  1  0  0  0
 25 19  1  0  0  0
  8 11  1  0  0  0
 17 18  1  0  0  0
M  END
> <minimizedAffinity>
-9.71799

> <CNNscore>
0.2385653108

> <CNNaffinity>
7.0318365097

> <CNN_VS>
1.6775522232

> <CNNaffinity_variance>
0.3683207929

$$$$
[H]C1=C([H])C([H])(F)C([H])([H])C([H])=C1N([H])C(=O)C1(C(=O)N([H])c2c([H])c([H])c(Oc3c([H])c([H])nc4c([H])c(OC([H])([H])C([H])([H])C([H])([H])N5C([H])([H])C([H])([H])C([H])([H])C([H])([H])C5([H])[H])c(OC([H])([H])[H])c([H])c34)c(F)c2[H])C([H])([H])C1([H])[H]


 48 53  0  0  0  0  0  0  0  0999 V2000
    3.1168    7.5579   11.7630 C   0  0  0  0  0  0  0  0  0  0  0  0
    1.9369    7.9454   12.3618 C   0  0  0  0  0  0  0  0  0  0  0  0
    1.9318    8.4112   13.6772 C   0  0  0  0  0  0  0  0  0  0  0  0
    3.0632    8.5071   14.4257 C   0  0  0  0  0  0  0  0  0  0  0  0
    4.2477    8.1170   13.8224 C   0  0  0  0  0  0  0  0  0  0  0  0
    4.2641    7.6551   12.5240 C   0  0  0  0  0  0  0  0  0  0  0  0
    5.4712    7.2613   12.0025 F   0  0  0  0  0  0  0  0  0  0  0  0
    3.1183    8.9406   15.7807 N   0  0  0  0  0  0  0  0  0  0  0  0
    3.3759   10.2557   16.1502 C   0  0  0  0  0  0  0  0  0  0  0  0
    3.5312   11.0841   15.1686 O   0  0  0  0  0  0  0  0  0  0  0  0
    2.9094    8.1629   16.4674 H   0  0  0  0  0  0  0  0  0  0  0  0
    3.4940   10.8680   17.4932 C   0  0  0  0  0  0  0  0  0  0  0  0
    3.3111   12.3553   17.5474 C   0  0  0  0  0  0  0  0  0  0  0  0
    2.1874   11.4838   17.9366 C   0  0  0  0  0  0  0  0  0  0  0  0
    4.3880   10.3641   18.5477 C   0  0  0  0  0  0  0  0  0  0  0  0
    5.4547   11.1047   18.7106 O   0  0  0  0  0  0  0  0  0  0  0  0
    4.2543    9.2440   19.3556 N   0  0  0  0  0  0  0  0  0  0  0  0
    3.4653    8.5842   19.2463 H   0  0  0  0  0  0  0  0  0  0  0  0
    5.2248    8.8987   20.3565 C   0  0  0  0  0  0  0  0  0  0  0  0
    5.1765    9.4106   21.5703 C   0  0  0  0  0  0  0  0  0  0  0  0
    6.1692    9.0655   22.6110 C   0  0  0  0  0  0  0  0  0  0  0  0
    7.2019    8.0812   22.2500 C   0  0  0  0  0  0  0  0  0  0  0  0
    7.1186    7.0075   23.1565 F   0  0  0  0  0  0  0  0  0  0  0  0
    7.1639    7.5789   20.8756 C   0  0  0  0  0  0  0  0  0  0  0  0
    6.2578    7.9527   20.0067 C   0  0  0  0  0  0  0  0  0  0  0  0
    3.1479    7.0905   10.4599 O   0  0  0  0  0  0  0  0  0  0  0  0
   -0.2651    6.7189    8.1667 C   0  0  0  0  0  0  0  0  0  0  0  0
    0.8739    6.8463    8.9319 C   0  0  0  0  0  0  0  0  0  0  0  0
    1.6190    5.7381    9.2862 C   0  0  0  0  0  0  0  0  0  0  0  0
    2.7824    5.8403   10.0623 C   0  0  0  0  0  0  0  0  0  0  0  0
    3.5105    4.7232   10.4018 C   0  0  0  0  0  0  0  0  0  0  0  0
    3.0909    3.4758    9.9733 C   0  0  0  0  0  0  0  0  0  0  0  0
    1.9758    3.3822    9.2306 N   0  0  0  0  0  0  0  0  0  0  0  0
    1.2529    4.4712    8.8899 C   0  0  0  0  0  0  0  0  0  0  0  0
    0.1015    4.3572    8.1185 C   0  0  0  0  0  0  0  0  0  0  0  0
   -0.6573    5.4646    7.7552 C   0  0  0  0  0  0  0  0  0  0  0  0
   -0.6823    8.5884    6.6553 C   0  0  0  0  0  0  0  0  0  0  0  0
   -1.0189    7.8298    7.8065 O   0  0  0  0  0  0  0  0  0  0  0  0
   -1.8068    5.3563    6.9869 O   0  0  0  0  0  0  0  0  0  0  0  0
   -2.8851    4.6100    7.5348 C   0  0  0  0  0  0  0  0  0  0  0  0
   -3.4919    5.4092    8.6785 C   0  0  0  0  0  0  0  0  0  0  0  0
   -4.8876    4.9252    8.9024 C   0  0  0  0  0  0  0  0  0  0  0  0
   -5.6871    5.9479    9.5028 N   0  0  0  0  0  0  0  0  0  0  0  0
   -7.1041    5.7056    9.2218 C   0  0  0  0  0  0  0  0  0  0  0  0
   -7.8384    5.2254   10.4307 C   0  0  0  0  0  0  0  0  0  0  0  0
   -7.0542    4.2493   11.2816 C   0  0  0  0  0  0  0  0  0  0  0  0
   -5.6896    4.7449   11.6262 C   0  0  0  0  0  0  0  0  0  0  0  0
   -5.4665    6.0582   10.9270 C   0  0  0  0  0  0  0  0  0  0  0  0
 37 38  1  0  0  0
 38 27  1  0  0  0
 27 28  2  0  0  0
 28 29  1  0  0  0
 29 30  2  0  0  0
 30 26  1  0  0  0
 26  1  1  0  0  0
  1  2  2  0  0  0
  2  3  1  0  0  0
  3  4  2  0  0  0
  4  8  1  0  0  0
  8  9  1  0  0  0
  9 10  2  0  0  0
  9 12  1  0  0  0
 12 13  1  0  0  0
 13 14  1  0  0  0
 12 15  1  0  0  0
 15 16  2  0  0  0
 15 17  1  0  0  0
 17 19  1  0  0  0
 19 20  2  0  0  0
 20 21  1  0  0  0
 21 22  1  0  0  0
 22 23  1  0  0  0
 22 24  1  0  0  0
 24 25  2  0  0  0
  4  5  1  0  0  0
  5  6  2  0  0  0
  6  7  1  0  0  0
 30 31  1  0  0  0
 31 32  2  0  0  0
 32 33  1  0  0  0
 33 34  2  0  0  0
 34 35  1  0  0  0
 35 36  2  0  0  0
 36 39  1  0  0  0
 39 40  1  0  0  0
 40 41  1  0  0  0
 41 42  1  0  0  0
 42 43  1  0  0  0
 43 44  1  0  0  0
 44 45  1  0  0  0
 45 46  1  0  0  0
 46 47  1  0  0  0
 47 48  1  0  0  0
 36 27  1  0  0  0
 48 43  1  0  0  0
 34 29  1  0  0  0
  6  1  1  0  0  0
 14 12  1  0  0  0
 25 19  1  0  0  0
  8 11  1  0  0  0
 17 18  1  0  0  0
M  END
> <minimizedAffinity>
-7.35709

> <CNNscore>
0.2210716009

> <CNNaffinity>
6.4849128723

> <CNN_VS>
1.4336301088

> <CNNaffinity_variance>
0.2577979565

$$$$
[H]C1=C([H])C([H])(F)C([H])([H])C([H])=C1N([H])C(=O)C1(C(=O)N([H])c2c([H])c([H])c(Oc3c([H])c([H])nc4c([H])c(OC([H])([H])C([H])([H])C([H])([H])N5C([H])([H])C([H])([H])C([H])([H])C([H])([H])C5([H])[H])c(OC([H])([H])[H])c([H])c34)c(F)c2[H])C([H])([H])C1([H])[H]


 48 53  0  0  0  0  0  0  0  0999 V2000
    3.8805    1.7023   16.9866 C   0  0  0  0  0  0  0  0  0  0  0  0
    4.0392    2.8894   16.3036 C   0  0  0  0  0  0  0  0  0  0  0  0
    3.2374    3.1818   15.1995 C   0  0  0  0  0  0  0  0  0  0  0  0
    2.2770    2.3328   14.7450 C   0  0  0  0  0  0  0  0  0  0  0  0
    2.1193    1.1405   15.4326 C   0  0  0  0  0  0  0  0  0  0  0  0
    2.9060    0.8414   16.5240 C   0  0  0  0  0  0  0  0  0  0  0  0
    2.7104   -0.3705   17.1380 F   0  0  0  0  0  0  0  0  0  0  0  0
    1.4525    2.5580   13.6064 N   0  0  0  0  0  0  0  0  0  0  0  0
    1.8479    2.2582   12.3078 C   0  0  0  0  0  0  0  0  0  0  0  0
    3.0194    1.7200   12.1984 O   0  0  0  0  0  0  0  0  0  0  0  0
    0.5006    2.9440   13.8610 H   0  0  0  0  0  0  0  0  0  0  0  0
    1.1384    2.4483   11.0222 C   0  0  0  0  0  0  0  0  0  0  0  0
    0.1983    3.6152   10.9656 C   0  0  0  0  0  0  0  0  0  0  0  0
    1.5355    3.7463   10.3586 C   0  0  0  0  0  0  0  0  0  0  0  0
    0.7304    1.3434   10.1403 C   0  0  0  0  0  0  0  0  0  0  0  0
   -0.4656    1.5076    9.6347 O   0  0  0  0  0  0  0  0  0  0  0  0
    1.4210    0.1906    9.7946 N   0  0  0  0  0  0  0  0  0  0  0  0
    2.3474   -0.0313   10.1976 H   0  0  0  0  0  0  0  0  0  0  0  0
    0.8762   -0.7919    8.8999 C   0  0  0  0  0  0  0  0  0  0  0  0
    1.1580   -0.7846    7.6122 C   0  0  0  0  0  0  0  0  0  0  0  0
    0.6036   -1.7891    6.6786 C   0  0  0  0  0  0  0  0  0  0  0  0
   -0.2510   -2.8387    7.2559 C   0  0  0  0  0  0  0  0  0  0  0  0
    0.3181   -4.0875    6.9427 F   0  0  0  0  0  0  0  0  0  0  0  0
   -0.5004   -2.7503    8.6957 C   0  0  0  0  0  0  0  0  0  0  0  0
    0.0161   -1.8126    9.4505 C   0  0  0  0  0  0  0  0  0  0  0  0
    4.6648    1.3881   18.0838 O   0  0  0  0  0  0  0  0  0  0  0  0
    5.0876    5.1872   19.6436 C   0  0  0  0  0  0  0  0  0  0  0  0
    4.9473    3.9203   19.1198 C   0  0  0  0  0  0  0  0  0  0  0  0
    4.4677    2.8812   19.8938 C   0  0  0  0  0  0  0  0  0  0  0  0
    4.3137    1.5836   19.3851 C   0  0  0  0  0  0  0  0  0  0  0  0
    3.8322    0.5638   20.1734 C   0  0  0  0  0  0  0  0  0  0  0  0
    3.4939    0.8180   21.4912 C   0  0  0  0  0  0  0  0  0  0  0  0
    3.6434    2.0620   21.9747 N   0  0  0  0  0  0  0  0  0  0  0  0
    4.1140    3.0718   21.2109 C   0  0  0  0  0  0  0  0  0  0  0  0
    4.2611    4.3549   21.7264 C   0  0  0  0  0  0  0  0  0  0  0  0
    4.7425    5.4094   20.9580 C   0  0  0  0  0  0  0  0  0  0  0  0
    6.6605    6.0405   17.9847 C   0  0  0  0  0  0  0  0  0  0  0  0
    5.5690    6.2371   18.8701 O   0  0  0  0  0  0  0  0  0  0  0  0
    4.8919    6.6906   21.4676 O   0  0  0  0  0  0  0  0  0  0  0  0
    6.2154    7.1988   21.5668 C   0  0  0  0  0  0  0  0  0  0  0  0
    6.1592    8.5600   22.2444 C   0  0  0  0  0  0  0  0  0  0  0  0
    5.1656    9.4068   21.5176 C   0  0  0  0  0  0  0  0  0  0  0  0
    5.4305    9.4031   20.1121 N   0  0  0  0  0  0  0  0  0  0  0  0
    4.1716    9.4545   19.3651 C   0  0  0  0  0  0  0  0  0  0  0  0
    3.9508   10.7908   18.7351 C   0  0  0  0  0  0  0  0  0  0  0  0
    4.3679   11.9586   19.6035 C   0  0  0  0  0  0  0  0  0  0  0  0
    5.7559   11.8217   20.1338 C   0  0  0  0  0  0  0  0  0  0  0  0
    6.3006   10.4848   19.7100 C   0  0  0  0  0  0  0  0  0  0  0  0
 37 38  1  0  0  0
 38 27  1  0  0  0
 27 28  2  0  0  0
 28 29  1  0  0  0
 29 30  2  0  0  0
 30 26  1  0  0  0
 26  1  1  0  0  0
  1  2  2  0  0  0
  2  3  1  0  0  0
  3  4  2  0  0  0
  4  8  1  0  0  0
  8  9  1  0  0  0
  9 10  2  0  0  0
  9 12  1  0  0  0
 12 13  1  0  0  0
 13 14  1  0  0  0
 12 15  1  0  0  0
 15 16  2  0  0  0
 15 17  1  0  0  0
 17 19  1  0  0  0
 19 20  2  0  0  0
 20 21  1  0  0  0
 21 22  1  0  0  0
 22 23  1  0  0  0
 22 24  1  0  0  0
 24 25  2  0  0  0
  4  5  1  0  0  0
  5  6  2  0  0  0
  6  7  1  0  0  0
 30 31  1  0  0  0
 31 32  2  0  0  0
 32 33  1  0  0  0
 33 34  2  0  0  0
 34 35  1  0  0  0
 35 36  2  0  0  0
 36 39  1  0  0  0
 39 40  1  0  0  0
 40 41  1  0  0  0
 41 42  1  0  0  0
 42 43  1  0  0  0
 43 44  1  0  0  0
 44 45  1  0  0  0
 45 46  1  0  0  0
 46 47  1  0  0  0
 47 48  1  0  0  0
 36 27  1  0  0  0
 48 43  1  0  0  0
 34 29  1  0  0  0
  6  1  1  0  0  0
 14 12  1  0  0  0
 25 19  1  0  0  0
  8 11  1  0  0  0
 17 18  1  0  0  0
M  END
> <minimizedAffinity>
-8.57599

> <CNNscore>
0.2076317370

> <CNNaffinity>
6.9215736389

> <CNN_VS>
1.4371383190

> <CNNaffinity_variance>
0.3150072098

$$$$
[H]C1=C([H])C([H])(F)C([H])([H])C([H])=C1N([H])C(=O)C1(C(=O)N([H])c2c([H])c([H])c(Oc3c([H])c([H])nc4c([H])c(OC([H])([H])C([H])([H])C([H])([H])N5C([H])([H])C([H])([H])C([H])([H])C([H])([H])C5([H])[H])c(OC([H])([H])[H])c([H])c34)c(F)c2[H])C([H])([H])C1([H])[H]


 48 53  0  0  0  0  0  0  0  0999 V2000
    3.8925    2.0017   16.8385 C   0  0  0  0  0  0  0  0  0  0  0  0
    4.1837    3.2741   16.3946 C   0  0  0  0  0  0  0  0  0  0  0  0
    3.4856    3.8240   15.3186 C   0  0  0  0  0  0  0  0  0  0  0  0
    2.5021    3.1522   14.6622 C   0  0  0  0  0  0  0  0  0  0  0  0
    2.2111    1.8739   15.1096 C   0  0  0  0  0  0  0  0  0  0  0  0
    2.8946    1.3209   16.1711 C   0  0  0  0  0  0  0  0  0  0  0  0
    2.5697    0.0395   16.5406 F   0  0  0  0  0  0  0  0  0  0  0  0
    1.7790    3.6442   13.5387 N   0  0  0  0  0  0  0  0  0  0  0  0
    2.3526    3.8333   12.2866 C   0  0  0  0  0  0  0  0  0  0  0  0
    3.5982    3.4960   12.1939 O   0  0  0  0  0  0  0  0  0  0  0  0
    0.7571    3.8159   13.7536 H   0  0  0  0  0  0  0  0  0  0  0  0
    1.7636    4.3535   11.0317 C   0  0  0  0  0  0  0  0  0  0  0  0
    1.2676    3.3169   10.0684 C   0  0  0  0  0  0  0  0  0  0  0  0
    0.2947    4.0148   10.9287 C   0  0  0  0  0  0  0  0  0  0  0  0
    2.2148    5.5843   10.3633 C   0  0  0  0  0  0  0  0  0  0  0  0
    2.2071    6.6275   11.1535 O   0  0  0  0  0  0  0  0  0  0  0  0
    2.6248    5.7753    9.0515 N   0  0  0  0  0  0  0  0  0  0  0  0
    2.6054    5.0087    8.3574 H   0  0  0  0  0  0  0  0  0  0  0  0
    3.0509    7.0552    8.5587 C   0  0  0  0  0  0  0  0  0  0  0  0
    4.3261    7.3852    8.5068 C   0  0  0  0  0  0  0  0  0  0  0  0
    4.7799    8.6997    8.0029 C   0  0  0  0  0  0  0  0  0  0  0  0
    3.7434    9.6222    7.5129 C   0  0  0  0  0  0  0  0  0  0  0  0
    4.0408    9.9434    6.1750 F   0  0  0  0  0  0  0  0  0  0  0  0
    2.3600    9.1555    7.6190 C   0  0  0  0  0  0  0  0  0  0  0  0
    2.0413    7.9788    8.0980 C   0  0  0  0  0  0  0  0  0  0  0  0
    4.5720    1.4331   17.9027 O   0  0  0  0  0  0  0  0  0  0  0  0
    5.5087    4.9759   19.8044 C   0  0  0  0  0  0  0  0  0  0  0  0
    5.1970    3.7947   19.1667 C   0  0  0  0  0  0  0  0  0  0  0  0
    4.5591    2.7709   19.8403 C   0  0  0  0  0  0  0  0  0  0  0  0
    4.2293    1.5601   19.2147 C   0  0  0  0  0  0  0  0  0  0  0  0
    3.5919    0.5544   19.9044 C   0  0  0  0  0  0  0  0  0  0  0  0
    3.2700    0.7359   21.2381 C   0  0  0  0  0  0  0  0  0  0  0  0
    3.5881    1.8969   21.8338 N   0  0  0  0  0  0  0  0  0  0  0  0
    4.2128    2.8921   21.1675 C   0  0  0  0  0  0  0  0  0  0  0  0
    4.5335    4.0890   21.7986 C   0  0  0  0  0  0  0  0  0  0  0  0
    5.1754    5.1272   21.1320 C   0  0  0  0  0  0  0  0  0  0  0  0
    5.4905    6.7123   18.0903 C   0  0  0  0  0  0  0  0  0  0  0  0
    6.1499    6.0099   19.1323 O   0  0  0  0  0  0  0  0  0  0  0  0
    5.4983    6.3224   21.7570 O   0  0  0  0  0  0  0  0  0  0  0  0
    6.5927    6.3052   22.6635 C   0  0  0  0  0  0  0  0  0  0  0  0
    7.8380    6.7718   21.9240 C   0  0  0  0  0  0  0  0  0  0  0  0
    8.0818    8.2047   22.2703 C   0  0  0  0  0  0  0  0  0  0  0  0
    8.1431    9.0070   21.0879 N   0  0  0  0  0  0  0  0  0  0  0  0
    6.7938    9.4118   20.6868 C   0  0  0  0  0  0  0  0  0  0  0  0
    6.5408   10.8584   20.9601 C   0  0  0  0  0  0  0  0  0  0  0  0
    7.1255   11.3507   22.2669 C   0  0  0  0  0  0  0  0  0  0  0  0
    8.5680   11.0037   22.4253 C   0  0  0  0  0  0  0  0  0  0  0  0
    8.9910   10.1664   21.2491 C   0  0  0  0  0  0  0  0  0  0  0  0
 37 38  1  0  0  0
 38 27  1  0  0  0
 27 28  2  0  0  0
 28 29  1  0  0  0
 29 30  2  0  0  0
 30 26  1  0  0  0
 26  1  1  0  0  0
  1  2  2  0  0  0
  2  3  1  0  0  0
  3  4  2  0  0  0
  4  8  1  0  0  0
  8  9  1  0  0  0
  9 10  2  0  0  0
  9 12  1  0  0  0
 12 13  1  0  0  0
 13 14  1  0  0  0
 12 15  1  0  0  0
 15 16  2  0  0  0
 15 17  1  0  0  0
 17 19  1  0  0  0
 19 20  2  0  0  0
 20 21  1  0  0  0
 21 22  1  0  0  0
 22 23  1  0  0  0
 22 24  1  0  0  0
 24 25  2  0  0  0
  4  5  1  0  0  0
  5  6  2  0  0  0
  6  7  1  0  0  0
 30 31  1  0  0  0
 31 32  2  0  0  0
 32 33  1  0  0  0
 33 34  2  0  0  0
 34 35  1  0  0  0
 35 36  2  0  0  0
 36 39  1  0  0  0
 39 40  1  0  0  0
 40 41  1  0  0  0
 41 42  1  0  0  0
 42 43  1  0  0  0
 43 44  1  0  0  0
 44 45  1  0  0  0
 45 46  1  0  0  0
 46 47  1  0  0  0
 47 48  1  0  0  0
 36 27  1  0  0  0
 48 43  1  0  0  0
 34 29  1  0  0  0
  6  1  1  0  0  0
 14 12  1  0  0  0
 25 19  1  0  0  0
  8 11  1  0  0  0
 17 18  1  0  0  0
M  END
> <minimizedAffinity>
-8.42282

> <CNNscore>
0.1906526089

> <CNNaffinity>
6.8720459938

> <CNN_VS>
1.3101735115

> <CNNaffinity_variance>
0.2111684084

$$$$
[H]C1=C([H])C([H])(F)C([H])([H])C([H])=C1N([H])C(=O)C1(C(=O)N([H])c2c([H])c([H])c(Oc3c([H])c([H])nc4c([H])c(OC([H])([H])C([H])([H])C([H])([H])N5C([H])([H])C([H])([H])C([H])([H])C([H])([H])C5([H])[H])c(OC([H])([H])[H])c([H])c34)c(F)c2[H])C([H])([H])C1([H])[H]


 48 53  0  0  0  0  0  0  0  0999 V2000
    3.9802    1.9588   16.9057 C   0  0  0  0  0  0  0  0  0  0  0  0
    4.4452    3.1134   16.3127 C   0  0  0  0  0  0  0  0  0  0  0  0
    3.7827    3.6585   15.2120 C   0  0  0  0  0  0  0  0  0  0  0  0
    2.6677    3.0954   14.6744 C   0  0  0  0  0  0  0  0  0  0  0  0
    2.2022    1.9353   15.2715 C   0  0  0  0  0  0  0  0  0  0  0  0
    2.8489    1.3881   16.3587 C   0  0  0  0  0  0  0  0  0  0  0  0
    2.3450    0.2227   16.8801 F   0  0  0  0  0  0  0  0  0  0  0  0
    1.9686    3.5830   13.5339 N   0  0  0  0  0  0  0  0  0  0  0  0
    1.3099    4.8070   13.5096 C   0  0  0  0  0  0  0  0  0  0  0  0
    1.4018    5.5045   14.5954 O   0  0  0  0  0  0  0  0  0  0  0  0
    2.0350    2.9300   12.7038 H   0  0  0  0  0  0  0  0  0  0  0  0
    0.5222    5.4498   12.4332 C   0  0  0  0  0  0  0  0  0  0  0  0
   -0.8688    4.9230   12.2431 C   0  0  0  0  0  0  0  0  0  0  0  0
   -0.6780    6.1810   12.9880 C   0  0  0  0  0  0  0  0  0  0  0  0
    1.1089    5.9739   11.1897 C   0  0  0  0  0  0  0  0  0  0  0  0
    2.2493    5.4090   10.8846 O   0  0  0  0  0  0  0  0  0  0  0  0
    0.6305    6.9573   10.3356 N   0  0  0  0  0  0  0  0  0  0  0  0
   -0.2358    7.4837   10.5414 H   0  0  0  0  0  0  0  0  0  0  0  0
    1.3298    7.3450    9.1426 C   0  0  0  0  0  0  0  0  0  0  0  0
    0.9797    6.8863    7.9574 C   0  0  0  0  0  0  0  0  0  0  0  0
    1.6909    7.2756    6.7203 C   0  0  0  0  0  0  0  0  0  0  0  0
    2.7916    8.2425    6.8578 C   0  0  0  0  0  0  0  0  0  0  0  0
    2.5010    9.3546    6.0453 F   0  0  0  0  0  0  0  0  0  0  0  0
    3.0974    8.6847    8.2193 C   0  0  0  0  0  0  0  0  0  0  0  0
    2.4278    8.2742    9.2676 C   0  0  0  0  0  0  0  0  0  0  0  0
    4.6207    1.3972   17.9975 O   0  0  0  0  0  0  0  0  0  0  0  0
    5.4239    4.9732   19.8981 C   0  0  0  0  0  0  0  0  0  0  0  0
    5.1569    3.7809   19.2607 C   0  0  0  0  0  0  0  0  0  0  0  0
    4.5135    2.7516   19.9206 C   0  0  0  0  0  0  0  0  0  0  0  0
    4.2285    1.5295   19.2949 C   0  0  0  0  0  0  0  0  0  0  0  0
    3.5847    0.5184   19.9707 C   0  0  0  0  0  0  0  0  0  0  0  0
    3.2115    0.7057   21.2903 C   0  0  0  0  0  0  0  0  0  0  0  0
    3.4869    1.8775   21.8859 N   0  0  0  0  0  0  0  0  0  0  0  0
    4.1173    2.8781   21.2333 C   0  0  0  0  0  0  0  0  0  0  0  0
    4.3933    4.0862   21.8641 C   0  0  0  0  0  0  0  0  0  0  0  0
    5.0401    5.1301   21.2112 C   0  0  0  0  0  0  0  0  0  0  0  0
    5.4154    6.7305   18.2053 C   0  0  0  0  0  0  0  0  0  0  0  0
    6.0703    6.0129   19.2397 O   0  0  0  0  0  0  0  0  0  0  0  0
    5.3186    6.3365   21.8361 O   0  0  0  0  0  0  0  0  0  0  0  0
    6.4947    6.3986   22.6315 C   0  0  0  0  0  0  0  0  0  0  0  0
    7.3053    7.6114   22.1989 C   0  0  0  0  0  0  0  0  0  0  0  0
    8.7095    7.1712   21.9404 C   0  0  0  0  0  0  0  0  0  0  0  0
    9.1958    6.3718   23.0221 N   0  0  0  0  0  0  0  0  0  0  0  0
   10.2509    5.4740   22.5464 C   0  0  0  0  0  0  0  0  0  0  0  0
   11.6024    5.9033   23.0159 C   0  0  0  0  0  0  0  0  0  0  0  0
   11.8142    7.4022   22.9983 C   0  0  0  0  0  0  0  0  0  0  0  0
   10.7260    8.1509   23.6922 C   0  0  0  0  0  0  0  0  0  0  0  0
    9.6728    7.1694   24.1290 C   0  0  0  0  0  0  0  0  0  0  0  0
 37 38  1  0  0  0
 38 27  1  0  0  0
 27 28  2  0  0  0
 28 29  1  0  0  0
 29 30  2  0  0  0
 30 26  1  0  0  0
 26  1  1  0  0  0
  1  2  2  0  0  0
  2  3  1  0  0  0
  3  4  2  0  0  0
  4  8  1  0  0  0
  8  9  1  0  0  0
  9 10  2  0  0  0
  9 12  1  0  0  0
 12 13  1  0  0  0
 13 14  1  0  0  0
 12 15  1  0  0  0
 15 16  2  0  0  0
 15 17  1  0  0  0
 17 19  1  0  0  0
 19 20  2  0  0  0
 20 21  1  0  0  0
 21 22  1  0  0  0
 22 23  1  0  0  0
 22 24  1  0  0  0
 24 25  2  0  0  0
  4  5  1  0  0  0
  5  6  2  0  0  0
  6  7  1  0  0  0
 30 31  1  0  0  0
 31 32  2  0  0  0
 32 33  1  0  0  0
 33 34  2  0  0  0
 34 35  1  0  0  0
 35 36  2  0  0  0
 36 39  1  0  0  0
 39 40  1  0  0  0
 40 41  1  0  0  0
 41 42  1  0  0  0
 42 43  1  0  0  0
 43 44  1  0  0  0
 44 45  1  0  0  0
 45 46  1  0  0  0
 46 47  1  0  0  0
 47 48  1  0  0  0
 36 27  1  0  0  0
 48 43  1  0  0  0
 34 29  1  0  0  0
  6  1  1  0  0  0
 14 12  1  0  0  0
 25 19  1  0  0  0
  8 11  1  0  0  0
 17 18  1  0  0  0
M  END
> <minimizedAffinity>
-8.70189

> <CNNscore>
0.1821558475

> <CNNaffinity>
6.7647185326

> <CNN_VS>
1.2322330475

> <CNNaffinity_variance>
0.2953773141

$$$$
[H]C1=C([H])C([H])(F)C([H])([H])C([H])=C1N([H])C(=O)C1(C(=O)N([H])c2c([H])c([H])c(Oc3c([H])c([H])nc4c([H])c(OC([H])([H])C([H])([H])C([H])([H])N5C([H])([H])C([H])([H])C([H])([H])C([H])([H])C5([H])[H])c(OC([H])([H])[H])c([H])c34)c(F)c2[H])C([H])([H])C1([H])[H]


 48 53  0  0  0  0  0  0  0  0999 V2000
    3.4243    6.9779   12.1255 C   0  0  0  0  0  0  0  0  0  0  0  0
    2.3689    6.6007   12.9285 C   0  0  0  0  0  0  0  0  0  0  0  0
    2.3630    6.9245   14.2859 C   0  0  0  0  0  0  0  0  0  0  0  0
    3.3736    7.6138   14.8799 C   0  0  0  0  0  0  0  0  0  0  0  0
    4.4332    7.9918   14.0714 C   0  0  0  0  0  0  0  0  0  0  0  0
    4.4496    7.6769   12.7297 C   0  0  0  0  0  0  0  0  0  0  0  0
    5.5453    8.0611   11.9979 F   0  0  0  0  0  0  0  0  0  0  0  0
    3.4421    7.9436   16.2632 N   0  0  0  0  0  0  0  0  0  0  0  0
    4.1275    7.1749   17.1969 C   0  0  0  0  0  0  0  0  0  0  0  0
    4.7398    6.1410   16.7173 O   0  0  0  0  0  0  0  0  0  0  0  0
    2.9454    8.8495   16.4924 H   0  0  0  0  0  0  0  0  0  0  0  0
    4.2786    7.3530   18.6590 C   0  0  0  0  0  0  0  0  0  0  0  0
    5.2254    8.4340   19.0873 C   0  0  0  0  0  0  0  0  0  0  0  0
    3.7766    8.7063   19.1056 C   0  0  0  0  0  0  0  0  0  0  0  0
    4.1910    6.2525   19.6319 C   0  0  0  0  0  0  0  0  0  0  0  0
    3.0800    5.5683   19.5313 O   0  0  0  0  0  0  0  0  0  0  0  0
    5.0969    5.8662   20.6094 N   0  0  0  0  0  0  0  0  0  0  0  0
    5.9702    6.3929   20.7819 H   0  0  0  0  0  0  0  0  0  0  0  0
    4.8591    4.7473   21.4778 C   0  0  0  0  0  0  0  0  0  0  0  0
    5.3484    3.5521   21.2133 C   0  0  0  0  0  0  0  0  0  0  0  0
    5.1110    2.3903   22.0973 C   0  0  0  0  0  0  0  0  0  0  0  0
    4.3346    2.6309   23.3239 C   0  0  0  0  0  0  0  0  0  0  0  0
    5.1244    2.2467   24.4240 F   0  0  0  0  0  0  0  0  0  0  0  0
    3.8375    3.9940   23.5175 C   0  0  0  0  0  0  0  0  0  0  0  0
    4.0775    4.9652   22.6720 C   0  0  0  0  0  0  0  0  0  0  0  0
    3.4546    6.6671   10.7764 O   0  0  0  0  0  0  0  0  0  0  0  0
    0.1537    6.2875    8.3258 C   0  0  0  0  0  0  0  0  0  0  0  0
    1.2550    6.4176    9.1439 C   0  0  0  0  0  0  0  0  0  0  0  0
    2.0685    5.3348    9.4170 C   0  0  0  0  0  0  0  0  0  0  0  0
    3.1957    5.4404   10.2444 C   0  0  0  0  0  0  0  0  0  0  0  0
    3.9934    4.3490   10.5013 C   0  0  0  0  0  0  0  0  0  0  0  0
    3.6813    3.1245    9.9368 C   0  0  0  0  0  0  0  0  0  0  0  0
    2.6006    3.0275    9.1454 N   0  0  0  0  0  0  0  0  0  0  0  0
    1.8102    4.0914    8.8847 C   0  0  0  0  0  0  0  0  0  0  0  0
    0.6957    3.9744    8.0613 C   0  0  0  0  0  0  0  0  0  0  0  0
   -0.1310    5.0564    7.7785 C   0  0  0  0  0  0  0  0  0  0  0  0
   -0.4489    8.1667    6.8908 C   0  0  0  0  0  0  0  0  0  0  0  0
   -0.6684    7.3730    8.0466 O   0  0  0  0  0  0  0  0  0  0  0  0
   -1.2442    4.9448    6.9588 O   0  0  0  0  0  0  0  0  0  0  0  0
   -2.2729    4.0589    7.3791 C   0  0  0  0  0  0  0  0  0  0  0  0
   -3.5239    4.8756    7.6674 C   0  0  0  0  0  0  0  0  0  0  0  0
   -3.6782    4.9932    9.1489 C   0  0  0  0  0  0  0  0  0  0  0  0
   -4.8689    4.3329    9.5870 N   0  0  0  0  0  0  0  0  0  0  0  0
   -4.7220    3.9082   10.9812 C   0  0  0  0  0  0  0  0  0  0  0  0
   -5.5367    4.7485   11.9092 C   0  0  0  0  0  0  0  0  0  0  0  0
   -5.5462    6.2216   11.5599 C   0  0  0  0  0  0  0  0  0  0  0  0
   -5.8969    6.4780   10.1325 C   0  0  0  0  0  0  0  0  0  0  0  0
   -6.0471    5.1554    9.4314 C   0  0  0  0  0  0  0  0  0  0  0  0
 37 38  1  0  0  0
 38 27  1  0  0  0
 27 28  2  0  0  0
 28 29  1  0  0  0
 29 30  2  0  0  0
 30 26  1  0  0  0
 26  1  1  0  0  0
  1  2  2  0  0  0
  2  3  1  0  0  0
  3  4  2  0  0  0
  4  8  1  0  0  0
  8  9  1  0  0  0
  9 10  2  0  0  0
  9 12  1  0  0  0
 12 13  1  0  0  0
 13 14  1  0  0  0
 12 15  1  0  0  0
 15 16  2  0  0  0
 15 17  1  0  0  0
 17 19  1  0  0  0
 19 20  2  0  0  0
 20 21  1  0  0  0
 21 22  1  0  0  0
 22 23  1  0  0  0
 22 24  1  0  0  0
 24 25  2  0  0  0
  4  5  1  0  0  0
  5  6  2  0  0  0
  6  7  1  0  0  0
 30 31  1  0  0  0
 31 32  2  0  0  0
 32 33  1  0  0  0
 33 34  2  0  0  0
 34 35  1  0  0  0
 35 36  2  0  0  0
 36 39  1  0  0  0
 39 40  1  0  0  0
 40 41  1  0  0  0
 41 42  1  0  0  0
 42 43  1  0  0  0
 43 44  1  0  0  0
 44 45  1  0  0  0
 45 46  1  0  0  0
 46 47  1  0  0  0
 47 48  1  0  0  0
 36 27  1  0  0  0
 48 43  1  0  0  0
 34 29  1  0  0  0
  6  1  1  0  0  0
 14 12  1  0  0  0
 25 19  1  0  0  0
  8 11  1  0  0  0
 17 18  1  0  0  0
M  END
> <minimizedAffinity>
-7.78443

> <CNNscore>
0.1721215695

> <CNNaffinity>
6.5193262100

> <CNN_VS>
1.1221166849

> <CNNaffinity_variance>
0.6805640459

$$$$
[H]C1=C([H])C([H])(F)C([H])([H])C([H])=C1N([H])C(=O)C1(C(=O)N([H])c2c([H])c([H])c(Oc3c([H])c([H])nc4c([H])c(OC([H])([H])C([H])([H])C([H])([H])N5C([H])([H])C([H])([H])C([H])([H])C([H])([H])C5([H])[H])c(OC([H])([H])[H])c([H])c34)c(F)c2[H])C([H])([H])C1([H])[H]


 48 53  0  0  0  0  0  0  0  0999 V2000
    3.6612    2.6643   15.9788 C   0  0  0  0  0  0  0  0  0  0  0  0
    3.3436    3.9356   15.5501 C   0  0  0  0  0  0  0  0  0  0  0  0
    2.3361    4.1312   14.6045 C   0  0  0  0  0  0  0  0  0  0  0  0
    1.6272    3.1038   14.0648 C   0  0  0  0  0  0  0  0  0  0  0  0
    1.9479    1.8272   14.4966 C   0  0  0  0  0  0  0  0  0  0  0  0
    2.9414    1.6224   15.4297 C   0  0  0  0  0  0  0  0  0  0  0  0
    3.2216    0.3277   15.7891 F   0  0  0  0  0  0  0  0  0  0  0  0
    0.6139    3.2354   13.0733 N   0  0  0  0  0  0  0  0  0  0  0  0
    0.8882    3.4306   11.7245 C   0  0  0  0  0  0  0  0  0  0  0  0
    2.1441    3.4512   11.4144 O   0  0  0  0  0  0  0  0  0  0  0  0
   -0.3619    3.1349   13.4704 H   0  0  0  0  0  0  0  0  0  0  0  0
   -0.0295    3.6116   10.5767 C   0  0  0  0  0  0  0  0  0  0  0  0
    0.6280    3.8680    9.2536 C   0  0  0  0  0  0  0  0  0  0  0  0
    0.1386    2.5105    9.5559 C   0  0  0  0  0  0  0  0  0  0  0  0
   -1.3609    4.2293   10.6815 C   0  0  0  0  0  0  0  0  0  0  0  0
   -1.3567    5.3385   11.3761 O   0  0  0  0  0  0  0  0  0  0  0  0
   -2.5749    3.7997   10.1647 N   0  0  0  0  0  0  0  0  0  0  0  0
   -2.6632    2.9057    9.6521 H   0  0  0  0  0  0  0  0  0  0  0  0
   -3.7931    4.5371   10.3514 C   0  0  0  0  0  0  0  0  0  0  0  0
   -4.6163    4.2696   11.3456 C   0  0  0  0  0  0  0  0  0  0  0  0
   -5.8748    5.0194   11.5499 C   0  0  0  0  0  0  0  0  0  0  0  0
   -6.1565    6.1205   10.6152 C   0  0  0  0  0  0  0  0  0  0  0  0
   -6.3091    7.3022   11.3647 F   0  0  0  0  0  0  0  0  0  0  0  0
   -5.1769    6.3289    9.5476 C   0  0  0  0  0  0  0  0  0  0  0  0
   -4.0929    5.6038    9.4258 C   0  0  0  0  0  0  0  0  0  0  0  0
    4.6578    2.4437   16.9145 O   0  0  0  0  0  0  0  0  0  0  0  0
    5.8920    5.3225   19.6043 C   0  0  0  0  0  0  0  0  0  0  0  0
    5.4808    4.3637   18.7039 C   0  0  0  0  0  0  0  0  0  0  0  0
    4.8842    3.1944   19.1348 C   0  0  0  0  0  0  0  0  0  0  0  0
    4.4552    2.2038   18.2397 C   0  0  0  0  0  0  0  0  0  0  0  0
    3.8613    1.0475   18.6909 C   0  0  0  0  0  0  0  0  0  0  0  0
    3.6833    0.8540   20.0497 C   0  0  0  0  0  0  0  0  0  0  0  0
    4.0960    1.8049   20.9036 N   0  0  0  0  0  0  0  0  0  0  0  0
    4.6794    2.9447   20.4734 C   0  0  0  0  0  0  0  0  0  0  0  0
    5.0994    3.9205   21.3707 C   0  0  0  0  0  0  0  0  0  0  0  0
    5.7011    5.1016   20.9500 C   0  0  0  0  0  0  0  0  0  0  0  0
    6.4793    6.8624   17.8049 C   0  0  0  0  0  0  0  0  0  0  0  0
    6.4924    6.5012   19.1773 O   0  0  0  0  0  0  0  0  0  0  0  0
    6.1227    6.0774   21.8409 O   0  0  0  0  0  0  0  0  0  0  0  0
    7.4704    6.0097   22.2870 C   0  0  0  0  0  0  0  0  0  0  0  0
    7.8623    7.3705   22.8436 C   0  0  0  0  0  0  0  0  0  0  0  0
    7.6832    8.3894   21.7656 C   0  0  0  0  0  0  0  0  0  0  0  0
    7.1618    9.6078   22.3033 N   0  0  0  0  0  0  0  0  0  0  0  0
    7.4469   10.7194   21.3931 C   0  0  0  0  0  0  0  0  0  0  0  0
    6.2202   11.1843   20.6787 C   0  0  0  0  0  0  0  0  0  0  0  0
    5.2966   10.0653   20.2465 C   0  0  0  0  0  0  0  0  0  0  0  0
    4.9653    9.1242   21.3560 C   0  0  0  0  0  0  0  0  0  0  0  0
    5.7447    9.5303   22.5771 C   0  0  0  0  0  0  0  0  0  0  0  0
 37 38  1  0  0  0
 38 27  1  0  0  0
 27 28  2  0  0  0
 28 29  1  0  0  0
 29 30  2  0  0  0
 30 26  1  0  0  0
 26  1  1  0  0  0
  1  2  2  0  0  0
  2  3  1  0  0  0
  3  4  2  0  0  0
  4  8  1  0  0  0
  8  9  1  0  0  0
  9 10  2  0  0  0
  9 12  1  0  0  0
 12 13  1  0  0  0
 13 14  1  0  0  0
 12 15  1  0  0  0
 15 16  2  0  0  0
 15 17  1  0  0  0
 17 19  1  0  0  0
 19 20  2  0  0  0
 20 21  1  0  0  0
 21 22  1  0  0  0
 22 23  1  0  0  0
 22 24  1  0  0  0
 24 25  2  0  0  0
  4  5  1  0  0  0
  5  6  2  0  0  0
  6  7  1  0  0  0
 30 31  1  0  0  0
 31 32  2  0  0  0
 32 33  1  0  0  0
 33 34  2  0  0  0
 34 35  1  0  0  0
 35 36  2  0  0  0
 36 39  1  0  0  0
 39 40  1  0  0  0
 40 41  1  0  0  0
 41 42  1  0  0  0
 42 43  1  0  0  0
 43 44  1  0  0  0
 44 45  1  0  0  0
 45 46  1  0  0  0
 46 47  1  0  0  0
 47 48  1  0  0  0
 36 27  1  0  0  0
 48 43  1  0  0  0
 34 29  1  0  0  0
  6  1  1  0  0  0
 14 12  1  0  0  0
 25 19  1  0  0  0
  8 11  1  0  0  0
 17 18  1  0  0  0
M  END
> <minimizedAffinity>
-9.34191

> <CNNscore>
0.1554065496

> <CNNaffinity>
6.4929246902

> <CNN_VS>
1.0090429783

> <CNNaffinity_variance>
0.3461838663

$$$$
[H]C1=C([H])[C@@]2(C([H])([H])[H])C(=C([H])C1=O)C([H])([H])C([H])([H])[C@]1([H])[C@]2([H])C([H])([H])C([H])([H])[C@]2(C([H])([H])[H])C(=O)C([H])([H])C([H])([H])[C@]21[H]


 21 24  0  0  0  0  0  0  0  0999 V2000
    6.2153    3.0738   21.7780 C   0  0  0  0  0  0  0  0  0  0  0  0
    4.7350    2.7821   21.8103 C   0  0  0  0  0  0  0  0  0  0  0  0
    4.3984    1.6534   20.9060 C   0  0  0  0  0  0  0  0  0  0  0  0
    4.8180    2.0396   19.5023 C   0  0  0  0  0  0  0  0  0  0  0  0
    4.0994    3.2664   19.0563 C   0  0  0  0  0  0  0  0  0  0  0  0
    4.2770    4.4519   19.9989 C   0  0  0  0  0  0  0  0  0  0  0  0
    3.2633    5.5214   19.6192 C   0  0  0  0  0  0  0  0  0  0  0  0
    3.3034    5.8979   18.1815 C   0  0  0  0  0  0  0  0  0  0  0  0
    3.3524    4.6987   17.2933 C   0  0  0  0  0  0  0  0  0  0  0  0
    2.5261    4.5665   16.2753 C   0  0  0  0  0  0  0  0  0  0  0  0
    2.5980    3.3983   15.4366 C   0  0  0  0  0  0  0  0  0  0  0  0
    1.7898    3.2964   14.4622 O   0  0  0  0  0  0  0  0  0  0  0  0
    3.5720    2.3744   15.7093 C   0  0  0  0  0  0  0  0  0  0  0  0
    4.3865    2.5363   16.7386 C   0  0  0  0  0  0  0  0  0  0  0  0
    4.3924    3.6795   17.6456 C   0  0  0  0  0  0  0  0  0  0  0  0
    5.7440    4.3750   17.5218 C   0  0  0  0  0  0  0  0  0  0  0  0
    3.9100    3.9717   21.3531 C   0  0  0  0  0  0  0  0  0  0  0  0
    4.0703    4.9314   22.4637 C   0  0  0  0  0  0  0  0  0  0  0  0
    4.0412    4.0178   23.6967 C   0  0  0  0  0  0  0  0  0  0  0  0
    4.2309    2.6468   23.1891 C   0  0  0  0  0  0  0  0  0  0  0  0
    4.0205    1.6200   23.7722 O   0  0  0  0  0  0  0  0  0  0  0  0
  2  1  1  0  0  0
  2  3  1  0  0  0
  3  4  1  0  0  0
  4  5  1  0  0  0
  5  6  1  0  0  0
  6  7  1  0  0  0
  7  8  1  0  0  0
  8  9  1  0  0  0
  9 10  2  0  0  0
 10 11  1  0  0  0
 11 12  2  0  0  0
 11 13  1  0  0  0
 13 14  2  0  0  0
 14 15  1  0  0  0
 15 16  1  0  0  0
  6 17  1  0  0  0
 17 18  1  0  0  0
 18 19  1  0  0  0
 19 20  1  0  0  0
 20 21  2  0  0  0
 17  2  1  0  0  0
 20  2  1  0  0  0
 15  5  1  0  0  0
 15  9  1  0  0  0
M  END
> <minimizedAffinity>
-9.10280

> <CNNscore>
0.5171865225

> <CNNaffinity>
5.8359088898

> <CNN_VS>
3.0182533264

> <CNNaffinity_variance>
0.1367911100

$$$$
[H]C1=C([H])[C@@]2(C([H])([H])[H])C(=C([H])C1=O)C([H])([H])C([H])([H])[C@]1([H])[C@]2([H])C([H])([H])C([H])([H])[C@]2(C([H])([H])[H])C(=O)C([H])([H])C([H])([H])[C@]21[H]


 21 24  0  0  0  0  0  0  0  0999 V2000
    4.9286    1.1705   17.2847 C   0  0  0  0  0  0  0  0  0  0  0  0
    3.6415    1.6019   17.9442 C   0  0  0  0  0  0  0  0  0  0  0  0
    2.9135    2.5785   17.0950 C   0  0  0  0  0  0  0  0  0  0  0  0
    3.8146    3.7785   16.8872 C   0  0  0  0  0  0  0  0  0  0  0  0
    4.1581    4.4117   18.1916 C   0  0  0  0  0  0  0  0  0  0  0  0
    4.7942    3.4474   19.1870 C   0  0  0  0  0  0  0  0  0  0  0  0
    4.8043    4.1107   20.5565 C   0  0  0  0  0  0  0  0  0  0  0  0
    5.4266    5.4609   20.5609 C   0  0  0  0  0  0  0  0  0  0  0  0
    4.9364    6.3034   19.4299 C   0  0  0  0  0  0  0  0  0  0  0  0
    4.4950    7.5288   19.6303 C   0  0  0  0  0  0  0  0  0  0  0  0
    4.0287    8.3169   18.5190 C   0  0  0  0  0  0  0  0  0  0  0  0
    3.6088    9.4948   18.7403 O   0  0  0  0  0  0  0  0  0  0  0  0
    4.0442    7.7670   17.1890 C   0  0  0  0  0  0  0  0  0  0  0  0
    4.4926    6.5342   17.0210 C   0  0  0  0  0  0  0  0  0  0  0  0
    4.9840    5.6574   18.0790 C   0  0  0  0  0  0  0  0  0  0  0  0
    6.4502    5.3484   17.7949 C   0  0  0  0  0  0  0  0  0  0  0  0
    3.8857    2.2790   19.2807 C   0  0  0  0  0  0  0  0  0  0  0  0
    4.3264    1.1629   20.1411 C   0  0  0  0  0  0  0  0  0  0  0  0
    3.4283    0.0099   19.6724 C   0  0  0  0  0  0  0  0  0  0  0  0
    2.8404    0.4488   18.3937 C   0  0  0  0  0  0  0  0  0  0  0  0
    1.8991   -0.0289   17.8243 O   0  0  0  0  0  0  0  0  0  0  0  0
  2  1  1  0  0  0
  2  3  1  0  0  0
  3  4  1  0  0  0
  4  5  1  0  0  0
  5  6  1  0  0  0
  6  7  1  0  0  0
  7  8  1  0  0  0
  8  9  1  0  0  0
  9 10  2  0  0  0
 10 11  1  0  0  0
 11 12  2  0  0  0
 11 13  1  0  0  0
 13 14  2  0  0  0
 14 15  1  0  0  0
 15 16  1  0  0  0
  6 17  1  0  0  0
 17 18  1  0  0  0
 18 19  1  0  0  0
 19 20  1  0  0  0
 20 21  2  0  0  0
 17  2  1  0  0  0
 20  2  1  0  0  0
 15  5  1  0  0  0
 15  9  1  0  0  0
M  END
> <minimizedAffinity>
-7.21263

> <CNNscore>
0.4925401509

> <CNNaffinity>
5.8364496231

> <CNN_VS>
2.8746857643

> <CNNaffinity_variance>
0.1906248629

$$$$
[H]C1=C([H])[C@@]2(C([H])([H])[H])C(=C([H])C1=O)C([H])([H])C([H])([H])[C@]1([H])[C@]2([H])C([H])([H])C([H])([H])[C@]2(C([H])([H])[H])C(=O)C([H])([H])C([H])([H])[C@]21[H]


 21 24  0  0  0  0  0  0  0  0999 V2000
    6.6386    5.5190   21.8974 C   0  0  0  0  0  0  0  0  0  0  0  0
    5.3390    5.8957   21.2292 C   0  0  0  0  0  0  0  0  0  0  0  0
    4.1877    5.2513   21.9104 C   0  0  0  0  0  0  0  0  0  0  0  0
    4.3866    3.7508   21.8436 C   0  0  0  0  0  0  0  0  0  0  0  0
    4.4490    3.2902   20.4278 C   0  0  0  0  0  0  0  0  0  0  0  0
    5.5215    3.9960   19.6052 C   0  0  0  0  0  0  0  0  0  0  0  0
    5.2813    3.6827   18.1356 C   0  0  0  0  0  0  0  0  0  0  0  0
    5.1749    2.2285   17.8453 C   0  0  0  0  0  0  0  0  0  0  0  0
    4.2817    1.5308   18.8171 C   0  0  0  0  0  0  0  0  0  0  0  0
    3.3153    0.7336   18.4084 C   0  0  0  0  0  0  0  0  0  0  0  0
    2.4702    0.0746   19.3702 C   0  0  0  0  0  0  0  0  0  0  0  0
    1.5465   -0.6884   18.9488 O   0  0  0  0  0  0  0  0  0  0  0  0
    2.6803    0.2860   20.7782 C   0  0  0  0  0  0  0  0  0  0  0  0
    3.6581    1.0922   21.1564 C   0  0  0  0  0  0  0  0  0  0  0  0
    4.5651    1.8050   20.2625 C   0  0  0  0  0  0  0  0  0  0  0  0
    5.9817    1.3081   20.5309 C   0  0  0  0  0  0  0  0  0  0  0  0
    5.2950    5.4514   19.7782 C   0  0  0  0  0  0  0  0  0  0  0  0
    6.2629    6.3559   19.1261 C   0  0  0  0  0  0  0  0  0  0  0  0
    6.0090    7.6868   19.8472 C   0  0  0  0  0  0  0  0  0  0  0  0
    5.2173    7.3534   21.0453 C   0  0  0  0  0  0  0  0  0  0  0  0
    4.5949    8.1085   21.7388 O   0  0  0  0  0  0  0  0  0  0  0  0
  2  1  1  0  0  0
  2  3  1  0  0  0
  3  4  1  0  0  0
  4  5  1  0  0  0
  5  6  1  0  0  0
  6  7  1  0  0  0
  7  8  1  0  0  0
  8  9  1  0  0  0
  9 10  2  0  0  0
 10 11  1  0  0  0
 11 12  2  0  0  0
 11 13  1  0  0  0
 13 14  2  0  0  0
 14 15  1  0  0  0
 15 16  1  0  0  0
  6 17  1  0  0  0
 17 18  1  0  0  0
 18 19  1  0  0  0
 19 20  1  0  0  0
 20 21  2  0  0  0
 17  2  1  0  0  0
 20  2  1  0  0  0
 15  5  1  0  0  0
 15  9  1  0  0  0
M  END
> <minimizedAffinity>
-8.52225

> <CNNscore>
0.4896599948

> <CNNaffinity>
5.8707151413

> <CNN_VS>
2.8746542931

> <CNNaffinity_variance>
0.1876850426

$$$$
[H]C1=C([H])[C@@]2(C([H])([H])[H])C(=C([H])C1=O)C([H])([H])C([H])([H])[C@]1([H])[C@]2([H])C([H])([H])C([H])([H])[C@]2(C([H])([H])[H])C(=O)C([H])([H])C([H])([H])[C@]21[H]


 21 24  0  0  0  0  0  0  0  0999 V2000
   -0.0415    4.5069   12.5572 C   0  0  0  0  0  0  0  0  0  0  0  0
   -0.4188    5.9675   12.6015 C   0  0  0  0  0  0  0  0  0  0  0  0
   -1.7895    6.1761   12.0699 C   0  0  0  0  0  0  0  0  0  0  0  0
   -1.8152    5.6794   10.6388 C   0  0  0  0  0  0  0  0  0  0  0  0
   -0.8371    6.4307    9.8027 C   0  0  0  0  0  0  0  0  0  0  0  0
    0.5874    6.3863   10.3450 C   0  0  0  0  0  0  0  0  0  0  0  0
    1.4142    7.4276    9.6049 C   0  0  0  0  0  0  0  0  0  0  0  0
    1.3408    7.3059    8.1250 C   0  0  0  0  0  0  0  0  0  0  0  0
   -0.0635    7.1278    7.6501 C   0  0  0  0  0  0  0  0  0  0  0  0
   -0.5577    7.8708    6.6805 C   0  0  0  0  0  0  0  0  0  0  0  0
   -1.9160    7.6751    6.2443 C   0  0  0  0  0  0  0  0  0  0  0  0
   -2.3669    8.4049    5.3078 O   0  0  0  0  0  0  0  0  0  0  0  0
   -2.7346    6.6682    6.8668 C   0  0  0  0  0  0  0  0  0  0  0  0
   -2.2095    5.9393    7.8374 C   0  0  0  0  0  0  0  0  0  0  0  0
   -0.8487    6.0610    8.3502 C   0  0  0  0  0  0  0  0  0  0  0  0
   -0.1248    4.7443    8.0888 C   0  0  0  0  0  0  0  0  0  0  0  0
    0.5127    6.8219   11.7606 C   0  0  0  0  0  0  0  0  0  0  0  0
    1.7721    6.7943   12.5309 C   0  0  0  0  0  0  0  0  0  0  0  0
    1.2739    6.8610   13.9812 C   0  0  0  0  0  0  0  0  0  0  0  0
   -0.1684    6.5603   13.9279 C   0  0  0  0  0  0  0  0  0  0  0  0
   -0.9838    6.7551   14.7856 O   0  0  0  0  0  0  0  0  0  0  0  0
  2  1  1  0  0  0
  2  3  1  0  0  0
  3  4  1  0  0  0
  4  5  1  0  0  0
  5  6  1  0  0  0
  6  7  1  0  0  0
  7  8  1  0  0  0
  8  9  1  0  0  0
  9 10  2  0  0  0
 10 11  1  0  0  0
 11 12  2  0  0  0
 11 13  1  0  0  0
 13 14  2  0  0  0
 14 15  1  0  0  0
 15 16  1  0  0  0
  6 17  1  0  0  0
 17 18  1  0  0  0
 18 19  1  0  0  0
 19 20  1  0  0  0
 20 21  2  0  0  0
 17  2  1  0  0  0
 20  2  1  0  0  0
 15  5  1  0  0  0
 15  9  1  0  0  0
M  END
> <minimizedAffinity>
-5.02746

> <CNNscore>
0.4642972350

> <CNNaffinity>
4.8581380844

> <CNN_VS>
2.2556200027

> <CNNaffinity_variance>
0.1012336761

$$$$
[H]C1=C([H])[C@@]2(C([H])([H])[H])C(=C([H])C1=O)C([H])([H])C([H])([H])[C@]1([H])[C@]2([H])C([H])([H])C([H])([H])[C@]2(C([H])([H])[H])C(=O)C([H])([H])C([H])([H])[C@]21[H]


 21 24  0  0  0  0  0  0  0  0999 V2000
    5.8905    4.0553   17.2812 C   0  0  0  0  0  0  0  0  0  0  0  0
    4.5343    4.3668   17.8653 C   0  0  0  0  0  0  0  0  0  0  0  0
    4.6676    5.0670   19.1680 C   0  0  0  0  0  0  0  0  0  0  0  0
    5.4387    4.1620   20.1070 C   0  0  0  0  0  0  0  0  0  0  0  0
    4.7185    2.8728   20.3060 C   0  0  0  0  0  0  0  0  0  0  0  0
    4.4156    2.1380   19.0046 C   0  0  0  0  0  0  0  0  0  0  0  0
    3.4213    1.0254   19.3032 C   0  0  0  0  0  0  0  0  0  0  0  0
    3.8481    0.1239   20.4057 C   0  0  0  0  0  0  0  0  0  0  0  0
    4.3490    0.8876   21.5869 C   0  0  0  0  0  0  0  0  0  0  0  0
    3.9085    0.6344   22.8027 C   0  0  0  0  0  0  0  0  0  0  0  0
    4.4109    1.3882   23.9221 C   0  0  0  0  0  0  0  0  0  0  0  0
    3.9693    1.1234   25.0831 O   0  0  0  0  0  0  0  0  0  0  0  0
    5.3942    2.4183   23.7139 C   0  0  0  0  0  0  0  0  0  0  0  0
    5.8157    2.6486   22.4816 C   0  0  0  0  0  0  0  0  0  0  0  0
    5.3690    1.9427   21.2851 C   0  0  0  0  0  0  0  0  0  0  0  0
    6.5721    1.2260   20.6813 C   0  0  0  0  0  0  0  0  0  0  0  0
    3.7233    3.1098   18.1239 C   0  0  0  0  0  0  0  0  0  0  0  0
    3.3859    2.6483   16.7625 C   0  0  0  0  0  0  0  0  0  0  0  0
    3.1132    3.9665   16.0249 C   0  0  0  0  0  0  0  0  0  0  0  0
    3.6540    5.0324   16.8879 C   0  0  0  0  0  0  0  0  0  0  0  0
    3.4295    6.2085   16.8178 O   0  0  0  0  0  0  0  0  0  0  0  0
  2  1  1  0  0  0
  2  3  1  0  0  0
  3  4  1  0  0  0
  4  5  1  0  0  0
  5  6  1  0  0  0
  6  7  1  0  0  0
  7  8  1  0  0  0
  8  9  1  0  0  0
  9 10  2  0  0  0
 10 11  1  0  0  0
 11 12  2  0  0  0
 11 13  1  0  0  0
 13 14  2  0  0  0
 14 15  1  0  0  0
 15 16  1  0  0  0
  6 17  1  0  0  0
 17 18  1  0  0  0
 18 19  1  0  0  0
 19 20  1  0  0  0
 20 21  2  0  0  0
 17  2  1  0  0  0
 20  2  1  0  0  0
 15  5  1  0  0  0
 15  9  1  0  0  0
M  END
> <minimizedAffinity>
-7.20570

> <CNNscore>
0.4604036808

> <CNNaffinity>
6.1791229248

> <CNN_VS>
2.8448908329

> <CNNaffinity_variance>
0.1427781135

$$$$
[H]C1=C([H])[C@@]2(C([H])([H])[H])C(=C([H])C1=O)C([H])([H])C([H])([H])[C@]1([H])[C@]2([H])C([H])([H])C([H])([H])[C@]2(C([H])([H])[H])C(=O)C([H])([H])C([H])([H])[C@]21[H]


 21 24  0  0  0  0  0  0  0  0999 V2000
    4.3974    4.4527   15.5360 C   0  0  0  0  0  0  0  0  0  0  0  0
    3.1248    3.8541   16.0834 C   0  0  0  0  0  0  0  0  0  0  0  0
    2.4276    4.8167   16.9734 C   0  0  0  0  0  0  0  0  0  0  0  0
    3.3660    5.1638   18.1111 C   0  0  0  0  0  0  0  0  0  0  0  0
    3.7297    3.9435   18.8850 C   0  0  0  0  0  0  0  0  0  0  0  0
    4.3355    2.8376   18.0277 C   0  0  0  0  0  0  0  0  0  0  0  0
    4.3671    1.5574   18.8498 C   0  0  0  0  0  0  0  0  0  0  0  0
    5.0316    1.7128   20.1706 C   0  0  0  0  0  0  0  0  0  0  0  0
    4.5677    2.9383   20.8864 C   0  0  0  0  0  0  0  0  0  0  0  0
    4.1652    2.8878   22.1401 C   0  0  0  0  0  0  0  0  0  0  0  0
    3.7235    4.0871   22.8034 C   0  0  0  0  0  0  0  0  0  0  0  0
    3.3410    4.0100   24.0121 O   0  0  0  0  0  0  0  0  0  0  0  0
    3.7212    5.3415   22.0979 C   0  0  0  0  0  0  0  0  0  0  0  0
    4.1305    5.3590   20.8403 C   0  0  0  0  0  0  0  0  0  0  0  0
    4.5944    4.2018   20.0818 C   0  0  0  0  0  0  0  0  0  0  0  0
    6.0500    4.4418   19.6952 C   0  0  0  0  0  0  0  0  0  0  0  0
    3.3907    2.6075   16.9080 C   0  0  0  0  0  0  0  0  0  0  0  0
    3.7964    1.6181   15.8899 C   0  0  0  0  0  0  0  0  0  0  0  0
    2.8622    1.9482   14.7176 C   0  0  0  0  0  0  0  0  0  0  0  0
    2.2880    3.2723   15.0183 C   0  0  0  0  0  0  0  0  0  0  0  0
    1.3318    3.7835   14.5054 O   0  0  0  0  0  0  0  0  0  0  0  0
  2  1  1  0  0  0
  2  3  1  0  0  0
  3  4  1  0  0  0
  4  5  1  0  0  0
  5  6  1  0  0  0
  6  7  1  0  0  0
  7  8  1  0  0  0
  8  9  1  0  0  0
  9 10  2  0  0  0
 10 11  1  0  0  0
 11 12  2  0  0  0
 11 13  1  0  0  0
 13 14  2  0  0  0
 14 15  1  0  0  0
 15 16  1  0  0  0
  6 17  1  0  0  0
 17 18  1  0  0  0
 18 19  1  0  0  0
 19 20  1  0  0  0
 20 21  2  0  0  0
 17  2  1  0  0  0
 20  2  1  0  0  0
 15  5  1  0  0  0
 15  9  1  0  0  0
M  END
> <minimizedAffinity>
-7.93373

> <CNNscore>
0.4335182607

> <CNNaffinity>
5.7326593399

> <CNN_VS>
2.4852125645

> <CNNaffinity_variance>
0.2656864226

$$$$
[H]C1=C([H])[C@@]2(C([H])([H])[H])C(=C([H])C1=O)C([H])([H])C([H])([H])[C@]1([H])[C@]2([H])C([H])([H])C([H])([H])[C@]2(C([H])([H])[H])C(=O)C([H])([H])C([H])([H])[C@]21[H]


 21 24  0  0  0  0  0  0  0  0999 V2000
    6.5747    6.3545   19.2837 C   0  0  0  0  0  0  0  0  0  0  0  0
    5.3167    7.1739   19.1305 C   0  0  0  0  0  0  0  0  0  0  0  0
    4.1095    6.3288   19.3125 C   0  0  0  0  0  0  0  0  0  0  0  0
    4.1438    5.2348   18.2650 C   0  0  0  0  0  0  0  0  0  0  0  0
    4.1412    5.8181   16.8938 C   0  0  0  0  0  0  0  0  0  0  0  0
    5.2753    6.8082   16.6518 C   0  0  0  0  0  0  0  0  0  0  0  0
    4.9872    7.5599   15.3604 C   0  0  0  0  0  0  0  0  0  0  0  0
    4.7208    6.6706   14.1992 C   0  0  0  0  0  0  0  0  0  0  0  0
    3.7673    5.5748   14.5445 C   0  0  0  0  0  0  0  0  0  0  0  0
    2.7160    5.3196   13.7922 C   0  0  0  0  0  0  0  0  0  0  0  0
    1.8145    4.2558   14.1515 C   0  0  0  0  0  0  0  0  0  0  0  0
    0.8091    4.0314   13.4086 O   0  0  0  0  0  0  0  0  0  0  0  0
    2.0608    3.4707   15.3323 C   0  0  0  0  0  0  0  0  0  0  0  0
    3.1242    3.7519   16.0667 C   0  0  0  0  0  0  0  0  0  0  0  0
    4.0938    4.8066   15.7887 C   0  0  0  0  0  0  0  0  0  0  0  0
    5.4509    4.1519   15.5533 C   0  0  0  0  0  0  0  0  0  0  0  0
    5.2098    7.8006   17.7519 C   0  0  0  0  0  0  0  0  0  0  0  0
    6.2632    8.8349   17.7763 C   0  0  0  0  0  0  0  0  0  0  0  0
    6.1626    9.3751   19.2095 C   0  0  0  0  0  0  0  0  0  0  0  0
    5.3520    8.3953   19.9553 C   0  0  0  0  0  0  0  0  0  0  0  0
    4.8224    8.5502   21.0202 O   0  0  0  0  0  0  0  0  0  0  0  0
  2  1  1  0  0  0
  2  3  1  0  0  0
  3  4  1  0  0  0
  4  5  1  0  0  0
  5  6  1  0  0  0
  6  7  1  0  0  0
  7  8  1  0  0  0
  8  9  1  0  0  0
  9 10  2  0  0  0
 10 11  1  0  0  0
 11 12  2  0  0  0
 11 13  1  0  0  0
 13 14  2  0  0  0
 14 15  1  0  0  0
 15 16  1  0  0  0
  6 17  1  0  0  0
 17 18  1  0  0  0
 18 19  1  0  0  0
 19 20  1  0  0  0
 20 21  2  0  0  0
 17  2  1  0  0  0
 20  2  1  0  0  0
 15  5  1  0  0  0
 15  9  1  0  0  0
M  END
> <minimizedAffinity>
-1.69719

> <CNNscore>
0.4316805601

> <CNNaffinity>
5.2095098495

> <CNN_VS>
2.2488441467

> <CNNaffinity_variance>
0.6083475351

$$$$
[H]C1=C([H])[C@@]2(C([H])([H])[H])C(=C([H])C1=O)C([H])([H])C([H])([H])[C@]1([H])[C@]2([H])C([H])([H])C([H])([H])[C@]2(C([H])([H])[H])C(=O)C([H])([H])C([H])([H])[C@]21[H]


 21 24  0  0  0  0  0  0  0  0999 V2000
    6.6124    5.5665   22.5670 C   0  0  0  0  0  0  0  0  0  0  0  0
    6.3570    6.8650   21.8415 C   0  0  0  0  0  0  0  0  0  0  0  0
    4.9012    7.0874   21.6518 C   0  0  0  0  0  0  0  0  0  0  0  0
    4.3538    5.9284   20.8441 C   0  0  0  0  0  0  0  0  0  0  0  0
    5.0229    5.8499   19.5150 C   0  0  0  0  0  0  0  0  0  0  0  0
    6.5421    5.7529   19.6036 C   0  0  0  0  0  0  0  0  0  0  0  0
    7.1192    5.9976   18.2169 C   0  0  0  0  0  0  0  0  0  0  0  0
    6.5315    5.1277   17.1642 C   0  0  0  0  0  0  0  0  0  0  0  0
    5.0420    5.0756   17.2527 C   0  0  0  0  0  0  0  0  0  0  0  0
    4.2856    5.2813   16.1934 C   0  0  0  0  0  0  0  0  0  0  0  0
    2.8516    5.2243   16.3106 C   0  0  0  0  0  0  0  0  0  0  0  0
    2.1465    5.4264   15.2737 O   0  0  0  0  0  0  0  0  0  0  0  0
    2.2434    4.9428   17.5842 C   0  0  0  0  0  0  0  0  0  0  0  0
    3.0298    4.7414   18.6284 C   0  0  0  0  0  0  0  0  0  0  0  0
    4.4885    4.7787   18.6129 C   0  0  0  0  0  0  0  0  0  0  0  0
    5.0016    3.3957   19.0000 C   0  0  0  0  0  0  0  0  0  0  0  0
    6.9866    6.8789   20.4602 C   0  0  0  0  0  0  0  0  0  0  0  0
    8.4311    6.9576   20.7562 C   0  0  0  0  0  0  0  0  0  0  0  0
    8.4701    7.9077   21.9611 C   0  0  0  0  0  0  0  0  0  0  0  0
    7.0840    7.9907   22.4561 C   0  0  0  0  0  0  0  0  0  0  0  0
    6.6281    8.8063   23.2081 O   0  0  0  0  0  0  0  0  0  0  0  0
  2  1  1  0  0  0
  2  3  1  0  0  0
  3  4  1  0  0  0
  4  5  1  0  0  0
  5  6  1  0  0  0
  6  7  1  0  0  0
  7  8  1  0  0  0
  8  9  1  0  0  0
  9 10  2  0  0  0
 10 11  1  0  0  0
 11 12  2  0  0  0
 11 13  1  0  0  0
 13 14  2  0  0  0
 14 15  1  0  0  0
 15 16  1  0  0  0
  6 17  1  0  0  0
 17 18  1  0  0  0
 18 19  1  0  0  0
 19 20  1  0  0  0
 20 21  2  0  0  0
 17  2  1  0  0  0
 20  2  1  0  0  0
 15  5  1  0  0  0
 15  9  1  0  0  0
M  END
> <minimizedAffinity>
-5.95355

> <CNNscore>
0.3947918415

> <CNNaffinity>
5.4663248062

> <CNN_VS>
2.1580605507

> <CNNaffinity_variance>
0.4549740255

$$$$
[H]C1=C([H])[C@@]2(C([H])([H])[H])C(=C([H])C1=O)C([H])([H])C([H])([H])[C@]1([H])[C@]2([H])C([H])([H])C([H])([H])[C@]2(C([H])([H])[H])C(=O)C([H])([H])C([H])([H])[C@]21[H]


 21 24  0  0  0  0  0  0  0  0999 V2000
    5.0987    1.3085   17.2243 C   0  0  0  0  0  0  0  0  0  0  0  0
    3.7289    1.5818   17.7957 C   0  0  0  0  0  0  0  0  0  0  0  0
    2.6747    0.9315   16.9767 C   0  0  0  0  0  0  0  0  0  0  0  0
    2.7678    1.4872   15.5703 C   0  0  0  0  0  0  0  0  0  0  0  0
    2.5580    2.9624   15.5718 C   0  0  0  0  0  0  0  0  0  0  0  0
    3.5141    3.7119   16.4934 C   0  0  0  0  0  0  0  0  0  0  0  0
    3.0064    5.1375   16.6530 C   0  0  0  0  0  0  0  0  0  0  0  0
    2.7637    5.8324   15.3613 C   0  0  0  0  0  0  0  0  0  0  0  0
    2.0100    4.9737   14.4002 C   0  0  0  0  0  0  0  0  0  0  0  0
    0.9412    5.4226   13.7737 C   0  0  0  0  0  0  0  0  0  0  0  0
    0.2355    4.5702   12.8523 C   0  0  0  0  0  0  0  0  0  0  0  0
   -0.7915    5.0282   12.2620 O   0  0  0  0  0  0  0  0  0  0  0  0
    0.6967    3.2276   12.6151 C   0  0  0  0  0  0  0  0  0  0  0  0
    1.7721    2.8066   13.2598 C   0  0  0  0  0  0  0  0  0  0  0  0
    2.5536    3.5904   14.2108 C   0  0  0  0  0  0  0  0  0  0  0  0
    3.9625    3.7488   13.6489 C   0  0  0  0  0  0  0  0  0  0  0  0
    3.4094    3.0656   17.8241 C   0  0  0  0  0  0  0  0  0  0  0  0
    4.3040    3.5761   18.8821 C   0  0  0  0  0  0  0  0  0  0  0  0
    4.2590    2.4504   19.9244 C   0  0  0  0  0  0  0  0  0  0  0  0
    3.6662    1.2876   19.2390 C   0  0  0  0  0  0  0  0  0  0  0  0
    3.2192    0.2959   19.7442 O   0  0  0  0  0  0  0  0  0  0  0  0
  2  1  1  0  0  0
  2  3  1  0  0  0
  3  4  1  0  0  0
  4  5  1  0  0  0
  5  6  1  0  0  0
  6  7  1  0  0  0
  7  8  1  0  0  0
  8  9  1  0  0  0
  9 10  2  0  0  0
 10 11  1  0  0  0
 11 12  2  0  0  0
 11 13  1  0  0  0
 13 14  2  0  0  0
 14 15  1  0  0  0
 15 16  1  0  0  0
  6 17  1  0  0  0
 17 18  1  0  0  0
 18 19  1  0  0  0
 19 20  1  0  0  0
 20 21  2  0  0  0
 17  2  1  0  0  0
 20  2  1  0  0  0
 15  5  1  0  0  0
 15  9  1  0  0  0
M  END
> <minimizedAffinity>
-6.79479

> <CNNscore>
0.3802582324

> <CNNaffinity>
5.4025664330

> <CNN_VS>
2.0543704033

> <CNNaffinity_variance>
0.1664116085

$$$$
[H]C1=C(C(=O)[O-])N2C(=O)/C(=C(\[H])c3sc4c([H])c([H])c(Cl)c([H])c4c3[H])[C@@]2([H])S1


 22 25  0  0  0  0  0  0  0  0999 V2000
    2.3341    5.2128   14.3385 C   0  0  0  0  0  0  0  0  0  0  0  0
    2.5962    5.8183   15.4683 C   0  0  0  0  0  0  0  0  0  0  0  0
    2.9664    4.5381   16.6644 S   0  0  0  0  0  0  0  0  0  0  0  0
    2.1261    3.2507   15.6635 C   0  0  0  0  0  0  0  0  0  0  0  0
    2.4106    3.8110   14.3606 N   0  0  0  0  0  0  0  0  0  0  0  0
    2.6053    2.5119   13.8871 C   0  0  0  0  0  0  0  0  0  0  0  0
    2.6036    1.8258   12.8267 O   0  0  0  0  0  0  0  0  0  0  0  0
    2.8701    2.0835   15.2868 C   0  0  0  0  0  0  0  0  0  0  0  0
    3.4779    1.0746   15.8417 C   0  0  0  0  0  0  0  0  0  0  0  0
    3.5030    0.9394   17.3008 C   0  0  0  0  0  0  0  0  0  0  0  0
    4.3488    1.5938   18.1677 C   0  0  0  0  0  0  0  0  0  0  0  0
    4.2032    1.3416   19.4886 C   0  0  0  0  0  0  0  0  0  0  0  0
    4.9521    1.8800   20.5490 C   0  0  0  0  0  0  0  0  0  0  0  0
    4.7208    1.5448   21.8495 C   0  0  0  0  0  0  0  0  0  0  0  0
    5.7233    2.2670   23.1373 Cl  0  0  0  0  0  0  0  0  0  0  0  0
    3.7357    0.6548   22.2094 C   0  0  0  0  0  0  0  0  0  0  0  0
    2.9867    0.1118   21.1944 C   0  0  0  0  0  0  0  0  0  0  0  0
    3.2282    0.4597   19.8516 C   0  0  0  0  0  0  0  0  0  0  0  0
    2.5468    0.0076   18.3609 S   0  0  0  0  0  0  0  0  0  0  0  0
    1.3564    5.4169   12.0613 O   0  0  0  0  0  0  0  0  0  0  0  0
    1.9897    6.0064   13.1553 C   0  0  0  0  0  0  0  0  0  0  0  0
    2.2366    7.2435   13.0488 O   0  0  0  0  0  0  0  0  0  0  0  0
 20 21  1  0  0  0
 21 22  2  0  0  0
 21  1  1  0  0  0
  1  2  2  0  0  0
  2  3  1  0  0  0
  3  4  1  0  0  0
  4  5  1  0  0  0
  5  6  1  0  0  0
  6  7  2  0  0  0
  6  8  1  0  0  0
  8  9  2  0  0  0
  9 10  1  0  0  0
 10 11  2  0  0  0
 11 12  1  0  0  0
 12 13  2  0  0  0
 13 14  1  0  0  0
 14 15  1  0  0  0
 14 16  2  0  0  0
 16 17  1  0  0  0
 17 18  2  0  0  0
 18 19  1  0  0  0
  5  1  1  0  0  0
 19 10  1  0  0  0
  8  4  1  0  0  0
 18 12  1  0  0  0
M  CHG 1  20  -1
M  END
> <minimizedAffinity>
-7.41688

> <CNNscore>
0.6489214897

> <CNNaffinity>
5.7654142380

> <CNN_VS>
3.7413012981

> <CNNaffinity_variance>
0.1934702545

$$$$
[H]C1=C(C(=O)[O-])N2C(=O)/C(=C(\[H])c3sc4c([H])c([H])c(Cl)c([H])c4c3[H])[C@@]2([H])S1


 22 25  0  0  0  0  0  0  0  0999 V2000
    3.4238    4.4140    8.8404 C   0  0  0  0  0  0  0  0  0  0  0  0
    3.5817    3.1226    8.9781 C   0  0  0  0  0  0  0  0  0  0  0  0
    3.2679    2.7464   10.7004 S   0  0  0  0  0  0  0  0  0  0  0  0
    3.5495    4.4853   11.2128 C   0  0  0  0  0  0  0  0  0  0  0  0
    3.0697    5.1171   10.0031 N   0  0  0  0  0  0  0  0  0  0  0  0
    2.5012    6.1158   10.7962 C   0  0  0  0  0  0  0  0  0  0  0  0
    2.0975    7.3119   10.7571 O   0  0  0  0  0  0  0  0  0  0  0  0
    2.5123    5.1614   11.9372 C   0  0  0  0  0  0  0  0  0  0  0  0
    1.8690    5.0671   13.0653 C   0  0  0  0  0  0  0  0  0  0  0  0
    2.1819    3.9874   14.0056 C   0  0  0  0  0  0  0  0  0  0  0  0
    2.9103    4.1017   15.1682 C   0  0  0  0  0  0  0  0  0  0  0  0
    3.0777    2.9833   15.9104 C   0  0  0  0  0  0  0  0  0  0  0  0
    3.7851    2.8572   17.1182 C   0  0  0  0  0  0  0  0  0  0  0  0
    3.8954    1.6703   17.7786 C   0  0  0  0  0  0  0  0  0  0  0  0
    4.8197    1.5928   19.3033 Cl  0  0  0  0  0  0  0  0  0  0  0  0
    3.3191    0.5150   17.3040 C   0  0  0  0  0  0  0  0  0  0  0  0
    2.6208    0.6070   16.1250 C   0  0  0  0  0  0  0  0  0  0  0  0
    2.5089    1.8346   15.4447 C   0  0  0  0  0  0  0  0  0  0  0  0
    1.7643    2.3345   14.0002 S   0  0  0  0  0  0  0  0  0  0  0  0
    4.0329    4.2670    6.4341 O   0  0  0  0  0  0  0  0  0  0  0  0
    3.6168    5.0304    7.5246 C   0  0  0  0  0  0  0  0  0  0  0  0
    3.4250    6.2606    7.2956 O   0  0  0  0  0  0  0  0  0  0  0  0
 20 21  1  0  0  0
 21 22  2  0  0  0
 21  1  1  0  0  0
  1  2  2  0  0  0
  2  3  1  0  0  0
  3  4  1  0  0  0
  4  5  1  0  0  0
  5  6  1  0  0  0
  6  7  2  0  0  0
  6  8  1  0  0  0
  8  9  2  0  0  0
  9 10  1  0  0  0
 10 11  2  0  0  0
 11 12  1  0  0  0
 12 13  2  0  0  0
 13 14  1  0  0  0
 14 15  1  0  0  0
 14 16  2  0  0  0
 16 17  1  0  0  0
 17 18  2  0  0  0
 18 19  1  0  0  0
  5  1  1  0  0  0
 19 10  1  0  0  0
  8  4  1  0  0  0
 18 12  1  0  0  0
M  CHG 1  20  -1
M  END
> <minimizedAffinity>
-5.10146

> <CNNscore>
0.3824278116

> <CNNaffinity>
5.0209302902

> <CNN_VS>
1.9201433659

> <CNNaffinity_variance>
0.1558655202

$$$$
[H]C1=C(C(=O)[O-])N2C(=O)/C(=C(\[H])c3sc4c([H])c([H])c(Cl)c([H])c4c3[H])[C@@]2([H])S1


 22 25  0  0  0  0  0  0  0  0999 V2000
    3.3129    3.8094   18.2962 C   0  0  0  0  0  0  0  0  0  0  0  0
    4.5064    3.3356   18.0454 C   0  0  0  0  0  0  0  0  0  0  0  0
    4.7817    3.5383   16.2876 S   0  0  0  0  0  0  0  0  0  0  0  0
    2.9862    3.6939   15.9448 C   0  0  0  0  0  0  0  0  0  0  0  0
    2.6108    4.3211   17.1931 N   0  0  0  0  0  0  0  0  0  0  0  0
    1.7117    5.1157   16.4790 C   0  0  0  0  0  0  0  0  0  0  0  0
    0.6613    5.8034   16.6159 O   0  0  0  0  0  0  0  0  0  0  0  0
    2.5203    4.8630   15.2562 C   0  0  0  0  0  0  0  0  0  0  0  0
    2.6617    5.4574   14.1065 C   0  0  0  0  0  0  0  0  0  0  0  0
    3.5360    4.8822   13.0805 C   0  0  0  0  0  0  0  0  0  0  0  0
    4.1088    5.5543   12.0244 C   0  0  0  0  0  0  0  0  0  0  0  0
    4.9007    4.8430   11.1898 C   0  0  0  0  0  0  0  0  0  0  0  0
    5.5774    5.3091   10.0497 C   0  0  0  0  0  0  0  0  0  0  0  0
    6.3460    4.4943    9.2734 C   0  0  0  0  0  0  0  0  0  0  0  0
    7.1655    5.1630    7.8360 Cl  0  0  0  0  0  0  0  0  0  0  0  0
    6.5098    3.1584    9.5570 C   0  0  0  0  0  0  0  0  0  0  0  0
    5.8604    2.6736   10.6658 C   0  0  0  0  0  0  0  0  0  0  0  0
    5.0666    3.5177   11.4657 C   0  0  0  0  0  0  0  0  0  0  0  0
    4.1252    3.2971   12.8642 S   0  0  0  0  0  0  0  0  0  0  0  0
    3.4674    3.0770   20.6674 O   0  0  0  0  0  0  0  0  0  0  0  0
    2.7968    3.7815   19.6678 C   0  0  0  0  0  0  0  0  0  0  0  0
    1.7390    4.3766   20.0274 O   0  0  0  0  0  0  0  0  0  0  0  0
 20 21  1  0  0  0
 21 22  2  0  0  0
 21  1  1  0  0  0
  1  2  2  0  0  0
  2  3  1  0  0  0
  3  4  1  0  0  0
  4  5  1  0  0  0
  5  6  1  0  0  0
  6  7  2  0  0  0
  6  8  1  0  0  0
  8  9  2  0  0  0
  9 10  1  0  0  0
 10 11  2  0  0  0
 11 12  1  0  0  0
 12 13  2  0  0  0
 13 14  1  0  0  0
 14 15  1  0  0  0
 14 16  2  0  0  0
 16 17  1  0  0  0
 17 18  2  0  0  0
 18 19  1  0  0  0
  5  1  1  0  0  0
 19 10  1  0  0  0
  8  4  1  0  0  0
 18 12  1  0  0  0
M  CHG 1  20  -1
M  END
> <minimizedAffinity>
9.10853

> <CNNscore>
0.3818323612

> <CNNaffinity>
4.8759164810

> <CNN_VS>
1.8617826700

> <CNNaffinity_variance>
1.2311499119

$$$$
[H]C1=C(C(=O)[O-])N2C(=O)/C(=C(\[H])c3sc4c([H])c([H])c(Cl)c([H])c4c3[H])[C@@]2([H])S1


 22 25  0  0  0  0  0  0  0  0999 V2000
    1.9864    6.2785   12.5983 C   0  0  0  0  0  0  0  0  0  0  0  0
    2.5300    6.8939   13.6169 C   0  0  0  0  0  0  0  0  0  0  0  0
    3.0323    5.6251   14.7764 S   0  0  0  0  0  0  0  0  0  0  0  0
    1.8947    4.3898   14.0381 C   0  0  0  0  0  0  0  0  0  0  0  0
    1.9465    4.8772   12.6771 N   0  0  0  0  0  0  0  0  0  0  0  0
    1.9265    3.5505   12.2420 C   0  0  0  0  0  0  0  0  0  0  0  0
    1.6444    2.8327   11.2419 O   0  0  0  0  0  0  0  0  0  0  0  0
    2.4413    3.1459   13.5777 C   0  0  0  0  0  0  0  0  0  0  0  0
    3.0639    2.1034   14.0477 C   0  0  0  0  0  0  0  0  0  0  0  0
    3.3825    2.0151   15.4754 C   0  0  0  0  0  0  0  0  0  0  0  0
    2.9462    1.0473   16.3518 C   0  0  0  0  0  0  0  0  0  0  0  0
    3.3654    1.1347   17.6349 C   0  0  0  0  0  0  0  0  0  0  0  0
    3.0448    0.2746   18.6991 C   0  0  0  0  0  0  0  0  0  0  0  0
    3.5218    0.4663   19.9612 C   0  0  0  0  0  0  0  0  0  0  0  0
    3.0595   -0.6674   21.2596 Cl  0  0  0  0  0  0  0  0  0  0  0  0
    4.3510    1.5177   20.2759 C   0  0  0  0  0  0  0  0  0  0  0  0
    4.6822    2.3757   19.2560 C   0  0  0  0  0  0  0  0  0  0  0  0
    4.1876    2.1753   17.9530 C   0  0  0  0  0  0  0  0  0  0  0  0
    4.3536    2.9978   16.4742 S   0  0  0  0  0  0  0  0  0  0  0  0
    1.5529    6.5729   10.1675 O   0  0  0  0  0  0  0  0  0  0  0  0
    1.4705    7.0611   11.4714 C   0  0  0  0  0  0  0  0  0  0  0  0
    0.9318    8.1993   11.6010 O   0  0  0  0  0  0  0  0  0  0  0  0
 20 21  1  0  0  0
 21 22  2  0  0  0
 21  1  1  0  0  0
  1  2  2  0  0  0
  2  3  1  0  0  0
  3  4  1  0  0  0
  4  5  1  0  0  0
  5  6  1  0  0  0
  6  7  2  0  0  0
  6  8  1  0  0  0
  8  9  2  0  0  0
  9 10  1  0  0  0
 10 11  2  0  0  0
 11 12  1  0  0  0
 12 13  2  0  0  0
 13 14  1  0  0  0
 14 15  1  0  0  0
 14 16  2  0  0  0
 16 17  1  0  0  0
 17 18  2  0  0  0
 18 19  1  0  0  0
  5  1  1  0  0  0
 19 10  1  0  0  0
  8  4  1  0  0  0
 18 12  1  0  0  0
M  CHG 1  20  -1
M  END
> <minimizedAffinity>
-7.07104

> <CNNscore>
0.3586972654

> <CNNaffinity>
5.1952333450

> <CNN_VS>
1.8635159731

> <CNNaffinity_variance>
0.2679217160

$$$$
[H]C1=C(C(=O)[O-])N2C(=O)/C(=C(\[H])c3sc4c([H])c([H])c(Cl)c([H])c4c3[H])[C@@]2([H])S1


 22 25  0  0  0  0  0  0  0  0999 V2000
    6.0967    7.8677   21.7397 C   0  0  0  0  0  0  0  0  0  0  0  0
    4.8652    7.7861   21.3056 C   0  0  0  0  0  0  0  0  0  0  0  0
    4.4958    6.0427   21.1304 S   0  0  0  0  0  0  0  0  0  0  0  0
    6.2731    5.5907   21.0814 C   0  0  0  0  0  0  0  0  0  0  0  0
    6.7586    6.6462   21.9432 N   0  0  0  0  0  0  0  0  0  0  0  0
    7.6565    5.7301   22.4949 C   0  0  0  0  0  0  0  0  0  0  0  0
    8.7507    5.6593   23.1216 O   0  0  0  0  0  0  0  0  0  0  0  0
    6.7621    4.6349   22.0328 C   0  0  0  0  0  0  0  0  0  0  0  0
    6.5853    3.3884   22.3647 C   0  0  0  0  0  0  0  0  0  0  0  0
    5.6191    2.5607   21.6374 C   0  0  0  0  0  0  0  0  0  0  0  0
    5.4423    2.5191   20.2728 C   0  0  0  0  0  0  0  0  0  0  0  0
    4.5019    1.6739   19.7923 C   0  0  0  0  0  0  0  0  0  0  0  0
    4.1418    1.4705   18.4492 C   0  0  0  0  0  0  0  0  0  0  0  0
    3.1667    0.5930   18.0800 C   0  0  0  0  0  0  0  0  0  0  0  0
    2.7629    0.3998   16.3524 Cl  0  0  0  0  0  0  0  0  0  0  0  0
    2.4698   -0.1533   19.0017 C   0  0  0  0  0  0  0  0  0  0  0  0
    2.7997    0.0238   20.3230 C   0  0  0  0  0  0  0  0  0  0  0  0
    3.8074    0.9315   20.7014 C   0  0  0  0  0  0  0  0  0  0  0  0
    4.4728    1.4244   22.1864 S   0  0  0  0  0  0  0  0  0  0  0  0
    6.5073    9.8375   23.2006 O   0  0  0  0  0  0  0  0  0  0  0  0
    6.6927    9.1847   21.9821 C   0  0  0  0  0  0  0  0  0  0  0  0
    7.3947    9.8009   21.1276 O   0  0  0  0  0  0  0  0  0  0  0  0
 20 21  1  0  0  0
 21 22  2  0  0  0
 21  1  1  0  0  0
  1  2  2  0  0  0
  2  3  1  0  0  0
  3  4  1  0  0  0
  4  5  1  0  0  0
  5  6  1  0  0  0
  6  7  2  0  0  0
  6  8  1  0  0  0
  8  9  2  0  0  0
  9 10  1  0  0  0
 10 11  2  0  0  0
 11 12  1  0  0  0
 12 13  2  0  0  0
 13 14  1  0  0  0
 14 15  1  0  0  0
 14 16  2  0  0  0
 16 17  1  0  0  0
 17 18  2  0  0  0
 18 19  1  0  0  0
  5  1  1  0  0  0
 19 10  1  0  0  0
  8  4  1  0  0  0
 18 12  1  0  0  0
M  CHG 1  20  -1
M  END
> <minimizedAffinity>
-8.04145

> <CNNscore>
0.3518111706

> <CNNaffinity>
5.6446051598

> <CNN_VS>
1.9858351946

> <CNNaffinity_variance>
0.1062223166

$$$$
[H]C1=C(C(=O)[O-])N2C(=O)/C(=C(\[H])c3sc4c([H])c([H])c(Cl)c([H])c4c3[H])[C@@]2([H])S1


 22 25  0  0  0  0  0  0  0  0999 V2000
    2.7918    2.6888   14.5171 C   0  0  0  0  0  0  0  0  0  0  0  0
    3.3730    3.8603   14.4807 C   0  0  0  0  0  0  0  0  0  0  0  0
    4.0318    4.1590   16.1188 S   0  0  0  0  0  0  0  0  0  0  0  0
    2.9155    2.9179   16.8795 C   0  0  0  0  0  0  0  0  0  0  0  0
    2.8382    2.0179   15.7497 N   0  0  0  0  0  0  0  0  0  0  0  0
    2.8623    0.9494   16.6483 C   0  0  0  0  0  0  0  0  0  0  0  0
    2.5486   -0.2690   16.7583 O   0  0  0  0  0  0  0  0  0  0  0  0
    3.4970    1.8532   17.6450 C   0  0  0  0  0  0  0  0  0  0  0  0
    4.2114    1.6818   18.7199 C   0  0  0  0  0  0  0  0  0  0  0  0
    4.6394    2.8369   19.5138 C   0  0  0  0  0  0  0  0  0  0  0  0
    5.3151    3.9427   19.0493 C   0  0  0  0  0  0  0  0  0  0  0  0
    5.6094    4.9137   19.9438 C   0  0  0  0  0  0  0  0  0  0  0  0
    6.2950    6.1170   19.7043 C   0  0  0  0  0  0  0  0  0  0  0  0
    6.5439    7.0237   20.6908 C   0  0  0  0  0  0  0  0  0  0  0  0
    7.4295    8.5244   20.3054 Cl  0  0  0  0  0  0  0  0  0  0  0  0
    6.1384    6.8189   21.9892 C   0  0  0  0  0  0  0  0  0  0  0  0
    5.4655    5.6513   22.2540 C   0  0  0  0  0  0  0  0  0  0  0  0
    5.2102    4.7162   21.2328 C   0  0  0  0  0  0  0  0  0  0  0  0
    4.4446    3.1994   21.1682 S   0  0  0  0  0  0  0  0  0  0  0  0
    2.8604    2.0525   12.1143 O   0  0  0  0  0  0  0  0  0  0  0  0
    2.1497    2.1618   13.3094 C   0  0  0  0  0  0  0  0  0  0  0  0
    0.9428    1.7818   13.2700 O   0  0  0  0  0  0  0  0  0  0  0  0
 20 21  1  0  0  0
 21 22  2  0  0  0
 21  1  1  0  0  0
  1  2  2  0  0  0
  2  3  1  0  0  0
  3  4  1  0  0  0
  4  5  1  0  0  0
  5  6  1  0  0  0
  6  7  2  0  0  0
  6  8  1  0  0  0
  8  9  2  0  0  0
  9 10  1  0  0  0
 10 11  2  0  0  0
 11 12  1  0  0  0
 12 13  2  0  0  0
 13 14  1  0  0  0
 14 15  1  0  0  0
 14 16  2  0  0  0
 16 17  1  0  0  0
 17 18  2  0  0  0
 18 19  1  0  0  0
  5  1  1  0  0  0
 19 10  1  0  0  0
  8  4  1  0  0  0
 18 12  1  0  0  0
M  CHG 1  20  -1
M  END
> <minimizedAffinity>
-7.29364

> <CNNscore>
0.2829402983

> <CNNaffinity>
5.3879857063

> <CNN_VS>
1.5244783163

> <CNNaffinity_variance>
0.5363447666

$$$$
[H]C1=C(C(=O)[O-])N2C(=O)/C(=C(\[H])c3sc4c([H])c([H])c(Cl)c([H])c4c3[H])[C@@]2([H])S1


 22 25  0  0  0  0  0  0  0  0999 V2000
    3.7440    4.8634    9.3928 C   0  0  0  0  0  0  0  0  0  0  0  0
    4.8138    5.2997   10.0067 C   0  0  0  0  0  0  0  0  0  0  0  0
    4.7384    4.6713   11.6818 S   0  0  0  0  0  0  0  0  0  0  0  0
    2.9317    4.3726   11.5719 C   0  0  0  0  0  0  0  0  0  0  0  0
    2.8779    4.0669   10.1590 N   0  0  0  0  0  0  0  0  0  0  0  0
    1.9248    3.0878   10.4465 C   0  0  0  0  0  0  0  0  0  0  0  0
    0.9899    2.4208    9.9210 O   0  0  0  0  0  0  0  0  0  0  0  0
    2.4391    3.0527   11.8419 C   0  0  0  0  0  0  0  0  0  0  0  0
    2.3929    2.1935   12.8191 C   0  0  0  0  0  0  0  0  0  0  0  0
    2.9832    2.5220   14.1196 C   0  0  0  0  0  0  0  0  0  0  0  0
    3.1198    1.6715   15.1934 C   0  0  0  0  0  0  0  0  0  0  0  0
    3.7074    2.1647   16.3074 C   0  0  0  0  0  0  0  0  0  0  0  0
    3.9433    1.4919   17.5185 C   0  0  0  0  0  0  0  0  0  0  0  0
    4.5397    2.0959   18.5846 C   0  0  0  0  0  0  0  0  0  0  0  0
    4.7949    1.1735   20.0909 Cl  0  0  0  0  0  0  0  0  0  0  0  0
    4.9511    3.4078   18.5437 C   0  0  0  0  0  0  0  0  0  0  0  0
    4.7340    4.0917   17.3727 C   0  0  0  0  0  0  0  0  0  0  0  0
    4.1171    3.4651   16.2730 C   0  0  0  0  0  0  0  0  0  0  0  0
    3.6776    3.9635   14.7080 S   0  0  0  0  0  0  0  0  0  0  0  0
    4.2557    6.2377    7.3848 O   0  0  0  0  0  0  0  0  0  0  0  0
    3.5207    5.2175    7.9881 C   0  0  0  0  0  0  0  0  0  0  0  0
    2.6707    4.6391    7.2495 O   0  0  0  0  0  0  0  0  0  0  0  0
 20 21  1  0  0  0
 21 22  2  0  0  0
 21  1  1  0  0  0
  1  2  2  0  0  0
  2  3  1  0  0  0
  3  4  1  0  0  0
  4  5  1  0  0  0
  5  6  1  0  0  0
  6  7  2  0  0  0
  6  8  1  0  0  0
  8  9  2  0  0  0
  9 10  1  0  0  0
 10 11  2  0  0  0
 11 12  1  0  0  0
 12 13  2  0  0  0
 13 14  1  0  0  0
 14 15  1  0  0  0
 14 16  2  0  0  0
 16 17  1  0  0  0
 17 18  2  0  0  0
 18 19  1  0  0  0
  5  1  1  0  0  0
 19 10  1  0  0  0
  8  4  1  0  0  0
 18 12  1  0  0  0
M  CHG 1  20  -1
M  END
> <minimizedAffinity>
-5.83323

> <CNNscore>
0.2779742777

> <CNNaffinity>
5.1240448952

> <CNN_VS>
1.4243526459

> <CNNaffinity_variance>
0.3277040124

$$$$
[H]C1=C(C(=O)[O-])N2C(=O)/C(=C(\[H])c3sc4c([H])c([H])c(Cl)c([H])c4c3[H])[C@@]2([H])S1


 22 25  0  0  0  0  0  0  0  0999 V2000
    4.8690    2.3229   22.5474 C   0  0  0  0  0  0  0  0  0  0  0  0
    4.2096    1.4687   21.8076 C   0  0  0  0  0  0  0  0  0  0  0  0
    4.0229    2.2221   20.1939 S   0  0  0  0  0  0  0  0  0  0  0  0
    4.3303    3.9046   20.8571 C   0  0  0  0  0  0  0  0  0  0  0  0
    5.2348    3.5247   21.9201 N   0  0  0  0  0  0  0  0  0  0  0  0
    5.9776    4.6751   21.6469 C   0  0  0  0  0  0  0  0  0  0  0  0
    6.8045    5.4756   22.1670 O   0  0  0  0  0  0  0  0  0  0  0  0
    5.3880    4.6840   20.2812 C   0  0  0  0  0  0  0  0  0  0  0  0
    5.7197    5.2123   19.1384 C   0  0  0  0  0  0  0  0  0  0  0  0
    4.8475    5.0546   17.9712 C   0  0  0  0  0  0  0  0  0  0  0  0
    4.8418    3.9949   17.0925 C   0  0  0  0  0  0  0  0  0  0  0  0
    3.9453    4.0304   16.0803 C   0  0  0  0  0  0  0  0  0  0  0  0
    3.7637    3.0750   15.0657 C   0  0  0  0  0  0  0  0  0  0  0  0
    2.8283    3.2206   14.0854 C   0  0  0  0  0  0  0  0  0  0  0  0
    2.6674    1.9650   12.8274 Cl  0  0  0  0  0  0  0  0  0  0  0  0
    1.9984    4.3159   14.0257 C   0  0  0  0  0  0  0  0  0  0  0  0
    2.1523    5.2671   15.0043 C   0  0  0  0  0  0  0  0  0  0  0  0
    3.1199    5.1142   16.0157 C   0  0  0  0  0  0  0  0  0  0  0  0
    3.6082    6.0472   17.3506 S   0  0  0  0  0  0  0  0  0  0  0  0
    4.2327    1.3564   24.7483 O   0  0  0  0  0  0  0  0  0  0  0  0
    5.1788    1.9861   23.9398 C   0  0  0  0  0  0  0  0  0  0  0  0
    6.2926    2.2366   24.4870 O   0  0  0  0  0  0  0  0  0  0  0  0
 20 21  1  0  0  0
 21 22  2  0  0  0
 21  1  1  0  0  0
  1  2  2  0  0  0
  2  3  1  0  0  0
  3  4  1  0  0  0
  4  5  1  0  0  0
  5  6  1  0  0  0
  6  7  2  0  0  0
  6  8  1  0  0  0
  8  9  2  0  0  0
  9 10  1  0  0  0
 10 11  2  0  0  0
 11 12  1  0  0  0
 12 13  2  0  0  0
 13 14  1  0  0  0
 14 15  1  0  0  0
 14 16  2  0  0  0
 16 17  1  0  0  0
 17 18  2  0  0  0
 18 19  1  0  0  0
  5  1  1  0  0  0
 19 10  1  0  0  0
  8  4  1  0  0  0
 18 12  1  0  0  0
M  CHG 1  20  -1
M  END
> <minimizedAffinity>
-6.80186

> <CNNscore>
0.2737840712

> <CNNaffinity>
5.6267089844

> <CNN_VS>
1.5405032635

> <CNNaffinity_variance>
0.1661823094

$$$$
[H]C1=C(C(=O)[O-])N2C(=O)/C(=C(\[H])c3sc4c([H])c([H])c(Cl)c([H])c4c3[H])[C@@]2([H])S1


 22 25  0  0  0  0  0  0  0  0999 V2000
    1.7884    6.0952   13.0117 C   0  0  0  0  0  0  0  0  0  0  0  0
    2.1920    6.6997   14.0996 C   0  0  0  0  0  0  0  0  0  0  0  0
    2.7462    5.4206   15.2236 S   0  0  0  0  0  0  0  0  0  0  0  0
    1.8002    4.1225   14.3374 C   0  0  0  0  0  0  0  0  0  0  0  0
    1.8928    4.6949   13.0122 N   0  0  0  0  0  0  0  0  0  0  0  0
    2.0445    3.4023   12.5063 C   0  0  0  0  0  0  0  0  0  0  0  0
    1.9098    2.7218   11.4509 O   0  0  0  0  0  0  0  0  0  0  0  0
    2.5067    2.9718   13.8531 C   0  0  0  0  0  0  0  0  0  0  0  0
    3.2033    1.9719   14.3116 C   0  0  0  0  0  0  0  0  0  0  0  0
    3.4309    1.8297   15.7523 C   0  0  0  0  0  0  0  0  0  0  0  0
    4.1707    2.6732   16.5501 C   0  0  0  0  0  0  0  0  0  0  0  0
    4.2494    2.3748   17.8670 C   0  0  0  0  0  0  0  0  0  0  0  0
    4.9489    3.0783   18.8624 C   0  0  0  0  0  0  0  0  0  0  0  0
    4.9647    2.6775   20.1648 C   0  0  0  0  0  0  0  0  0  0  0  0
    5.8856    3.6224   21.3664 Cl  0  0  0  0  0  0  0  0  0  0  0  0
    4.2943    1.5545   20.5906 C   0  0  0  0  0  0  0  0  0  0  0  0
    3.6012    0.8458   19.6401 C   0  0  0  0  0  0  0  0  0  0  0  0
    3.5870    1.2621   18.2952 C   0  0  0  0  0  0  0  0  0  0  0  0
    2.8799    0.6650   16.8688 S   0  0  0  0  0  0  0  0  0  0  0  0
    1.4511    6.4658   10.5762 O   0  0  0  0  0  0  0  0  0  0  0  0
    1.2704    6.8881   11.8931 C   0  0  0  0  0  0  0  0  0  0  0  0
    0.6430    7.9776   12.0417 O   0  0  0  0  0  0  0  0  0  0  0  0
 20 21  1  0  0  0
 21 22  2  0  0  0
 21  1  1  0  0  0
  1  2  2  0  0  0
  2  3  1  0  0  0
  3  4  1  0  0  0
  4  5  1  0  0  0
  5  6  1  0  0  0
  6  7  2  0  0  0
  6  8  1  0  0  0
  8  9  2  0  0  0
  9 10  1  0  0  0
 10 11  2  0  0  0
 11 12  1  0  0  0
 12 13  2  0  0  0
 13 14  1  0  0  0
 14 15  1  0  0  0
 14 16  2  0  0  0
 16 17  1  0  0  0
 17 18  2  0  0  0
 18 19  1  0  0  0
  5  1  1  0  0  0
 19 10  1  0  0  0
  8  4  1  0  0  0
 18 12  1  0  0  0
M  CHG 1  20  -1
M  END
> <minimizedAffinity>
-7.01946

> <CNNscore>
0.2719529569

> <CNNaffinity>
5.1265459061

> <CNN_VS>
1.3941793442

> <CNNaffinity_variance>
0.4154000282

$$$$
[H]OC([H])([H])[C@@]1(O[H])C([H])([H])[C@@]2([H])O[C@]1(C([H])([H])[H])n1c3c([H])c([H])c([H])c([H])c3c3c4c(c5c6c([H])c([H])c([H])c([H])c6n2c5c31)C(=O)N([H])C4([H])[H]


 36 43  0  0  0  0  0  0  0  0999 V2000
    6.6621    6.0236   20.4526 C   0  0  0  0  0  0  0  0  0  0  0  0
    5.4687    5.5266   19.7110 C   0  0  0  0  0  0  0  0  0  0  0  0
    6.0223    5.3787   18.4092 O   0  0  0  0  0  0  0  0  0  0  0  0
    5.0613    5.5739   17.4773 C   0  0  0  0  0  0  0  0  0  0  0  0
    4.1197    6.5653   18.0140 C   0  0  0  0  0  0  0  0  0  0  0  0
    4.4009    6.5590   19.5002 C   0  0  0  0  0  0  0  0  0  0  0  0
    3.2059    6.2430   20.1291 O   0  0  0  0  0  0  0  0  0  0  0  0
    4.4441    4.2977   17.0929 N   0  0  0  0  0  0  0  0  0  0  0  0
    4.0445    3.8877   15.9015 C   0  0  0  0  0  0  0  0  0  0  0  0
    4.0992    4.5542   14.7049 C   0  0  0  0  0  0  0  0  0  0  0  0
    3.6136    3.9149   13.5708 C   0  0  0  0  0  0  0  0  0  0  0  0
    3.0930    2.6485   13.6479 C   0  0  0  0  0  0  0  0  0  0  0  0
    3.0359    1.9653   14.8686 C   0  0  0  0  0  0  0  0  0  0  0  0
    3.5155    2.6027   15.9760 C   0  0  0  0  0  0  0  0  0  0  0  0
    3.6121    2.2381   17.2997 C   0  0  0  0  0  0  0  0  0  0  0  0
    3.2531    1.1066   18.0093 C   0  0  0  0  0  0  0  0  0  0  0  0
    2.6489   -0.1675   17.6640 C   0  0  0  0  0  0  0  0  0  0  0  0
    2.2675   -0.6095   16.5790 O   0  0  0  0  0  0  0  0  0  0  0  0
    2.5389   -0.9301   18.8700 N   0  0  0  0  0  0  0  0  0  0  0  0
    3.0488   -0.1825   19.9937 C   0  0  0  0  0  0  0  0  0  0  0  0
    3.4886    1.0903   19.3715 C   0  0  0  0  0  0  0  0  0  0  0  0
    4.0687    2.1646   20.0370 C   0  0  0  0  0  0  0  0  0  0  0  0
    4.3946    2.4362   21.3284 C   0  0  0  0  0  0  0  0  0  0  0  0
    4.2422    1.6729   22.4629 C   0  0  0  0  0  0  0  0  0  0  0  0
    4.6463    2.1990   23.6936 C   0  0  0  0  0  0  0  0  0  0  0  0
    5.1861    3.4723   23.7265 C   0  0  0  0  0  0  0  0  0  0  0  0
    5.3289    4.2205   22.5708 C   0  0  0  0  0  0  0  0  0  0  0  0
    4.9396    3.7225   21.3506 C   0  0  0  0  0  0  0  0  0  0  0  0
    4.9569    4.2418   20.0938 N   0  0  0  0  0  0  0  0  0  0  0  0
    4.4085    3.2545   19.3084 C   0  0  0  0  0  0  0  0  0  0  0  0
    4.1883    3.3082   17.9496 C   0  0  0  0  0  0  0  0  0  0  0  0
    2.7249    7.0843   20.3183 H   0  0  0  0  0  0  0  0  0  0  0  0
    2.1463   -1.9053   18.9678 H   0  0  0  0  0  0  0  0  0  0  0  0
    4.8025    7.9371   19.9042 C   0  0  0  0  0  0  0  0  0  0  0  0
    3.6668    8.7475   19.8893 O   0  0  0  0  0  0  0  0  0  0  0  0
    3.6784    9.4072   19.1499 H   0  0  0  0  0  0  0  0  0  0  0  0
  2  1  1  0  0  0
  2  3  1  0  0  0
  3  4  1  0  0  0
  4  5  1  0  0  0
  5  6  1  0  0  0
  6  7  1  0  0  0
  6 34  1  0  0  0
 34 35  1  0  0  0
  4  8  1  0  0  0
  8  9  1  0  0  0
  9 10  2  0  0  0
 10 11  1  0  0  0
 11 12  2  0  0  0
 12 13  1  0  0  0
 13 14  2  0  0  0
 14 15  1  0  0  0
 15 16  2  0  0  0
 16 17  1  0  0  0
 17 18  2  0  0  0
 17 19  1  0  0  0
 19 20  1  0  0  0
 20 21  1  0  0  0
 21 22  2  0  0  0
 22 23  1  0  0  0
 23 24  2  0  0  0
 24 25  1  0  0  0
 25 26  2  0  0  0
 26 27  1  0  0  0
 27 28  2  0  0  0
 28 29  1  0  0  0
 29 30  1  0  0  0
 30 31  2  0  0  0
  6  2  1  0  0  0
 31  8  1  0  0  0
 29  2  1  0  0  0
 14  9  1  0  0  0
 31 15  1  0  0  0
 21 16  1  0  0  0
 30 22  1  0  0  0
 28 23  1  0  0  0
  7 32  1  0  0  0
 35 36  1  0  0  0
 19 33  1  0  0  0
M  END
> <minimizedAffinity>
-12.81854

> <CNNscore>
0.8928605318

> <CNNaffinity>
6.9619827271

> <CNN_VS>
6.2160797119

> <CNNaffinity_variance>
0.2042560279

$$$$
[H]OC([H])([H])[C@@]1(O[H])C([H])([H])[C@@]2([H])O[C@]1(C([H])([H])[H])n1c3c([H])c([H])c([H])c([H])c3c3c4c(c5c6c([H])c([H])c([H])c([H])c6n2c5c31)C(=O)N([H])C4([H])[H]


 36 43  0  0  0  0  0  0  0  0999 V2000
    3.8250    6.9400   16.6157 C   0  0  0  0  0  0  0  0  0  0  0  0
    4.4495    5.8506   17.4185 C   0  0  0  0  0  0  0  0  0  0  0  0
    3.8993    6.1318   18.6996 O   0  0  0  0  0  0  0  0  0  0  0  0
    4.7616    5.7397   19.6653 C   0  0  0  0  0  0  0  0  0  0  0  0
    6.1225    5.9215   19.1432 C   0  0  0  0  0  0  0  0  0  0  0  0
    5.9223    6.0214   17.6472 C   0  0  0  0  0  0  0  0  0  0  0  0
    6.6829    5.0118   17.0767 O   0  0  0  0  0  0  0  0  0  0  0  0
    4.4595    4.3719   20.1069 N   0  0  0  0  0  0  0  0  0  0  0  0
    4.5029    3.8576   21.3238 C   0  0  0  0  0  0  0  0  0  0  0  0
    4.8479    4.4714   22.5000 C   0  0  0  0  0  0  0  0  0  0  0  0
    4.8194    3.7208   23.6689 C   0  0  0  0  0  0  0  0  0  0  0  0
    4.4551    2.3990   23.6454 C   0  0  0  0  0  0  0  0  0  0  0  0
    4.1022    1.7694   22.4457 C   0  0  0  0  0  0  0  0  0  0  0  0
    4.1336    2.5160   21.3037 C   0  0  0  0  0  0  0  0  0  0  0  0
    3.8566    2.2273   19.9867 C   0  0  0  0  0  0  0  0  0  0  0  0
    3.4584    1.0822   19.3213 C   0  0  0  0  0  0  0  0  0  0  0  0
    3.1479   -0.2779   19.7233 C   0  0  0  0  0  0  0  0  0  0  0  0
    3.1592   -0.8110   20.8340 O   0  0  0  0  0  0  0  0  0  0  0  0
    2.7878   -1.0018   18.5425 N   0  0  0  0  0  0  0  0  0  0  0  0
    2.8632   -0.1503   17.3802 C   0  0  0  0  0  0  0  0  0  0  0  0
    3.2860    1.1518   17.9514 C   0  0  0  0  0  0  0  0  0  0  0  0
    3.4984    2.3249   17.2356 C   0  0  0  0  0  0  0  0  0  0  0  0
    3.4300    2.6802   15.9253 C   0  0  0  0  0  0  0  0  0  0  0  0
    3.1017    1.9330   14.8177 C   0  0  0  0  0  0  0  0  0  0  0  0
    3.1267    2.5400   13.5585 C   0  0  0  0  0  0  0  0  0  0  0  0
    3.4821    3.8740   13.4712 C   0  0  0  0  0  0  0  0  0  0  0  0
    3.8083    4.6044   14.6007 C   0  0  0  0  0  0  0  0  0  0  0  0
    3.7891    4.0283   15.8481 C   0  0  0  0  0  0  0  0  0  0  0  0
    4.0722    4.5058   17.0897 N   0  0  0  0  0  0  0  0  0  0  0  0
    3.8861    3.4262   17.9217 C   0  0  0  0  0  0  0  0  0  0  0  0
    4.0693    3.3954   19.2868 C   0  0  0  0  0  0  0  0  0  0  0  0
    7.5820    5.3729   16.8864 H   0  0  0  0  0  0  0  0  0  0  0  0
    2.5013   -2.0164   18.4857 H   0  0  0  0  0  0  0  0  0  0  0  0
    6.4575    7.3368   17.1924 C   0  0  0  0  0  0  0  0  0  0  0  0
    6.4992    8.1972   18.2900 O   0  0  0  0  0  0  0  0  0  0  0  0
    5.8239    8.9202   18.2341 H   0  0  0  0  0  0  0  0  0  0  0  0
  2  1  1  0  0  0
  2  3  1  0  0  0
  3  4  1  0  0  0
  4  5  1  0  0  0
  5  6  1  0  0  0
  6  7  1  0  0  0
  6 34  1  0  0  0
 34 35  1  0  0  0
  4  8  1  0  0  0
  8  9  1  0  0  0
  9 10  2  0  0  0
 10 11  1  0  0  0
 11 12  2  0  0  0
 12 13  1  0  0  0
 13 14  2  0  0  0
 14 15  1  0  0  0
 15 16  2  0  0  0
 16 17  1  0  0  0
 17 18  2  0  0  0
 17 19  1  0  0  0
 19 20  1  0  0  0
 20 21  1  0  0  0
 21 22  2  0  0  0
 22 23  1  0  0  0
 23 24  2  0  0  0
 24 25  1  0  0  0
 25 26  2  0  0  0
 26 27  1  0  0  0
 27 28  2  0  0  0
 28 29  1  0  0  0
 29 30  1  0  0  0
 30 31  2  0  0  0
  6  2  1  0  0  0
 31  8  1  0  0  0
 29  2  1  0  0  0
 14  9  1  0  0  0
 31 15  1  0  0  0
 21 16  1  0  0  0
 30 22  1  0  0  0
 28 23  1  0  0  0
  7 32  1  0  0  0
 35 36  1  0  0  0
 19 33  1  0  0  0
M  END
> <minimizedAffinity>
-11.07724

> <CNNscore>
0.4804911315

> <CNNaffinity>
6.3549666405

> <CNN_VS>
3.0535051823

> <CNNaffinity_variance>
0.1183441058

$$$$
[H]OC([H])([H])[C@@]1(O[H])C([H])([H])[C@@]2([H])O[C@]1(C([H])([H])[H])n1c3c([H])c([H])c([H])c([H])c3c3c4c(c5c6c([H])c([H])c([H])c([H])c6n2c5c31)C(=O)N([H])C4([H])[H]


 36 43  0  0  0  0  0  0  0  0999 V2000
    2.6394    0.0417    9.5228 C   0  0  0  0  0  0  0  0  0  0  0  0
    2.3278    1.4990    9.5415 C   0  0  0  0  0  0  0  0  0  0  0  0
    1.5702    1.5813   10.7425 O   0  0  0  0  0  0  0  0  0  0  0  0
    0.6672    2.5841   10.6473 C   0  0  0  0  0  0  0  0  0  0  0  0
    0.2518    2.6731    9.2412 C   0  0  0  0  0  0  0  0  0  0  0  0
    1.3402    1.9308    8.4981 C   0  0  0  0  0  0  0  0  0  0  0  0
    1.8731    2.8228    7.5796 O   0  0  0  0  0  0  0  0  0  0  0  0
    1.2159    3.8306   11.1973 N   0  0  0  0  0  0  0  0  0  0  0  0
    0.6132    4.7660   11.9109 C   0  0  0  0  0  0  0  0  0  0  0  0
   -0.6929    4.8183   12.3236 C   0  0  0  0  0  0  0  0  0  0  0  0
   -1.1046    5.9135   13.0731 C   0  0  0  0  0  0  0  0  0  0  0  0
   -0.2252    6.9164   13.3916 C   0  0  0  0  0  0  0  0  0  0  0  0
    1.1094    6.8656   12.9715 C   0  0  0  0  0  0  0  0  0  0  0  0
    1.5029    5.7856   12.2359 C   0  0  0  0  0  0  0  0  0  0  0  0
    2.7055    5.4215   11.6740 C   0  0  0  0  0  0  0  0  0  0  0  0
    3.9569    6.0084   11.6278 C   0  0  0  0  0  0  0  0  0  0  0  0
    4.5333    7.2298   12.1604 C   0  0  0  0  0  0  0  0  0  0  0  0
    4.0303    8.1288   12.8363 O   0  0  0  0  0  0  0  0  0  0  0  0
    5.9069    7.2650   11.7605 N   0  0  0  0  0  0  0  0  0  0  0  0
    6.2384    6.1016   10.9743 C   0  0  0  0  0  0  0  0  0  0  0  0
    4.9594    5.3510   10.9393 C   0  0  0  0  0  0  0  0  0  0  0  0
    4.7465    4.1335   10.3021 C   0  0  0  0  0  0  0  0  0  0  0  0
    5.5083    3.2893    9.5573 C   0  0  0  0  0  0  0  0  0  0  0  0
    6.8270    3.3838    9.1767 C   0  0  0  0  0  0  0  0  0  0  0  0
    7.3770    2.3750    8.3803 C   0  0  0  0  0  0  0  0  0  0  0  0
    6.5728    1.3149    8.0020 C   0  0  0  0  0  0  0  0  0  0  0  0
    5.2485    1.2428    8.3979 C   0  0  0  0  0  0  0  0  0  0  0  0
    4.6880    2.2224    9.1817 C   0  0  0  0  0  0  0  0  0  0  0  0
    3.4376    2.3969    9.6874 N   0  0  0  0  0  0  0  0  0  0  0  0
    3.5085    3.5889   10.3706 C   0  0  0  0  0  0  0  0  0  0  0  0
    2.4840    4.2146   11.0463 C   0  0  0  0  0  0  0  0  0  0  0  0
    1.3673    2.7362    6.7360 H   0  0  0  0  0  0  0  0  0  0  0  0
    6.6122    8.0173   11.9870 H   0  0  0  0  0  0  0  0  0  0  0  0
    0.7105    0.8013    7.7557 C   0  0  0  0  0  0  0  0  0  0  0  0
   -0.6754    0.9306    7.8526 O   0  0  0  0  0  0  0  0  0  0  0  0
   -1.0843    0.2355    8.4285 H   0  0  0  0  0  0  0  0  0  0  0  0
  2  1  1  0  0  0
  2  3  1  0  0  0
  3  4  1  0  0  0
  4  5  1  0  0  0
  5  6  1  0  0  0
  6  7  1  0  0  0
  6 34  1  0  0  0
 34 35  1  0  0  0
  4  8  1  0  0  0
  8  9  1  0  0  0
  9 10  2  0  0  0
 10 11  1  0  0  0
 11 12  2  0  0  0
 12 13  1  0  0  0
 13 14  2  0  0  0
 14 15  1  0  0  0
 15 16  2  0  0  0
 16 17  1  0  0  0
 17 18  2  0  0  0
 17 19  1  0  0  0
 19 20  1  0  0  0
 20 21  1  0  0  0
 21 22  2  0  0  0
 22 23  1  0  0  0
 23 24  2  0  0  0
 24 25  1  0  0  0
 25 26  2  0  0  0
 26 27  1  0  0  0
 27 28  2  0  0  0
 28 29  1  0  0  0
 29 30  1  0  0  0
 30 31  2  0  0  0
  6  2  1  0  0  0
 31  8  1  0  0  0
 29  2  1  0  0  0
 14  9  1  0  0  0
 31 15  1  0  0  0
 21 16  1  0  0  0
 30 22  1  0  0  0
 28 23  1  0  0  0
  7 32  1  0  0  0
 35 36  1  0  0  0
 19 33  1  0  0  0
M  END
> <minimizedAffinity>
-6.64304

> <CNNscore>
0.4556498230

> <CNNaffinity>
5.2596993446

> <CNN_VS>
2.3965811729

> <CNNaffinity_variance>
0.1636712104

$$$$
[H]OC([H])([H])[C@@]1(O[H])C([H])([H])[C@@]2([H])O[C@]1(C([H])([H])[H])n1c3c([H])c([H])c([H])c([H])c3c3c4c(c5c6c([H])c([H])c([H])c([H])c6n2c5c31)C(=O)N([H])C4([H])[H]


 36 43  0  0  0  0  0  0  0  0999 V2000
    4.7705    6.9780   12.4147 C   0  0  0  0  0  0  0  0  0  0  0  0
    4.5211    6.1463   11.2034 C   0  0  0  0  0  0  0  0  0  0  0  0
    5.4159    5.0679   11.4472 O   0  0  0  0  0  0  0  0  0  0  0  0
    5.8487    4.5563   10.2721 C   0  0  0  0  0  0  0  0  0  0  0  0
    5.9165    5.6616    9.3070 C   0  0  0  0  0  0  0  0  0  0  0  0
    5.0541    6.7361    9.9312 C   0  0  0  0  0  0  0  0  0  0  0  0
    4.0607    7.0328    9.0101 O   0  0  0  0  0  0  0  0  0  0  0  0
    4.9998    3.4345    9.8502 N   0  0  0  0  0  0  0  0  0  0  0  0
    5.3438    2.2988    9.2677 C   0  0  0  0  0  0  0  0  0  0  0  0
    6.5928    1.8706    8.8992 C   0  0  0  0  0  0  0  0  0  0  0  0
    6.7116    0.6250    8.2950 C   0  0  0  0  0  0  0  0  0  0  0  0
    5.6061   -0.1556    8.0733 C   0  0  0  0  0  0  0  0  0  0  0  0
    4.3293    0.2791    8.4486 C   0  0  0  0  0  0  0  0  0  0  0  0
    4.2242    1.5039    9.0412 C   0  0  0  0  0  0  0  0  0  0  0  0
    3.1547    2.2239    9.5231 C   0  0  0  0  0  0  0  0  0  0  0  0
    1.7924    1.9921    9.5793 C   0  0  0  0  0  0  0  0  0  0  0  0
    0.9241    0.8997    9.1786 C   0  0  0  0  0  0  0  0  0  0  0  0
    1.1835   -0.1803    8.6453 O   0  0  0  0  0  0  0  0  0  0  0  0
   -0.4159    1.2719    9.5161 N   0  0  0  0  0  0  0  0  0  0  0  0
   -0.4440    2.5822   10.1193 C   0  0  0  0  0  0  0  0  0  0  0  0
    0.9876    2.9707   10.1324 C   0  0  0  0  0  0  0  0  0  0  0  0
    1.5036    4.1635   10.6270 C   0  0  0  0  0  0  0  0  0  0  0  0
    0.9753    5.2817   11.1911 C   0  0  0  0  0  0  0  0  0  0  0  0
   -0.3329    5.6028   11.4714 C   0  0  0  0  0  0  0  0  0  0  0  0
   -0.6183    6.8457   12.0441 C   0  0  0  0  0  0  0  0  0  0  0  0
    0.4280    7.7110   12.3090 C   0  0  0  0  0  0  0  0  0  0  0  0
    1.7359    7.3645   12.0176 C   0  0  0  0  0  0  0  0  0  0  0  0
    2.0393    6.1477   11.4557 C   0  0  0  0  0  0  0  0  0  0  0  0
    3.2109    5.5771   11.0670 N   0  0  0  0  0  0  0  0  0  0  0  0
    2.8425    4.3540   10.5563 C   0  0  0  0  0  0  0  0  0  0  0  0
    3.6764    3.4025   10.0111 C   0  0  0  0  0  0  0  0  0  0  0  0
    4.3861    7.7621    8.4295 H   0  0  0  0  0  0  0  0  0  0  0  0
   -1.2891    0.6985    9.3625 H   0  0  0  0  0  0  0  0  0  0  0  0
    5.8958    7.9505   10.1325 C   0  0  0  0  0  0  0  0  0  0  0  0
    5.6223    8.8501    9.1017 O   0  0  0  0  0  0  0  0  0  0  0  0
    6.3753    8.9404    8.4640 H   0  0  0  0  0  0  0  0  0  0  0  0
  2  1  1  0  0  0
  2  3  1  0  0  0
  3  4  1  0  0  0
  4  5  1  0  0  0
  5  6  1  0  0  0
  6  7  1  0  0  0
  6 34  1  0  0  0
 34 35  1  0  0  0
  4  8  1  0  0  0
  8  9  1  0  0  0
  9 10  2  0  0  0
 10 11  1  0  0  0
 11 12  2  0  0  0
 12 13  1  0  0  0
 13 14  2  0  0  0
 14 15  1  0  0  0
 15 16  2  0  0  0
 16 17  1  0  0  0
 17 18  2  0  0  0
 17 19  1  0  0  0
 19 20  1  0  0  0
 20 21  1  0  0  0
 21 22  2  0  0  0
 22 23  1  0  0  0
 23 24  2  0  0  0
 24 25  1  0  0  0
 25 26  2  0  0  0
 26 27  1  0  0  0
 27 28  2  0  0  0
 28 29  1  0  0  0
 29 30  1  0  0  0
 30 31  2  0  0  0
  6  2  1  0  0  0
 31  8  1  0  0  0
 29  2  1  0  0  0
 14  9  1  0  0  0
 31 15  1  0  0  0
 21 16  1  0  0  0
 30 22  1  0  0  0
 28 23  1  0  0  0
  7 32  1  0  0  0
 35 36  1  0  0  0
 19 33  1  0  0  0
M  END
> <minimizedAffinity>
-6.25463

> <CNNscore>
0.4369302094

> <CNNaffinity>
5.3083982468

> <CNN_VS>
2.3193995953

> <CNNaffinity_variance>
0.2469727546

$$$$
[H]OC([H])([H])[C@@]1(O[H])C([H])([H])[C@@]2([H])O[C@]1(C([H])([H])[H])n1c3c([H])c([H])c([H])c([H])c3c3c4c(c5c6c([H])c([H])c([H])c([H])c6n2c5c31)C(=O)N([H])C4([H])[H]


 36 43  0  0  0  0  0  0  0  0999 V2000
    4.0925    8.6003   19.2022 C   0  0  0  0  0  0  0  0  0  0  0  0
    4.6733    7.2324   19.0896 C   0  0  0  0  0  0  0  0  0  0  0  0
    4.0122    6.5861   20.1705 O   0  0  0  0  0  0  0  0  0  0  0  0
    4.8003    5.6068   20.6705 C   0  0  0  0  0  0  0  0  0  0  0  0
    6.1952    6.0414   20.5193 C   0  0  0  0  0  0  0  0  0  0  0  0
    6.1176    7.1424   19.4850 C   0  0  0  0  0  0  0  0  0  0  0  0
    6.9462    6.7639   18.4393 O   0  0  0  0  0  0  0  0  0  0  0  0
    4.4943    4.3187   20.0346 N   0  0  0  0  0  0  0  0  0  0  0  0
    4.4484    3.1115   20.5711 C   0  0  0  0  0  0  0  0  0  0  0  0
    4.6802    2.7441   21.8712 C   0  0  0  0  0  0  0  0  0  0  0  0
    4.5722    1.3999   22.2061 C   0  0  0  0  0  0  0  0  0  0  0  0
    4.2418    0.4650   21.2588 C   0  0  0  0  0  0  0  0  0  0  0  0
    4.0045    0.8374   19.9302 C   0  0  0  0  0  0  0  0  0  0  0  0
    4.1133    2.1601   19.6124 C   0  0  0  0  0  0  0  0  0  0  0  0
    3.9533    2.8584   18.4371 C   0  0  0  0  0  0  0  0  0  0  0  0
    3.6383    2.4917   17.1413 C   0  0  0  0  0  0  0  0  0  0  0  0
    3.3272    1.2366   16.4812 C   0  0  0  0  0  0  0  0  0  0  0  0
    3.2586    0.0894   16.9252 O   0  0  0  0  0  0  0  0  0  0  0  0
    3.0832    1.5275   15.1014 N   0  0  0  0  0  0  0  0  0  0  0  0
    3.2351    2.9389   14.8438 C   0  0  0  0  0  0  0  0  0  0  0  0
    3.5787    3.4836   16.1801 C   0  0  0  0  0  0  0  0  0  0  0  0
    3.8226    4.8200   16.4770 C   0  0  0  0  0  0  0  0  0  0  0  0
    3.8550    5.9757   15.7622 C   0  0  0  0  0  0  0  0  0  0  0  0
    3.6372    6.1984   14.4221 C   0  0  0  0  0  0  0  0  0  0  0  0
    3.7525    7.4993   13.9233 C   0  0  0  0  0  0  0  0  0  0  0  0
    4.0829    8.5190   14.7977 C   0  0  0  0  0  0  0  0  0  0  0  0
    4.2972    8.2692   16.1421 C   0  0  0  0  0  0  0  0  0  0  0  0
    4.1879    6.9986   16.6539 C   0  0  0  0  0  0  0  0  0  0  0  0
    4.3558    6.4894   17.9037 N   0  0  0  0  0  0  0  0  0  0  0  0
    4.1263    5.1410   17.7571 C   0  0  0  0  0  0  0  0  0  0  0  0
    4.1963    4.1803   18.7421 C   0  0  0  0  0  0  0  0  0  0  0  0
    7.8494    7.1215   18.6162 H   0  0  0  0  0  0  0  0  0  0  0  0
    2.8260    0.8366   14.3456 H   0  0  0  0  0  0  0  0  0  0  0  0
    6.6581    8.3919   20.0934 C   0  0  0  0  0  0  0  0  0  0  0  0
    7.1555    8.0841   21.3601 O   0  0  0  0  0  0  0  0  0  0  0  0
    6.6010    8.4609   22.0898 H   0  0  0  0  0  0  0  0  0  0  0  0
  2  1  1  0  0  0
  2  3  1  0  0  0
  3  4  1  0  0  0
  4  5  1  0  0  0
  5  6  1  0  0  0
  6  7  1  0  0  0
  6 34  1  0  0  0
 34 35  1  0  0  0
  4  8  1  0  0  0
  8  9  1  0  0  0
  9 10  2  0  0  0
 10 11  1  0  0  0
 11 12  2  0  0  0
 12 13  1  0  0  0
 13 14  2  0  0  0
 14 15  1  0  0  0
 15 16  2  0  0  0
 16 17  1  0  0  0
 17 18  2  0  0  0
 17 19  1  0  0  0
 19 20  1  0  0  0
 20 21  1  0  0  0
 21 22  2  0  0  0
 22 23  1  0  0  0
 23 24  2  0  0  0
 24 25  1  0  0  0
 25 26  2  0  0  0
 26 27  1  0  0  0
 27 28  2  0  0  0
 28 29  1  0  0  0
 29 30  1  0  0  0
 30 31  2  0  0  0
  6  2  1  0  0  0
 31  8  1  0  0  0
 29  2  1  0  0  0
 14  9  1  0  0  0
 31 15  1  0  0  0
 21 16  1  0  0  0
 30 22  1  0  0  0
 28 23  1  0  0  0
  7 32  1  0  0  0
 35 36  1  0  0  0
 19 33  1  0  0  0
M  END
> <minimizedAffinity>
-10.82824

> <CNNscore>
0.3936671019

> <CNNaffinity>
5.9856858253

> <CNN_VS>
2.3563675880

> <CNNaffinity_variance>
0.3105178475

$$$$
[H]OC([H])([H])[C@@]1(O[H])C([H])([H])[C@@]2([H])O[C@]1(C([H])([H])[H])n1c3c([H])c([H])c([H])c([H])c3c3c4c(c5c6c([H])c([H])c([H])c([H])c6n2c5c31)C(=O)N([H])C4([H])[H]


 36 43  0  0  0  0  0  0  0  0999 V2000
    1.1113    7.3321    4.7076 C   0  0  0  0  0  0  0  0  0  0  0  0
    0.7073    7.6533    6.1057 C   0  0  0  0  0  0  0  0  0  0  0  0
    0.0363    6.4499    6.4589 O   0  0  0  0  0  0  0  0  0  0  0  0
   -0.9349    6.7146    7.3626 C   0  0  0  0  0  0  0  0  0  0  0  0
   -1.4576    8.0558    7.0700 C   0  0  0  0  0  0  0  0  0  0  0  0
   -0.3805    8.6809    6.2115 C   0  0  0  0  0  0  0  0  0  0  0  0
    0.0239    9.8373    6.8615 O   0  0  0  0  0  0  0  0  0  0  0  0
   -0.4301    6.5461    8.7315 N   0  0  0  0  0  0  0  0  0  0  0  0
   -1.0385    6.0407    9.7907 C   0  0  0  0  0  0  0  0  0  0  0  0
   -2.3114    5.5415    9.8886 C   0  0  0  0  0  0  0  0  0  0  0  0
   -2.7376    5.0583   11.1197 C   0  0  0  0  0  0  0  0  0  0  0  0
   -1.9048    5.0808   12.2089 C   0  0  0  0  0  0  0  0  0  0  0  0
   -0.6042    5.5900   12.1118 C   0  0  0  0  0  0  0  0  0  0  0  0
   -0.1960    6.0619   10.8981 C   0  0  0  0  0  0  0  0  0  0  0  0
    0.9832    6.6175   10.4562 C   0  0  0  0  0  0  0  0  0  0  0  0
    2.1868    6.9194   11.0669 C   0  0  0  0  0  0  0  0  0  0  0  0
    2.7196    6.7638   12.4085 C   0  0  0  0  0  0  0  0  0  0  0  0
    2.2099    6.2943   13.4272 O   0  0  0  0  0  0  0  0  0  0  0  0
    4.0548    7.2787   12.4013 N   0  0  0  0  0  0  0  0  0  0  0  0
    4.4031    7.7730   11.0914 C   0  0  0  0  0  0  0  0  0  0  0  0
    3.1768    7.5057   10.3005 C   0  0  0  0  0  0  0  0  0  0  0  0
    2.9978    7.7950    8.9523 C   0  0  0  0  0  0  0  0  0  0  0  0
    3.7563    8.3674    7.9803 C   0  0  0  0  0  0  0  0  0  0  0  0
    5.0345    8.8737    8.0329 C   0  0  0  0  0  0  0  0  0  0  0  0
    5.5893    9.4359    6.8794 C   0  0  0  0  0  0  0  0  0  0  0  0
    4.8305    9.4634    5.7230 C   0  0  0  0  0  0  0  0  0  0  0  0
    3.5465    8.9474    5.6957 C   0  0  0  0  0  0  0  0  0  0  0  0
    2.9822    8.3891    6.8173 C   0  0  0  0  0  0  0  0  0  0  0  0
    1.7637    7.8358    7.0596 N   0  0  0  0  0  0  0  0  0  0  0  0
    1.8065    7.4834    8.3887 C   0  0  0  0  0  0  0  0  0  0  0  0
    0.7956    6.8995    9.1202 C   0  0  0  0  0  0  0  0  0  0  0  0
   -0.5358   10.5842    6.5393 H   0  0  0  0  0  0  0  0  0  0  0  0
    4.7242    7.3115   13.2172 H   0  0  0  0  0  0  0  0  0  0  0  0
   -0.9878    9.0571    4.9026 C   0  0  0  0  0  0  0  0  0  0  0  0
   -2.3398    8.7131    4.9308 O   0  0  0  0  0  0  0  0  0  0  0  0
   -2.5511    7.9471    4.3388 H   0  0  0  0  0  0  0  0  0  0  0  0
  2  1  1  0  0  0
  2  3  1  0  0  0
  3  4  1  0  0  0
  4  5  1  0  0  0
  5  6  1  0  0  0
  6  7  1  0  0  0
  6 34  1  0  0  0
 34 35  1  0  0  0
  4  8  1  0  0  0
  8  9  1  0  0  0
  9 10  2  0  0  0
 10 11  1  0  0  0
 11 12  2  0  0  0
 12 13  1  0  0  0
 13 14  2  0  0  0
 14 15  1  0  0  0
 15 16  2  0  0  0
 16 17  1  0  0  0
 17 18  2  0  0  0
 17 19  1  0  0  0
 19 20  1  0  0  0
 20 21  1  0  0  0
 21 22  2  0  0  0
 22 23  1  0  0  0
 23 24  2  0  0  0
 24 25  1  0  0  0
 25 26  2  0  0  0
 26 27  1  0  0  0
 27 28  2  0  0  0
 28 29  1  0  0  0
 29 30  1  0  0  0
 30 31  2  0  0  0
  6  2  1  0  0  0
 31  8  1  0  0  0
 29  2  1  0  0  0
 14  9  1  0  0  0
 31 15  1  0  0  0
 21 16  1  0  0  0
 30 22  1  0  0  0
 28 23  1  0  0  0
  7 32  1  0  0  0
 35 36  1  0  0  0
 19 33  1  0  0  0
M  END
> <minimizedAffinity>
-7.16882

> <CNNscore>
0.3910136521

> <CNNaffinity>
5.0092048645

> <CNN_VS>
1.9586675167

> <CNNaffinity_variance>
0.6244727969

$$$$
[H]OC([H])([H])[C@@]1(O[H])C([H])([H])[C@@]2([H])O[C@]1(C([H])([H])[H])n1c3c([H])c([H])c([H])c([H])c3c3c4c(c5c6c([H])c([H])c([H])c([H])c6n2c5c31)C(=O)N([H])C4([H])[H]


 36 43  0  0  0  0  0  0  0  0999 V2000
    4.5458    4.7878   11.2423 C   0  0  0  0  0  0  0  0  0  0  0  0
    4.1063    5.9137   10.3703 C   0  0  0  0  0  0  0  0  0  0  0  0
    4.6495    5.4964    9.1238 O   0  0  0  0  0  0  0  0  0  0  0  0
    4.9538    6.5783    8.3708 C   0  0  0  0  0  0  0  0  0  0  0  0
    5.3622    7.6527    9.2853 C   0  0  0  0  0  0  0  0  0  0  0  0
    4.8230    7.2065   10.6263 C   0  0  0  0  0  0  0  0  0  0  0  0
    3.9832    8.2160   11.0723 O   0  0  0  0  0  0  0  0  0  0  0  0
    3.8337    6.9274    7.4872 N   0  0  0  0  0  0  0  0  0  0  0  0
    3.8575    7.3584    6.2378 C   0  0  0  0  0  0  0  0  0  0  0  0
    4.9434    7.5974    5.4361 C   0  0  0  0  0  0  0  0  0  0  0  0
    4.7207    8.0523    4.1422 C   0  0  0  0  0  0  0  0  0  0  0  0
    3.4460    8.2566    3.6798 C   0  0  0  0  0  0  0  0  0  0  0  0
    2.3350    8.0134    4.4964 C   0  0  0  0  0  0  0  0  0  0  0  0
    2.5652    7.5669    5.7653 C   0  0  0  0  0  0  0  0  0  0  0  0
    1.7309    7.2361    6.8088 C   0  0  0  0  0  0  0  0  0  0  0  0
    0.3580    7.2416    6.9751 C   0  0  0  0  0  0  0  0  0  0  0  0
   -0.7730    7.5741    6.1276 C   0  0  0  0  0  0  0  0  0  0  0  0
   -0.8158    7.9678    4.9610 O   0  0  0  0  0  0  0  0  0  0  0  0
   -1.9610    7.3656    6.8977 N   0  0  0  0  0  0  0  0  0  0  0  0
   -1.6330    6.9131    8.2278 C   0  0  0  0  0  0  0  0  0  0  0  0
   -0.1511    6.8517    8.1999 C   0  0  0  0  0  0  0  0  0  0  0  0
    0.6680    6.4595    9.2529 C   0  0  0  0  0  0  0  0  0  0  0  0
    0.4631    6.0564   10.5349 C   0  0  0  0  0  0  0  0  0  0  0  0
   -0.7073    5.8970   11.2402 C   0  0  0  0  0  0  0  0  0  0  0  0
   -0.6442    5.4836   12.5743 C   0  0  0  0  0  0  0  0  0  0  0  0
    0.5967    5.2495   13.1390 C   0  0  0  0  0  0  0  0  0  0  0  0
    1.7601    5.4172   12.4082 C   0  0  0  0  0  0  0  0  0  0  0  0
    1.7212    5.8215   11.0954 C   0  0  0  0  0  0  0  0  0  0  0  0
    2.6930    6.0698   10.1770 N   0  0  0  0  0  0  0  0  0  0  0  0
    2.0072    6.4653    9.0520 C   0  0  0  0  0  0  0  0  0  0  0  0
    2.5517    6.8485    7.8460 C   0  0  0  0  0  0  0  0  0  0  0  0
    4.5199    8.8514   11.6044 H   0  0  0  0  0  0  0  0  0  0  0  0
   -2.9563    7.5105    6.5763 H   0  0  0  0  0  0  0  0  0  0  0  0
    5.9691    7.0868   11.5727 C   0  0  0  0  0  0  0  0  0  0  0  0
    5.7208    7.9125   12.6697 O   0  0  0  0  0  0  0  0  0  0  0  0
    6.3184    8.7025   12.6958 H   0  0  0  0  0  0  0  0  0  0  0  0
  2  1  1  0  0  0
  2  3  1  0  0  0
  3  4  1  0  0  0
  4  5  1  0  0  0
  5  6  1  0  0  0
  6  7  1  0  0  0
  6 34  1  0  0  0
 34 35  1  0  0  0
  4  8  1  0  0  0
  8  9  1  0  0  0
  9 10  2  0  0  0
 10 11  1  0  0  0
 11 12  2  0  0  0
 12 13  1  0  0  0
 13 14  2  0  0  0
 14 15  1  0  0  0
 15 16  2  0  0  0
 16 17  1  0  0  0
 17 18  2  0  0  0
 17 19  1  0  0  0
 19 20  1  0  0  0
 20 21  1  0  0  0
 21 22  2  0  0  0
 22 23  1  0  0  0
 23 24  2  0  0  0
 24 25  1  0  0  0
 25 26  2  0  0  0
 26 27  1  0  0  0
 27 28  2  0  0  0
 28 29  1  0  0  0
 29 30  1  0  0  0
 30 31  2  0  0  0
  6  2  1  0  0  0
 31  8  1  0  0  0
 29  2  1  0  0  0
 14  9  1  0  0  0
 31 15  1  0  0  0
 21 16  1  0  0  0
 30 22  1  0  0  0
 28 23  1  0  0  0
  7 32  1  0  0  0
 35 36  1  0  0  0
 19 33  1  0  0  0
M  END
> <minimizedAffinity>
-5.94127

> <CNNscore>
0.3646771908

> <CNNaffinity>
5.2120161057

> <CNN_VS>
1.9007034302

> <CNNaffinity_variance>
0.1994161159

$$$$
[H]OC([H])([H])[C@@]1(O[H])C([H])([H])[C@@]2([H])O[C@]1(C([H])([H])[H])n1c3c([H])c([H])c([H])c([H])c3c3c4c(c5c6c([H])c([H])c([H])c([H])c6n2c5c31)C(=O)N([H])C4([H])[H]


 36 43  0  0  0  0  0  0  0  0999 V2000
    5.8342   -0.0204    7.9139 C   0  0  0  0  0  0  0  0  0  0  0  0
    5.0202    1.1829    8.2466 C   0  0  0  0  0  0  0  0  0  0  0  0
    4.4238    0.7569    9.4655 O   0  0  0  0  0  0  0  0  0  0  0  0
    3.2144    1.3445    9.6143 C   0  0  0  0  0  0  0  0  0  0  0  0
    2.6403    1.5202    8.2737 C   0  0  0  0  0  0  0  0  0  0  0  0
    3.8331    1.3893    7.3528 C   0  0  0  0  0  0  0  0  0  0  0  0
    3.9003    2.5653    6.6208 O   0  0  0  0  0  0  0  0  0  0  0  0
    3.3322    2.5857   10.3906 N   0  0  0  0  0  0  0  0  0  0  0  0
    2.5157    3.0807   11.3048 C   0  0  0  0  0  0  0  0  0  0  0  0
    1.3343    2.5616   11.7673 C   0  0  0  0  0  0  0  0  0  0  0  0
    0.6406    3.2673   12.7427 C   0  0  0  0  0  0  0  0  0  0  0  0
    1.1268    4.4534   13.2300 C   0  0  0  0  0  0  0  0  0  0  0  0
    2.3332    4.9859   12.7595 C   0  0  0  0  0  0  0  0  0  0  0  0
    3.0061    4.2846   11.8015 C   0  0  0  0  0  0  0  0  0  0  0  0
    4.1879    4.5080   11.1322 C   0  0  0  0  0  0  0  0  0  0  0  0
    5.1282    5.5216   11.1628 C   0  0  0  0  0  0  0  0  0  0  0  0
    5.2788    6.7537   11.9159 C   0  0  0  0  0  0  0  0  0  0  0  0
    4.5635    7.2599   12.7820 O   0  0  0  0  0  0  0  0  0  0  0  0
    6.4924    7.3754   11.4816 N   0  0  0  0  0  0  0  0  0  0  0  0
    7.1325    6.5840   10.4591 C   0  0  0  0  0  0  0  0  0  0  0  0
    6.2169    5.4257   10.3161 C   0  0  0  0  0  0  0  0  0  0  0  0
    6.3894    4.3531    9.4481 C   0  0  0  0  0  0  0  0  0  0  0  0
    7.3167    4.0066    8.5166 C   0  0  0  0  0  0  0  0  0  0  0  0
    8.4602    4.6582    8.1155 C   0  0  0  0  0  0  0  0  0  0  0  0
    9.2453    4.0915    7.1070 C   0  0  0  0  0  0  0  0  0  0  0  0
    8.8427    2.8926    6.5466 C   0  0  0  0  0  0  0  0  0  0  0  0
    7.6877    2.2565    6.9676 C   0  0  0  0  0  0  0  0  0  0  0  0
    6.9019    2.7950    7.9580 C   0  0  0  0  0  0  0  0  0  0  0  0
    5.7384    2.3913    8.5347 N   0  0  0  0  0  0  0  0  0  0  0  0
    5.4488    3.3789    9.4476 C   0  0  0  0  0  0  0  0  0  0  0  0
    4.3497    3.4401   10.2760 C   0  0  0  0  0  0  0  0  0  0  0  0
    3.3692    2.4466    5.7968 H   0  0  0  0  0  0  0  0  0  0  0  0
    6.8980    8.2846   11.8333 H   0  0  0  0  0  0  0  0  0  0  0  0
    3.5763    0.2582    6.4157 C   0  0  0  0  0  0  0  0  0  0  0  0
    2.2509   -0.1490    6.5717 O   0  0  0  0  0  0  0  0  0  0  0  0
    2.1727   -1.0357    7.0071 H   0  0  0  0  0  0  0  0  0  0  0  0
  2  1  1  0  0  0
  2  3  1  0  0  0
  3  4  1  0  0  0
  4  5  1  0  0  0
  5  6  1  0  0  0
  6  7  1  0  0  0
  6 34  1  0  0  0
 34 35  1  0  0  0
  4  8  1  0  0  0
  8  9  1  0  0  0
  9 10  2  0  0  0
 10 11  1  0  0  0
 11 12  2  0  0  0
 12 13  1  0  0  0
 13 14  2  0  0  0
 14 15  1  0  0  0
 15 16  2  0  0  0
 16 17  1  0  0  0
 17 18  2  0  0  0
 17 19  1  0  0  0
 19 20  1  0  0  0
 20 21  1  0  0  0
 21 22  2  0  0  0
 22 23  1  0  0  0
 23 24  2  0  0  0
 24 25  1  0  0  0
 25 26  2  0  0  0
 26 27  1  0  0  0
 27 28  2  0  0  0
 28 29  1  0  0  0
 29 30  1  0  0  0
 30 31  2  0  0  0
  6  2  1  0  0  0
 31  8  1  0  0  0
 29  2  1  0  0  0
 14  9  1  0  0  0
 31 15  1  0  0  0
 21 16  1  0  0  0
 30 22  1  0  0  0
 28 23  1  0  0  0
  7 32  1  0  0  0
 35 36  1  0  0  0
 19 33  1  0  0  0
M  END
> <minimizedAffinity>
-5.94469

> <CNNscore>
0.3505046666

> <CNNaffinity>
5.0939383507

> <CNN_VS>
1.7854491472

> <CNNaffinity_variance>
0.5511047244

$$$$
[H]OC([H])([H])[C@@]1(O[H])C([H])([H])[C@@]2([H])O[C@]1(C([H])([H])[H])n1c3c([H])c([H])c([H])c([H])c3c3c4c(c5c6c([H])c([H])c([H])c([H])c6n2c5c31)C(=O)N([H])C4([H])[H]


 36 43  0  0  0  0  0  0  0  0999 V2000
    6.9123    6.2527   20.1399 C   0  0  0  0  0  0  0  0  0  0  0  0
    5.6122    6.0517   19.4395 C   0  0  0  0  0  0  0  0  0  0  0  0
    5.9428    6.5406   18.1454 O   0  0  0  0  0  0  0  0  0  0  0  0
    4.8412    7.0591   17.5558 C   0  0  0  0  0  0  0  0  0  0  0  0
    4.0024    7.6351   18.6151 C   0  0  0  0  0  0  0  0  0  0  0  0
    4.5254    6.9880   19.8783 C   0  0  0  0  0  0  0  0  0  0  0  0
    3.4504    6.3379   20.4657 O   0  0  0  0  0  0  0  0  0  0  0  0
    4.1676    6.0463   16.7326 N   0  0  0  0  0  0  0  0  0  0  0  0
    3.5762    6.1819   15.5582 C   0  0  0  0  0  0  0  0  0  0  0  0
    3.4330    7.3137   14.7983 C   0  0  0  0  0  0  0  0  0  0  0  0
    2.7660    7.2128   13.5836 C   0  0  0  0  0  0  0  0  0  0  0  0
    2.2639    6.0103   13.1565 C   0  0  0  0  0  0  0  0  0  0  0  0
    2.4087    4.8526   13.9305 C   0  0  0  0  0  0  0  0  0  0  0  0
    3.0654    4.9632   15.1217 C   0  0  0  0  0  0  0  0  0  0  0  0
    3.3790    4.0552   16.1074 C   0  0  0  0  0  0  0  0  0  0  0  0
    3.1410    2.7031   16.2739 C   0  0  0  0  0  0  0  0  0  0  0  0
    2.4867    1.6756   15.4841 C   0  0  0  0  0  0  0  0  0  0  0  0
    1.9307    1.7366   14.3863 O   0  0  0  0  0  0  0  0  0  0  0  0
    2.5767    0.4498   16.2171 N   0  0  0  0  0  0  0  0  0  0  0  0
    3.2662    0.6537   17.4679 C   0  0  0  0  0  0  0  0  0  0  0  0
    3.5984    2.0989   17.4303 C   0  0  0  0  0  0  0  0  0  0  0  0
    4.2817    2.8037   18.4151 C   0  0  0  0  0  0  0  0  0  0  0  0
    4.8169    2.4946   19.6258 C   0  0  0  0  0  0  0  0  0  0  0  0
    4.8533    1.2968   20.3019 C   0  0  0  0  0  0  0  0  0  0  0  0
    5.4558    1.2477   21.5625 C   0  0  0  0  0  0  0  0  0  0  0  0
    5.9950    2.4088   22.0866 C   0  0  0  0  0  0  0  0  0  0  0  0
    5.9456    3.6018   21.3866 C   0  0  0  0  0  0  0  0  0  0  0  0
    5.3594    3.6725   20.1457 C   0  0  0  0  0  0  0  0  0  0  0  0
    5.1694    4.6971   19.2718 N   0  0  0  0  0  0  0  0  0  0  0  0
    4.4975    4.1257   18.2160 C   0  0  0  0  0  0  0  0  0  0  0  0
    4.0559    4.7629   17.0773 C   0  0  0  0  0  0  0  0  0  0  0  0
    3.0082    6.9687   21.0833 H   0  0  0  0  0  0  0  0  0  0  0  0
    2.2046   -0.4929   15.9207 H   0  0  0  0  0  0  0  0  0  0  0  0
    4.9897    8.0672   20.7967 C   0  0  0  0  0  0  0  0  0  0  0  0
    4.4006    7.8649   22.0452 O   0  0  0  0  0  0  0  0  0  0  0  0
    3.7151    8.5478   22.2590 H   0  0  0  0  0  0  0  0  0  0  0  0
  2  1  1  0  0  0
  2  3  1  0  0  0
  3  4  1  0  0  0
  4  5  1  0  0  0
  5  6  1  0  0  0
  6  7  1  0  0  0
  6 34  1  0  0  0
 34 35  1  0  0  0
  4  8  1  0  0  0
  8  9  1  0  0  0
  9 10  2  0  0  0
 10 11  1  0  0  0
 11 12  2  0  0  0
 12 13  1  0  0  0
 13 14  2  0  0  0
 14 15  1  0  0  0
 15 16  2  0  0  0
 16 17  1  0  0  0
 17 18  2  0  0  0
 17 19  1  0  0  0
 19 20  1  0  0  0
 20 21  1  0  0  0
 21 22  2  0  0  0
 22 23  1  0  0  0
 23 24  2  0  0  0
 24 25  1  0  0  0
 25 26  2  0  0  0
 26 27  1  0  0  0
 27 28  2  0  0  0
 28 29  1  0  0  0
 29 30  1  0  0  0
 30 31  2  0  0  0
  6  2  1  0  0  0
 31  8  1  0  0  0
 29  2  1  0  0  0
 14  9  1  0  0  0
 31 15  1  0  0  0
 21 16  1  0  0  0
 30 22  1  0  0  0
 28 23  1  0  0  0
  7 32  1  0  0  0
 35 36  1  0  0  0
 19 33  1  0  0  0
M  END
> <minimizedAffinity>
-12.20813

> <CNNscore>
0.3114794493

> <CNNaffinity>
6.0264539719

> <CNN_VS>
1.8771165609

> <CNNaffinity_variance>
0.1796424091

$$$$
[H]OC(=O)c1c([H])c([H])c(-c2sc(N([H])C(=O)c3c([H])c([H])c(OC([H])([H])[H])c([H])c3[H])nc2[H])c(OC([H])([H])c2c([H])c([H])c([H])c([H])c2[H])c1[H]


 35 38  0  0  0  0  0  0  0  0999 V2000
    1.8495    7.9577    7.3313 C   0  0  0  0  0  0  0  0  0  0  0  0
    0.4665    8.0614    7.1185 C   0  0  0  0  0  0  0  0  0  0  0  0
    0.0061    8.5207    5.9117 C   0  0  0  0  0  0  0  0  0  0  0  0
    0.8697    8.8886    4.8872 C   0  0  0  0  0  0  0  0  0  0  0  0
    2.2206    8.7880    5.0925 C   0  0  0  0  0  0  0  0  0  0  0  0
    2.6887    8.3232    6.3148 C   0  0  0  0  0  0  0  0  0  0  0  0
    2.9410    6.0102   10.7143 C   0  0  0  0  0  0  0  0  0  0  0  0
    3.0795    7.3205   10.7861 N   0  0  0  0  0  0  0  0  0  0  0  0
    2.7625    8.0590    9.7638 C   0  0  0  0  0  0  0  0  0  0  0  0
    2.2953    7.4587    8.6446 C   0  0  0  0  0  0  0  0  0  0  0  0
    2.3366    5.7845    9.1401 S   0  0  0  0  0  0  0  0  0  0  0  0
    2.2505    4.6365   12.6438 C   0  0  0  0  0  0  0  0  0  0  0  0
    1.0755    5.0968   12.5577 O   0  0  0  0  0  0  0  0  0  0  0  0
    3.2442    5.0493   11.7505 N   0  0  0  0  0  0  0  0  0  0  0  0
    4.2041    4.6723   11.8217 H   0  0  0  0  0  0  0  0  0  0  0  0
    3.2807    1.9295   15.7244 C   0  0  0  0  0  0  0  0  0  0  0  0
    3.8326    3.1691   15.6305 C   0  0  0  0  0  0  0  0  0  0  0  0
    3.5057    4.0530   14.6378 C   0  0  0  0  0  0  0  0  0  0  0  0
    2.5682    3.6697   13.6814 C   0  0  0  0  0  0  0  0  0  0  0  0
    2.0219    2.4214   13.7880 C   0  0  0  0  0  0  0  0  0  0  0  0
    2.3546    1.5304   14.7928 C   0  0  0  0  0  0  0  0  0  0  0  0
    2.8410    0.0378   17.1447 C   0  0  0  0  0  0  0  0  0  0  0  0
    3.6891    1.1151   16.7768 O   0  0  0  0  0  0  0  0  0  0  0  0
    0.3868    9.3741    3.6117 C   0  0  0  0  0  0  0  0  0  0  0  0
    0.9443    8.9290    2.4377 O   0  0  0  0  0  0  0  0  0  0  0  0
   -0.5435   10.2038    3.5751 O   0  0  0  0  0  0  0  0  0  0  0  0
    1.3707    9.6047    1.7921 H   0  0  0  0  0  0  0  0  0  0  0  0
    4.0421    8.2125    6.5431 O   0  0  0  0  0  0  0  0  0  0  0  0
    5.0119    9.1760    6.6633 C   0  0  0  0  0  0  0  0  0  0  0  0
    5.8535    9.2165    5.4450 C   0  0  0  0  0  0  0  0  0  0  0  0
    6.8768   10.1694    5.3743 C   0  0  0  0  0  0  0  0  0  0  0  0
    7.6885   10.2656    4.2929 C   0  0  0  0  0  0  0  0  0  0  0  0
    7.5041    9.4049    3.2346 C   0  0  0  0  0  0  0  0  0  0  0  0
    6.4963    8.4591    3.2932 C   0  0  0  0  0  0  0  0  0  0  0  0
    5.6744    8.3644    4.3925 C   0  0  0  0  0  0  0  0  0  0  0  0
 22 23  1  0  0  0
 23 16  1  0  0  0
 16 17  2  0  0  0
 17 18  1  0  0  0
 18 19  2  0  0  0
 19 20  1  0  0  0
 20 21  2  0  0  0
 19 12  1  0  0  0
 12 13  2  0  0  0
 12 14  1  0  0  0
 14  7  1  0  0  0
  7  8  2  0  0  0
  8  9  1  0  0  0
  9 10  2  0  0  0
 10 11  1  0  0  0
 10  1  1  0  0  0
  1  2  2  0  0  0
  2  3  1  0  0  0
  3  4  2  0  0  0
  4  5  1  0  0  0
  5  6  2  0  0  0
  6 28  1  0  0  0
 28 29  1  0  0  0
 29 30  1  0  0  0
 30 31  2  0  0  0
 31 32  1  0  0  0
 32 33  2  0  0  0
 33 34  1  0  0  0
 34 35  2  0  0  0
  4 24  1  0  0  0
 24 25  1  0  0  0
 24 26  2  0  0  0
 21 16  1  0  0  0
 11  7  1  0  0  0
  6  1  1  0  0  0
 35 30  1  0  0  0
 14 15  1  0  0  0
 25 27  1  0  0  0
M  END
> <minimizedAffinity>
-6.92441

> <CNNscore>
0.4063815176

> <CNNaffinity>
5.1568684578

> <CNN_VS>
2.0956559181

> <CNNaffinity_variance>
0.0981749520

$$$$
[H]OC(=O)c1c([H])c([H])c(-c2sc(N([H])C(=O)c3c([H])c([H])c(OC([H])([H])[H])c([H])c3[H])nc2[H])c(OC([H])([H])c2c([H])c([H])c([H])c([H])c2[H])c1[H]


 35 38  0  0  0  0  0  0  0  0999 V2000
    1.1139    4.9920   10.2167 C   0  0  0  0  0  0  0  0  0  0  0  0
    2.3187    5.5372    9.7476 C   0  0  0  0  0  0  0  0  0  0  0  0
    2.2831    6.5248    8.7975 C   0  0  0  0  0  0  0  0  0  0  0  0
    1.0858    7.0059    8.2818 C   0  0  0  0  0  0  0  0  0  0  0  0
   -0.0919    6.4753    8.7385 C   0  0  0  0  0  0  0  0  0  0  0  0
   -0.0576    5.4742    9.7007 C   0  0  0  0  0  0  0  0  0  0  0  0
    1.4691    2.5516   13.4334 C   0  0  0  0  0  0  0  0  0  0  0  0
    1.2262    1.9127   12.3047 N   0  0  0  0  0  0  0  0  0  0  0  0
    1.0910    2.5850   11.1999 C   0  0  0  0  0  0  0  0  0  0  0  0
    1.2041    3.9329   11.2378 C   0  0  0  0  0  0  0  0  0  0  0  0
    1.5135    4.1789   12.9390 S   0  0  0  0  0  0  0  0  0  0  0  0
    2.8869    2.0244   15.3824 C   0  0  0  0  0  0  0  0  0  0  0  0
    3.8701    2.5953   14.8283 O   0  0  0  0  0  0  0  0  0  0  0  0
    1.6454    1.9625   14.7413 N   0  0  0  0  0  0  0  0  0  0  0  0
    0.8426    1.4957   15.1952 H   0  0  0  0  0  0  0  0  0  0  0  0
    3.4858    0.3935   19.2374 C   0  0  0  0  0  0  0  0  0  0  0  0
    4.2210    1.4364   18.7664 C   0  0  0  0  0  0  0  0  0  0  0  0
    4.0347    1.9721   17.5206 C   0  0  0  0  0  0  0  0  0  0  0  0
    3.0513    1.4280   16.6976 C   0  0  0  0  0  0  0  0  0  0  0  0
    2.3204    0.3804   17.1838 C   0  0  0  0  0  0  0  0  0  0  0  0
    2.5112   -0.1585   18.4436 C   0  0  0  0  0  0  0  0  0  0  0  0
    2.9626    0.4209   21.5857 C   0  0  0  0  0  0  0  0  0  0  0  0
    3.7631   -0.0690   20.5206 O   0  0  0  0  0  0  0  0  0  0  0  0
    1.0448    8.0487    7.2784 C   0  0  0  0  0  0  0  0  0  0  0  0
    1.3431    9.3485    7.6084 O   0  0  0  0  0  0  0  0  0  0  0  0
    0.7364    7.7677    6.1032 O   0  0  0  0  0  0  0  0  0  0  0  0
    0.6405   10.0826    7.4577 H   0  0  0  0  0  0  0  0  0  0  0  0
   -1.2286    4.9272   10.1753 O   0  0  0  0  0  0  0  0  0  0  0  0
   -2.3646    4.5315    9.5148 C   0  0  0  0  0  0  0  0  0  0  0  0
   -3.5503    5.2312   10.0614 C   0  0  0  0  0  0  0  0  0  0  0  0
   -3.6344    5.4155   11.4467 C   0  0  0  0  0  0  0  0  0  0  0  0
   -4.6878    6.0479   12.0195 C   0  0  0  0  0  0  0  0  0  0  0  0
   -5.7031    6.5226   11.2205 C   0  0  0  0  0  0  0  0  0  0  0  0
   -5.6309    6.3464    9.8503 C   0  0  0  0  0  0  0  0  0  0  0  0
   -4.5602    5.7040    9.2725 C   0  0  0  0  0  0  0  0  0  0  0  0
 22 23  1  0  0  0
 23 16  1  0  0  0
 16 17  2  0  0  0
 17 18  1  0  0  0
 18 19  2  0  0  0
 19 20  1  0  0  0
 20 21  2  0  0  0
 19 12  1  0  0  0
 12 13  2  0  0  0
 12 14  1  0  0  0
 14  7  1  0  0  0
  7  8  2  0  0  0
  8  9  1  0  0  0
  9 10  2  0  0  0
 10 11  1  0  0  0
 10  1  1  0  0  0
  1  2  2  0  0  0
  2  3  1  0  0  0
  3  4  2  0  0  0
  4  5  1  0  0  0
  5  6  2  0  0  0
  6 28  1  0  0  0
 28 29  1  0  0  0
 29 30  1  0  0  0
 30 31  2  0  0  0
 31 32  1  0  0  0
 32 33  2  0  0  0
 33 34  1  0  0  0
 34 35  2  0  0  0
  4 24  1  0  0  0
 24 25  1  0  0  0
 24 26  2  0  0  0
 21 16  1  0  0  0
 11  7  1  0  0  0
  6  1  1  0  0  0
 35 30  1  0  0  0
 14 15  1  0  0  0
 25 27  1  0  0  0
M  END
> <minimizedAffinity>
-7.34405

> <CNNscore>
0.3434657454

> <CNNaffinity>
5.5642595291

> <CNN_VS>
1.9111325741

> <CNNaffinity_variance>
0.1354557872

$$$$
[H]OC(=O)c1c([H])c([H])c(-c2sc(N([H])C(=O)c3c([H])c([H])c(OC([H])([H])[H])c([H])c3[H])nc2[H])c(OC([H])([H])c2c([H])c([H])c([H])c([H])c2[H])c1[H]


 35 38  0  0  0  0  0  0  0  0999 V2000
    4.4670    2.6459   19.9523 C   0  0  0  0  0  0  0  0  0  0  0  0
    3.9673    1.4567   20.5046 C   0  0  0  0  0  0  0  0  0  0  0  0
    4.1356    1.2166   21.8438 C   0  0  0  0  0  0  0  0  0  0  0  0
    4.7883    2.1179   22.6759 C   0  0  0  0  0  0  0  0  0  0  0  0
    5.2769    3.2799   22.1390 C   0  0  0  0  0  0  0  0  0  0  0  0
    5.1076    3.5245   20.7822 C   0  0  0  0  0  0  0  0  0  0  0  0
    3.7839    3.8334   16.1375 C   0  0  0  0  0  0  0  0  0  0  0  0
    4.0819    2.5530   16.2513 N   0  0  0  0  0  0  0  0  0  0  0  0
    4.3230    2.0493   17.4256 C   0  0  0  0  0  0  0  0  0  0  0  0
    4.2613    2.8586   18.5083 C   0  0  0  0  0  0  0  0  0  0  0  0
    3.8401    4.3742   17.7496 S   0  0  0  0  0  0  0  0  0  0  0  0
    2.3158    5.2996   14.8028 C   0  0  0  0  0  0  0  0  0  0  0  0
    1.4960    5.3626   15.7639 O   0  0  0  0  0  0  0  0  0  0  0  0
    3.4904    4.5491   14.9167 N   0  0  0  0  0  0  0  0  0  0  0  0
    4.1597    4.4985   14.1306 H   0  0  0  0  0  0  0  0  0  0  0  0
    1.5731    7.2669   11.1342 C   0  0  0  0  0  0  0  0  0  0  0  0
    2.2700    6.1010   11.2066 C   0  0  0  0  0  0  0  0  0  0  0  0
    2.5153    5.4560   12.3887 C   0  0  0  0  0  0  0  0  0  0  0  0
    2.0322    6.0148   13.5697 C   0  0  0  0  0  0  0  0  0  0  0  0
    1.3338    7.1864   13.4820 C   0  0  0  0  0  0  0  0  0  0  0  0
    1.0876    7.8357   12.2855 C   0  0  0  0  0  0  0  0  0  0  0  0
    2.5356    8.2730    9.1721 C   0  0  0  0  0  0  0  0  0  0  0  0
    1.3845    7.8334    9.8769 O   0  0  0  0  0  0  0  0  0  0  0  0
    4.9678    1.8672   24.0904 C   0  0  0  0  0  0  0  0  0  0  0  0
    6.0571    2.3729   24.7574 O   0  0  0  0  0  0  0  0  0  0  0  0
    4.1275    1.1867   24.7118 O   0  0  0  0  0  0  0  0  0  0  0  0
    6.7042    1.7299   25.2298 H   0  0  0  0  0  0  0  0  0  0  0  0
    5.5890    4.6861   20.2211 O   0  0  0  0  0  0  0  0  0  0  0  0
    5.7296    5.9448   20.7494 C   0  0  0  0  0  0  0  0  0  0  0  0
    7.1635    6.2932   20.8793 C   0  0  0  0  0  0  0  0  0  0  0  0
    7.7936    6.9310   19.8041 C   0  0  0  0  0  0  0  0  0  0  0  0
    9.1022    7.2820   19.8503 C   0  0  0  0  0  0  0  0  0  0  0  0
    9.8333    7.0053   20.9832 C   0  0  0  0  0  0  0  0  0  0  0  0
    9.2214    6.3755   22.0521 C   0  0  0  0  0  0  0  0  0  0  0  0
    7.8930    6.0208   22.0016 C   0  0  0  0  0  0  0  0  0  0  0  0
 22 23  1  0  0  0
 23 16  1  0  0  0
 16 17  2  0  0  0
 17 18  1  0  0  0
 18 19  2  0  0  0
 19 20  1  0  0  0
 20 21  2  0  0  0
 19 12  1  0  0  0
 12 13  2  0  0  0
 12 14  1  0  0  0
 14  7  1  0  0  0
  7  8  2  0  0  0
  8  9  1  0  0  0
  9 10  2  0  0  0
 10 11  1  0  0  0
 10  1  1  0  0  0
  1  2  2  0  0  0
  2  3  1  0  0  0
  3  4  2  0  0  0
  4  5  1  0  0  0
  5  6  2  0  0  0
  6 28  1  0  0  0
 28 29  1  0  0  0
 29 30  1  0  0  0
 30 31  2  0  0  0
 31 32  1  0  0  0
 32 33  2  0  0  0
 33 34  1  0  0  0
 34 35  2  0  0  0
  4 24  1  0  0  0
 24 25  1  0  0  0
 24 26  2  0  0  0
 21 16  1  0  0  0
 11  7  1  0  0  0
  6  1  1  0  0  0
 35 30  1  0  0  0
 14 15  1  0  0  0
 25 27  1  0  0  0
M  END
> <minimizedAffinity>
-7.87039

> <CNNscore>
0.2790303230

> <CNNaffinity>
6.0237030983

> <CNN_VS>
1.6807957888

> <CNNaffinity_variance>
0.2247260362

$$$$
[H]OC(=O)c1c([H])c([H])c(-c2sc(N([H])C(=O)c3c([H])c([H])c(OC([H])([H])[H])c([H])c3[H])nc2[H])c(OC([H])([H])c2c([H])c([H])c([H])c([H])c2[H])c1[H]


 35 38  0  0  0  0  0  0  0  0999 V2000
    0.2718    5.8770    9.4095 C   0  0  0  0  0  0  0  0  0  0  0  0
   -1.1190    5.9181    9.2285 C   0  0  0  0  0  0  0  0  0  0  0  0
   -1.6526    6.8068    8.3314 C   0  0  0  0  0  0  0  0  0  0  0  0
   -0.8561    7.6725    7.5918 C   0  0  0  0  0  0  0  0  0  0  0  0
    0.5022    7.6341    7.7666 C   0  0  0  0  0  0  0  0  0  0  0  0
    1.0445    6.7345    8.6755 C   0  0  0  0  0  0  0  0  0  0  0  0
    1.5795    3.6417   12.5276 C   0  0  0  0  0  0  0  0  0  0  0  0
    1.7028    3.0459   11.3568 N   0  0  0  0  0  0  0  0  0  0  0  0
    1.3182    3.6605   10.2773 C   0  0  0  0  0  0  0  0  0  0  0  0
    0.7976    4.9049   10.3848 C   0  0  0  0  0  0  0  0  0  0  0  0
    0.8909    5.1411   12.1127 S   0  0  0  0  0  0  0  0  0  0  0  0
    3.2346    3.3326   14.3309 C   0  0  0  0  0  0  0  0  0  0  0  0
    4.0802    4.0095   13.6780 O   0  0  0  0  0  0  0  0  0  0  0  0
    1.9542    3.1050   13.8161 N   0  0  0  0  0  0  0  0  0  0  0  0
    1.2639    2.5516   14.3507 H   0  0  0  0  0  0  0  0  0  0  0  0
    4.2071    1.6146   18.0702 C   0  0  0  0  0  0  0  0  0  0  0  0
    3.4280    0.9755   17.1566 C   0  0  0  0  0  0  0  0  0  0  0  0
    3.1078    1.5225   15.9433 C   0  0  0  0  0  0  0  0  0  0  0  0
    3.5991    2.7873   15.6279 C   0  0  0  0  0  0  0  0  0  0  0  0
    4.3804    3.4176   16.5554 C   0  0  0  0  0  0  0  0  0  0  0  0
    4.7022    2.8619   17.7808 C   0  0  0  0  0  0  0  0  0  0  0  0
    4.1611    1.6485   20.4756 C   0  0  0  0  0  0  0  0  0  0  0  0
    4.4670    0.9615   19.2716 O   0  0  0  0  0  0  0  0  0  0  0  0
   -1.4165    8.6122    6.6438 C   0  0  0  0  0  0  0  0  0  0  0  0
   -2.4644    8.2472    5.8338 O   0  0  0  0  0  0  0  0  0  0  0  0
   -0.9461    9.7641    6.5593 O   0  0  0  0  0  0  0  0  0  0  0  0
   -2.3537    8.2900    4.8134 H   0  0  0  0  0  0  0  0  0  0  0  0
    2.4069    6.6773    8.8667 O   0  0  0  0  0  0  0  0  0  0  0  0
    3.4213    6.3669    7.9961 C   0  0  0  0  0  0  0  0  0  0  0  0
    4.0300    7.6023    7.4506 C   0  0  0  0  0  0  0  0  0  0  0  0
    3.9234    7.8460    6.0761 C   0  0  0  0  0  0  0  0  0  0  0  0
    4.4534    8.9553    5.5051 C   0  0  0  0  0  0  0  0  0  0  0  0
    5.1145    9.8683    6.2952 C   0  0  0  0  0  0  0  0  0  0  0  0
    5.2260    9.6382    7.6547 C   0  0  0  0  0  0  0  0  0  0  0  0
    4.6868    8.5111    8.2307 C   0  0  0  0  0  0  0  0  0  0  0  0
 22 23  1  0  0  0
 23 16  1  0  0  0
 16 17  2  0  0  0
 17 18  1  0  0  0
 18 19  2  0  0  0
 19 20  1  0  0  0
 20 21  2  0  0  0
 19 12  1  0  0  0
 12 13  2  0  0  0
 12 14  1  0  0  0
 14  7  1  0  0  0
  7  8  2  0  0  0
  8  9  1  0  0  0
  9 10  2  0  0  0
 10 11  1  0  0  0
 10  1  1  0  0  0
  1  2  2  0  0  0
  2  3  1  0  0  0
  3  4  2  0  0  0
  4  5  1  0  0  0
  5  6  2  0  0  0
  6 28  1  0  0  0
 28 29  1  0  0  0
 29 30  1  0  0  0
 30 31  2  0  0  0
 31 32  1  0  0  0
 32 33  2  0  0  0
 33 34  1  0  0  0
 34 35  2  0  0  0
  4 24  1  0  0  0
 24 25  1  0  0  0
 24 26  2  0  0  0
 21 16  1  0  0  0
 11  7  1  0  0  0
  6  1  1  0  0  0
 35 30  1  0  0  0
 14 15  1  0  0  0
 25 27  1  0  0  0
M  END
> <minimizedAffinity>
-6.80737

> <CNNscore>
0.2410455644

> <CNNaffinity>
5.4138360023

> <CNN_VS>
1.3049811125

> <CNNaffinity_variance>
0.2712027133

$$$$
[H]OC(=O)c1c([H])c([H])c(-c2sc(N([H])C(=O)c3c([H])c([H])c(OC([H])([H])[H])c([H])c3[H])nc2[H])c(OC([H])([H])c2c([H])c([H])c([H])c([H])c2[H])c1[H]


 35 38  0  0  0  0  0  0  0  0999 V2000
    6.6866    6.3431   20.5376 C   0  0  0  0  0  0  0  0  0  0  0  0
    7.8685    7.0940   20.4475 C   0  0  0  0  0  0  0  0  0  0  0  0
    8.8677    6.8842   21.3623 C   0  0  0  0  0  0  0  0  0  0  0  0
    8.7470    5.9469   22.3810 C   0  0  0  0  0  0  0  0  0  0  0  0
    7.5940    5.2123   22.4708 C   0  0  0  0  0  0  0  0  0  0  0  0
    6.5804    5.4239   21.5450 C   0  0  0  0  0  0  0  0  0  0  0  0
    4.1158    6.6323   17.4173 C   0  0  0  0  0  0  0  0  0  0  0  0
    3.8158    7.4240   18.4294 N   0  0  0  0  0  0  0  0  0  0  0  0
    4.5654    7.4238   19.4919 C   0  0  0  0  0  0  0  0  0  0  0  0
    5.6418    6.6047   19.5314 C   0  0  0  0  0  0  0  0  0  0  0  0
    5.5175    5.8398   17.9662 S   0  0  0  0  0  0  0  0  0  0  0  0
    2.3386    5.5997   16.0528 C   0  0  0  0  0  0  0  0  0  0  0  0
    2.0006    4.8744   17.0322 O   0  0  0  0  0  0  0  0  0  0  0  0
    3.3946    6.5091   16.1709 N   0  0  0  0  0  0  0  0  0  0  0  0
    3.6698    7.1013   15.3697 H   0  0  0  0  0  0  0  0  0  0  0  0
    0.3350    5.1314   12.3586 C   0  0  0  0  0  0  0  0  0  0  0  0
    1.2648    4.2421   12.7999 C   0  0  0  0  0  0  0  0  0  0  0  0
    1.9185    4.3840   13.9941 C   0  0  0  0  0  0  0  0  0  0  0  0
    1.6213    5.4852   14.7939 C   0  0  0  0  0  0  0  0  0  0  0  0
    0.6853    6.3707   14.3379 C   0  0  0  0  0  0  0  0  0  0  0  0
    0.0263    6.2241   13.1303 C   0  0  0  0  0  0  0  0  0  0  0  0
   -0.9222    5.9678   10.4854 C   0  0  0  0  0  0  0  0  0  0  0  0
   -0.2659    4.8851   11.1275 O   0  0  0  0  0  0  0  0  0  0  0  0
    9.8003    5.7231   23.3486 C   0  0  0  0  0  0  0  0  0  0  0  0
    9.5066    5.5938   24.6844 O   0  0  0  0  0  0  0  0  0  0  0  0
   10.9858    5.6463   22.9692 O   0  0  0  0  0  0  0  0  0  0  0  0
    9.9230    6.2468   25.3593 H   0  0  0  0  0  0  0  0  0  0  0  0
    5.4135    4.6963   21.6150 O   0  0  0  0  0  0  0  0  0  0  0  0
    5.0081    3.7373   22.5091 C   0  0  0  0  0  0  0  0  0  0  0  0
    4.4494    2.5670   21.7933 C   0  0  0  0  0  0  0  0  0  0  0  0
    4.7298    2.4250   20.4290 C   0  0  0  0  0  0  0  0  0  0  0  0
    4.2552    1.3797   19.7082 C   0  0  0  0  0  0  0  0  0  0  0  0
    3.4765    0.4310   20.3314 C   0  0  0  0  0  0  0  0  0  0  0  0
    3.1928    0.5607   21.6791 C   0  0  0  0  0  0  0  0  0  0  0  0
    3.6763    1.6230   22.4075 C   0  0  0  0  0  0  0  0  0  0  0  0
 22 23  1  0  0  0
 23 16  1  0  0  0
 16 17  2  0  0  0
 17 18  1  0  0  0
 18 19  2  0  0  0
 19 20  1  0  0  0
 20 21  2  0  0  0
 19 12  1  0  0  0
 12 13  2  0  0  0
 12 14  1  0  0  0
 14  7  1  0  0  0
  7  8  2  0  0  0
  8  9  1  0  0  0
  9 10  2  0  0  0
 10 11  1  0  0  0
 10  1  1  0  0  0
  1  2  2  0  0  0
  2  3  1  0  0  0
  3  4  2  0  0  0
  4  5  1  0  0  0
  5  6  2  0  0  0
  6 28  1  0  0  0
 28 29  1  0  0  0
 29 30  1  0  0  0
 30 31  2  0  0  0
 31 32  1  0  0  0
 32 33  2  0  0  0
 33 34  1  0  0  0
 34 35  2  0  0  0
  4 24  1  0  0  0
 24 25  1  0  0  0
 24 26  2  0  0  0
 21 16  1  0  0  0
 11  7  1  0  0  0
  6  1  1  0  0  0
 35 30  1  0  0  0
 14 15  1  0  0  0
 25 27  1  0  0  0
M  END
> <minimizedAffinity>
-8.32436

> <CNNscore>
0.2092084140

> <CNNaffinity>
5.9506330490

> <CNN_VS>
1.2449225187

> <CNNaffinity_variance>
0.0982871577

$$$$
[H]OC(=O)c1c([H])c([H])c(-c2sc(N([H])C(=O)c3c([H])c([H])c(OC([H])([H])[H])c([H])c3[H])nc2[H])c(OC([H])([H])c2c([H])c([H])c([H])c([H])c2[H])c1[H]


 35 38  0  0  0  0  0  0  0  0999 V2000
    6.3913    6.6994   20.4238 C   0  0  0  0  0  0  0  0  0  0  0  0
    7.7214    7.1192   20.2700 C   0  0  0  0  0  0  0  0  0  0  0  0
    8.5008    7.2992   21.3833 C   0  0  0  0  0  0  0  0  0  0  0  0
    8.0134    7.0780   22.6656 C   0  0  0  0  0  0  0  0  0  0  0  0
    6.7151    6.6677   22.8183 C   0  0  0  0  0  0  0  0  0  0  0  0
    5.9239    6.4853   21.6914 C   0  0  0  0  0  0  0  0  0  0  0  0
    4.6620    5.8169   16.8658 C   0  0  0  0  0  0  0  0  0  0  0  0
    3.9613    6.6561   17.6046 N   0  0  0  0  0  0  0  0  0  0  0  0
    4.4102    7.0180   18.7702 C   0  0  0  0  0  0  0  0  0  0  0  0
    5.5937    6.5199   19.1974 C   0  0  0  0  0  0  0  0  0  0  0  0
    6.0228    5.5090   17.8394 S   0  0  0  0  0  0  0  0  0  0  0  0
    3.8652    3.9990   15.4005 C   0  0  0  0  0  0  0  0  0  0  0  0
    3.7623    3.2311   16.4002 O   0  0  0  0  0  0  0  0  0  0  0  0
    4.3114    5.3153   15.5565 N   0  0  0  0  0  0  0  0  0  0  0  0
    4.3950    5.9419   14.7386 H   0  0  0  0  0  0  0  0  0  0  0  0
    2.9232    2.6950   11.4900 C   0  0  0  0  0  0  0  0  0  0  0  0
    3.6388    3.8273   11.7267 C   0  0  0  0  0  0  0  0  0  0  0  0
    3.9496    4.2577   12.9884 C   0  0  0  0  0  0  0  0  0  0  0  0
    3.5158    3.5066   14.0784 C   0  0  0  0  0  0  0  0  0  0  0  0
    2.7977    2.3715   13.8257 C   0  0  0  0  0  0  0  0  0  0  0  0
    2.4854    1.9392   12.5491 C   0  0  0  0  0  0  0  0  0  0  0  0
    2.0334    1.1089    9.9147 C   0  0  0  0  0  0  0  0  0  0  0  0
    2.6666    2.3545   10.1650 O   0  0  0  0  0  0  0  0  0  0  0  0
    8.8340    7.2672   23.8432 C   0  0  0  0  0  0  0  0  0  0  0  0
    9.2967    6.1865   24.5540 O   0  0  0  0  0  0  0  0  0  0  0  0
    9.1252    8.4204   24.2182 O   0  0  0  0  0  0  0  0  0  0  0  0
    9.0478    6.0893   25.5459 H   0  0  0  0  0  0  0  0  0  0  0  0
    4.6168    6.0722   21.8206 O   0  0  0  0  0  0  0  0  0  0  0  0
    4.0808    4.9827   22.4600 C   0  0  0  0  0  0  0  0  0  0  0  0
    4.7304    3.7370   21.9905 C   0  0  0  0  0  0  0  0  0  0  0  0
    4.4328    3.2757   20.7025 C   0  0  0  0  0  0  0  0  0  0  0  0
    4.9895    2.1450   20.2034 C   0  0  0  0  0  0  0  0  0  0  0  0
    5.8712    1.4292   20.9812 C   0  0  0  0  0  0  0  0  0  0  0  0
    6.1729    1.8753   22.2554 C   0  0  0  0  0  0  0  0  0  0  0  0
    5.6059    3.0234   22.7586 C   0  0  0  0  0  0  0  0  0  0  0  0
 22 23  1  0  0  0
 23 16  1  0  0  0
 16 17  2  0  0  0
 17 18  1  0  0  0
 18 19  2  0  0  0
 19 20  1  0  0  0
 20 21  2  0  0  0
 19 12  1  0  0  0
 12 13  2  0  0  0
 12 14  1  0  0  0
 14  7  1  0  0  0
  7  8  2  0  0  0
  8  9  1  0  0  0
  9 10  2  0  0  0
 10 11  1  0  0  0
 10  1  1  0  0  0
  1  2  2  0  0  0
  2  3  1  0  0  0
  3  4  2  0  0  0
  4  5  1  0  0  0
  5  6  2  0  0  0
  6 28  1  0  0  0
 28 29  1  0  0  0
 29 30  1  0  0  0
 30 31  2  0  0  0
 31 32  1  0  0  0
 32 33  2  0  0  0
 33 34  1  0  0  0
 34 35  2  0  0  0
  4 24  1  0  0  0
 24 25  1  0  0  0
 24 26  2  0  0  0
 21 16  1  0  0  0
 11  7  1  0  0  0
  6  1  1  0  0  0
 35 30  1  0  0  0
 14 15  1  0  0  0
 25 27  1  0  0  0
M  END
> <minimizedAffinity>
-8.22529

> <CNNscore>
0.1915145963

> <CNNaffinity>
5.8554487228

> <CNN_VS>
1.1214039326

> <CNNaffinity_variance>
0.2216172665

$$$$
[H]OC(=O)c1c([H])c([H])c(-c2sc(N([H])C(=O)c3c([H])c([H])c(OC([H])([H])[H])c([H])c3[H])nc2[H])c(OC([H])([H])c2c([H])c([H])c([H])c([H])c2[H])c1[H]


 35 38  0  0  0  0  0  0  0  0999 V2000
    4.4169    4.5832   20.6358 C   0  0  0  0  0  0  0  0  0  0  0  0
    4.1041    3.2156   20.6126 C   0  0  0  0  0  0  0  0  0  0  0  0
    4.3323    2.4563   21.7309 C   0  0  0  0  0  0  0  0  0  0  0  0
    4.8659    3.0005   22.8927 C   0  0  0  0  0  0  0  0  0  0  0  0
    5.1719    4.3358   22.9179 C   0  0  0  0  0  0  0  0  0  0  0  0
    4.9418    5.1064   21.7855 C   0  0  0  0  0  0  0  0  0  0  0  0
    3.4588    6.1707   17.0315 C   0  0  0  0  0  0  0  0  0  0  0  0
    4.0099    7.0337   17.8638 N   0  0  0  0  0  0  0  0  0  0  0  0
    4.3628    6.6460   19.0538 C   0  0  0  0  0  0  0  0  0  0  0  0
    4.1535    5.3572   19.4094 C   0  0  0  0  0  0  0  0  0  0  0  0
    3.4260    4.7375   17.9476 S   0  0  0  0  0  0  0  0  0  0  0  0
    3.7920    7.2063   14.8172 C   0  0  0  0  0  0  0  0  0  0  0  0
    4.8978    7.6852   15.2017 O   0  0  0  0  0  0  0  0  0  0  0  0
    3.0113    6.4333   15.6826 N   0  0  0  0  0  0  0  0  0  0  0  0
    2.1078    6.0424   15.3671 H   0  0  0  0  0  0  0  0  0  0  0  0
    2.3113    8.0102   10.9389 C   0  0  0  0  0  0  0  0  0  0  0  0
    1.5978    8.2902   12.0626 C   0  0  0  0  0  0  0  0  0  0  0  0
    2.0681    8.0346   13.3224 C   0  0  0  0  0  0  0  0  0  0  0  0
    3.3308    7.4632   13.4631 C   0  0  0  0  0  0  0  0  0  0  0  0
    4.0363    7.1871   12.3255 C   0  0  0  0  0  0  0  0  0  0  0  0
    3.5580    7.4469   11.0537 C   0  0  0  0  0  0  0  0  0  0  0  0
    1.9957    7.4394    8.6230 C   0  0  0  0  0  0  0  0  0  0  0  0
    1.7323    8.3136    9.7100 O   0  0  0  0  0  0  0  0  0  0  0  0
    5.1082    2.2014   24.0753 C   0  0  0  0  0  0  0  0  0  0  0  0
    6.2993    2.2986   24.7529 O   0  0  0  0  0  0  0  0  0  0  0  0
    4.2296    1.4169   24.4852 O   0  0  0  0  0  0  0  0  0  0  0  0
    6.8856    1.4629   24.8676 H   0  0  0  0  0  0  0  0  0  0  0  0
    5.2403    6.4506   21.7883 O   0  0  0  0  0  0  0  0  0  0  0  0
    6.2375    7.1453   22.4257 C   0  0  0  0  0  0  0  0  0  0  0  0
    7.5282    6.9570   21.7237 C   0  0  0  0  0  0  0  0  0  0  0  0
    8.5671    6.3095   22.4029 C   0  0  0  0  0  0  0  0  0  0  0  0
    9.7753    6.0995   21.8251 C   0  0  0  0  0  0  0  0  0  0  0  0
    9.9894    6.5335   20.5365 C   0  0  0  0  0  0  0  0  0  0  0  0
    8.9702    7.1746   19.8554 C   0  0  0  0  0  0  0  0  0  0  0  0
    7.7452    7.3858   20.4450 C   0  0  0  0  0  0  0  0  0  0  0  0
 22 23  1  0  0  0
 23 16  1  0  0  0
 16 17  2  0  0  0
 17 18  1  0  0  0
 18 19  2  0  0  0
 19 20  1  0  0  0
 20 21  2  0  0  0
 19 12  1  0  0  0
 12 13  2  0  0  0
 12 14  1  0  0  0
 14  7  1  0  0  0
  7  8  2  0  0  0
  8  9  1  0  0  0
  9 10  2  0  0  0
 10 11  1  0  0  0
 10  1  1  0  0  0
  1  2  2  0  0  0
  2  3  1  0  0  0
  3  4  2  0  0  0
  4  5  1  0  0  0
  5  6  2  0  0  0
  6 28  1  0  0  0
 28 29  1  0  0  0
 29 30  1  0  0  0
 30 31  2  0  0  0
 31 32  1  0  0  0
 32 33  2  0  0  0
 33 34  1  0  0  0
 34 35  2  0  0  0
  4 24  1  0  0  0
 24 25  1  0  0  0
 24 26  2  0  0  0
 21 16  1  0  0  0
 11  7  1  0  0  0
  6  1  1  0  0  0
 35 30  1  0  0  0
 14 15  1  0  0  0
 25 27  1  0  0  0
M  END
> <minimizedAffinity>
-7.61435

> <CNNscore>
0.1844959557

> <CNNaffinity>
5.5572710037

> <CNN_VS>
1.0252940655

> <CNNaffinity_variance>
0.1269134283

$$$$
[H]OC(=O)c1c([H])c([H])c(-c2sc(N([H])C(=O)c3c([H])c([H])c(OC([H])([H])[H])c([H])c3[H])nc2[H])c(OC([H])([H])c2c([H])c([H])c([H])c([H])c2[H])c1[H]


 35 38  0  0  0  0  0  0  0  0999 V2000
    2.0927    2.6562   11.9866 C   0  0  0  0  0  0  0  0  0  0  0  0
    2.8481    1.7993   11.1718 C   0  0  0  0  0  0  0  0  0  0  0  0
    2.3131    1.3515    9.9917 C   0  0  0  0  0  0  0  0  0  0  0  0
    1.0402    1.7210    9.5746 C   0  0  0  0  0  0  0  0  0  0  0  0
    0.3008    2.5579   10.3684 C   0  0  0  0  0  0  0  0  0  0  0  0
    0.8412    3.0122   11.5646 C   0  0  0  0  0  0  0  0  0  0  0  0
    3.4139    3.4836   15.7281 C   0  0  0  0  0  0  0  0  0  0  0  0
    3.9961    4.2021   14.7870 N   0  0  0  0  0  0  0  0  0  0  0  0
    3.6584    4.0298   13.5431 C   0  0  0  0  0  0  0  0  0  0  0  0
    2.7111    3.1107   13.2450 C   0  0  0  0  0  0  0  0  0  0  0  0
    2.3350    2.5115   14.8418 S   0  0  0  0  0  0  0  0  0  0  0  0
    4.2910    2.4803   17.8043 C   0  0  0  0  0  0  0  0  0  0  0  0
    4.6382    1.4461   17.1643 O   0  0  0  0  0  0  0  0  0  0  0  0
    3.6690    3.5480   17.1493 N   0  0  0  0  0  0  0  0  0  0  0  0
    3.3859    4.3927   17.6735 H   0  0  0  0  0  0  0  0  0  0  0  0
    5.0894    2.8495   21.9403 C   0  0  0  0  0  0  0  0  0  0  0  0
    5.4123    3.8233   21.0472 C   0  0  0  0  0  0  0  0  0  0  0  0
    5.1577    3.7140   19.7068 C   0  0  0  0  0  0  0  0  0  0  0  0
    4.5419    2.5573   19.2339 C   0  0  0  0  0  0  0  0  0  0  0  0
    4.2234    1.5872   20.1424 C   0  0  0  0  0  0  0  0  0  0  0  0
    4.4821    1.7010   21.4967 C   0  0  0  0  0  0  0  0  0  0  0  0
    5.0749    2.0444   24.2076 C   0  0  0  0  0  0  0  0  0  0  0  0
    5.3961    3.0699   23.2800 O   0  0  0  0  0  0  0  0  0  0  0  0
    0.4723    1.2497    8.3291 C   0  0  0  0  0  0  0  0  0  0  0  0
   -0.8380    0.8414    8.2684 O   0  0  0  0  0  0  0  0  0  0  0  0
    1.1762    1.2131    7.3004 O   0  0  0  0  0  0  0  0  0  0  0  0
   -1.0557   -0.1175    7.9714 H   0  0  0  0  0  0  0  0  0  0  0  0
    0.1170    3.8549   12.3776 O   0  0  0  0  0  0  0  0  0  0  0  0
   -0.4872    5.0576   12.1097 C   0  0  0  0  0  0  0  0  0  0  0  0
    0.4512    6.1751   12.3643 C   0  0  0  0  0  0  0  0  0  0  0  0
    0.9145    6.9173   11.2714 C   0  0  0  0  0  0  0  0  0  0  0  0
    1.7731    7.9548   11.4261 C   0  0  0  0  0  0  0  0  0  0  0  0
    2.2026    8.2899   12.6902 C   0  0  0  0  0  0  0  0  0  0  0  0
    1.7515    7.5637   13.7778 C   0  0  0  0  0  0  0  0  0  0  0  0
    0.8801    6.5113   13.6169 C   0  0  0  0  0  0  0  0  0  0  0  0
 22 23  1  0  0  0
 23 16  1  0  0  0
 16 17  2  0  0  0
 17 18  1  0  0  0
 18 19  2  0  0  0
 19 20  1  0  0  0
 20 21  2  0  0  0
 19 12  1  0  0  0
 12 13  2  0  0  0
 12 14  1  0  0  0
 14  7  1  0  0  0
  7  8  2  0  0  0
  8  9  1  0  0  0
  9 10  2  0  0  0
 10 11  1  0  0  0
 10  1  1  0  0  0
  1  2  2  0  0  0
  2  3  1  0  0  0
  3  4  2  0  0  0
  4  5  1  0  0  0
  5  6  2  0  0  0
  6 28  1  0  0  0
 28 29  1  0  0  0
 29 30  1  0  0  0
 30 31  2  0  0  0
 31 32  1  0  0  0
 32 33  2  0  0  0
 33 34  1  0  0  0
 34 35  2  0  0  0
  4 24  1  0  0  0
 24 25  1  0  0  0
 24 26  2  0  0  0
 21 16  1  0  0  0
 11  7  1  0  0  0
  6  1  1  0  0  0
 35 30  1  0  0  0
 14 15  1  0  0  0
 25 27  1  0  0  0
M  END
> <minimizedAffinity>
-6.76585

> <CNNscore>
0.1505991966

> <CNNaffinity>
5.6835069656

> <CNN_VS>
0.8559315801

> <CNNaffinity_variance>
0.2295743227

$$$$
[H]OC(=O)c1c([H])c([H])c(-c2sc(N([H])C(=O)c3c([H])c([H])c(OC([H])([H])[H])c([H])c3[H])nc2[H])c(OC([H])([H])c2c([H])c([H])c([H])c([H])c2[H])c1[H]


 35 38  0  0  0  0  0  0  0  0999 V2000
    5.7202    8.6912   20.4970 C   0  0  0  0  0  0  0  0  0  0  0  0
    5.8968    9.8962   21.1940 C   0  0  0  0  0  0  0  0  0  0  0  0
    6.3786    9.8645   22.4770 C   0  0  0  0  0  0  0  0  0  0  0  0
    6.6995    8.6711   23.1125 C   0  0  0  0  0  0  0  0  0  0  0  0
    6.5282    7.4933   22.4339 C   0  0  0  0  0  0  0  0  0  0  0  0
    6.0397    7.5236   21.1340 C   0  0  0  0  0  0  0  0  0  0  0  0
    4.8778    8.7763   16.5331 C   0  0  0  0  0  0  0  0  0  0  0  0
    3.8436    9.0563   17.3033 N   0  0  0  0  0  0  0  0  0  0  0  0
    3.9854    9.0614   18.5959 C   0  0  0  0  0  0  0  0  0  0  0  0
    5.1999    8.7771   19.1206 C   0  0  0  0  0  0  0  0  0  0  0  0
    6.1209    8.5037   17.6622 S   0  0  0  0  0  0  0  0  0  0  0  0
    4.2185    7.7086   14.4090 C   0  0  0  0  0  0  0  0  0  0  0  0
    3.5859    6.8182   15.0467 O   0  0  0  0  0  0  0  0  0  0  0  0
    4.8938    8.7274   15.0888 N   0  0  0  0  0  0  0  0  0  0  0  0
    5.4104    9.4545   14.5664 H   0  0  0  0  0  0  0  0  0  0  0  0
    4.1259    7.5972   10.1830 C   0  0  0  0  0  0  0  0  0  0  0  0
    2.9930    7.6359   10.9348 C   0  0  0  0  0  0  0  0  0  0  0  0
    3.0120    7.6727   12.3030 C   0  0  0  0  0  0  0  0  0  0  0  0
    4.2424    7.6705   12.9563 C   0  0  0  0  0  0  0  0  0  0  0  0
    5.3723    7.6313   12.1883 C   0  0  0  0  0  0  0  0  0  0  0  0
    5.3495    7.5942   10.8055 C   0  0  0  0  0  0  0  0  0  0  0  0
    4.7084    8.5176    8.0376 C   0  0  0  0  0  0  0  0  0  0  0  0
    3.9853    7.5619    8.7986 O   0  0  0  0  0  0  0  0  0  0  0  0
    7.2084    8.6343   24.4673 C   0  0  0  0  0  0  0  0  0  0  0  0
    8.0648    7.6366   24.8655 O   0  0  0  0  0  0  0  0  0  0  0  0
    6.8682    9.5146   25.2824 O   0  0  0  0  0  0  0  0  0  0  0  0
    7.7996    7.0241   25.6464 H   0  0  0  0  0  0  0  0  0  0  0  0
    5.8607    6.3525   20.4323 O   0  0  0  0  0  0  0  0  0  0  0  0
    4.7809    5.5089   20.3581 C   0  0  0  0  0  0  0  0  0  0  0  0
    4.7604    4.5924   21.5217 C   0  0  0  0  0  0  0  0  0  0  0  0
    3.8060    4.8089   22.5228 C   0  0  0  0  0  0  0  0  0  0  0  0
    3.7251    4.0112   23.6158 C   0  0  0  0  0  0  0  0  0  0  0  0
    4.6034    2.9596   23.7477 C   0  0  0  0  0  0  0  0  0  0  0  0
    5.5508    2.7358   22.7649 C   0  0  0  0  0  0  0  0  0  0  0  0
    5.6299    3.5476   21.6569 C   0  0  0  0  0  0  0  0  0  0  0  0
 22 23  1  0  0  0
 23 16  1  0  0  0
 16 17  2  0  0  0
 17 18  1  0  0  0
 18 19  2  0  0  0
 19 20  1  0  0  0
 20 21  2  0  0  0
 19 12  1  0  0  0
 12 13  2  0  0  0
 12 14  1  0  0  0
 14  7  1  0  0  0
  7  8  2  0  0  0
  8  9  1  0  0  0
  9 10  2  0  0  0
 10 11  1  0  0  0
 10  1  1  0  0  0
  1  2  2  0  0  0
  2  3  1  0  0  0
  3  4  2  0  0  0
  4  5  1  0  0  0
  5  6  2  0  0  0
  6 28  1  0  0  0
 28 29  1  0  0  0
 29 30  1  0  0  0
 30 31  2  0  0  0
 31 32  1  0  0  0
 32 33  2  0  0  0
 33 34  1  0  0  0
 34 35  2  0  0  0
  4 24  1  0  0  0
 24 25  1  0  0  0
 24 26  2  0  0  0
 21 16  1  0  0  0
 11  7  1  0  0  0
  6  1  1  0  0  0
 35 30  1  0  0  0
 14 15  1  0  0  0
 25 27  1  0  0  0
M  END
> <minimizedAffinity>
-7.83432

> <CNNscore>
0.1502304375

> <CNNaffinity>
5.4011917114

> <CNN_VS>
0.8114234209

> <CNNaffinity_variance>
0.3121445775

$$$$
[H]c1nc(C(=O)N([H])[H])c(N([H])c2c([H])c([H])c(C3([H])C([H])([H])C([H])([H])N(C4([H])C([H])([H])C([H])([H])C([H])([H])C4([H])[H])C([H])([H])C3([H])[H])c([H])c2[H])nc1N1C([H])([H])C([H])([H])C([H])([H])[C@@]([H])(N([H])C(=O)N2C([H])([H])C([H])([H])C([H])([H])C2([H])[H])C1([H])[H]


 45 50  0  0  0  0  0  0  0  0999 V2000
    3.7555    1.2546   20.2692 C   0  0  0  0  0  0  0  0  0  0  0  0
    3.6336    1.7956   21.5211 N   0  0  0  0  0  0  0  0  0  0  0  0
    4.1730    2.9658   21.8412 C   0  0  0  0  0  0  0  0  0  0  0  0
    4.8919    3.7083   20.9234 C   0  0  0  0  0  0  0  0  0  0  0  0
    5.0096    3.1872   19.7163 N   0  0  0  0  0  0  0  0  0  0  0  0
    4.4688    1.9844   19.3485 C   0  0  0  0  0  0  0  0  0  0  0  0
    5.4721    4.9644   21.2752 N   0  0  0  0  0  0  0  0  0  0  0  0
    5.2537    6.1277   20.4373 C   0  0  0  0  0  0  0  0  0  0  0  0
    6.6209    6.4619   19.8333 C   0  0  0  0  0  0  0  0  0  0  0  0
    7.6139    6.7277   20.9468 C   0  0  0  0  0  0  0  0  0  0  0  0
    7.6624    5.6064   21.9420 C   0  0  0  0  0  0  0  0  0  0  0  0
    6.2880    5.2030   22.4258 C   0  0  0  0  0  0  0  0  0  0  0  0
    8.4994    5.9922   23.0587 N   0  0  0  0  0  0  0  0  0  0  0  0
    9.8949    5.7497   23.0006 C   0  0  0  0  0  0  0  0  0  0  0  0
   10.4583    5.2154   22.0217 O   0  0  0  0  0  0  0  0  0  0  0  0
   10.6881    6.1335   24.1117 N   0  0  0  0  0  0  0  0  0  0  0  0
   12.1446    5.9642   24.2261 C   0  0  0  0  0  0  0  0  0  0  0  0
   12.5661    7.2418   24.8833 C   0  0  0  0  0  0  0  0  0  0  0  0
   11.3521    7.7697   25.6020 C   0  0  0  0  0  0  0  0  0  0  0  0
   10.2756    6.7502   25.3520 C   0  0  0  0  0  0  0  0  0  0  0  0
    8.0427    6.4394   23.8743 H   0  0  0  0  0  0  0  0  0  0  0  0
    3.2383   -1.0352   21.0891 N   0  0  0  0  0  0  0  0  0  0  0  0
    3.1090   -0.0252   20.0470 C   0  0  0  0  0  0  0  0  0  0  0  0
    2.4435   -0.4075   19.0804 O   0  0  0  0  0  0  0  0  0  0  0  0
    2.5263   -1.0213   21.8425 H   0  0  0  0  0  0  0  0  0  0  0  0
    3.9875   -1.7312   21.0947 H   0  0  0  0  0  0  0  0  0  0  0  0
    4.6761    1.4691   18.0599 N   0  0  0  0  0  0  0  0  0  0  0  0
    5.3134    0.6675   17.8946 H   0  0  0  0  0  0  0  0  0  0  0  0
    4.0570    1.9887   16.9126 C   0  0  0  0  0  0  0  0  0  0  0  0
    4.4039    3.2783   16.4826 C   0  0  0  0  0  0  0  0  0  0  0  0
    3.8789    3.8526   15.3518 C   0  0  0  0  0  0  0  0  0  0  0  0
    2.9681    3.1102   14.6161 C   0  0  0  0  0  0  0  0  0  0  0  0
    2.5939    1.8424   14.9924 C   0  0  0  0  0  0  0  0  0  0  0  0
    3.1604    1.2994   16.1577 C   0  0  0  0  0  0  0  0  0  0  0  0
    2.4009    3.7236   13.3926 C   0  0  0  0  0  0  0  0  0  0  0  0
    1.0406    3.1302   13.1406 C   0  0  0  0  0  0  0  0  0  0  0  0
    0.3203    3.8659   12.0106 C   0  0  0  0  0  0  0  0  0  0  0  0
    0.2657    5.2658   12.2228 N   0  0  0  0  0  0  0  0  0  0  0  0
    0.9979    5.7543   13.3318 C   0  0  0  0  0  0  0  0  0  0  0  0
    2.3879    5.2145   13.4911 C   0  0  0  0  0  0  0  0  0  0  0  0
    0.1590    6.0601   11.0692 C   0  0  0  0  0  0  0  0  0  0  0  0
   -1.1321    5.9654   10.3012 C   0  0  0  0  0  0  0  0  0  0  0  0
   -0.7725    6.1590    8.8223 C   0  0  0  0  0  0  0  0  0  0  0  0
    0.6165    6.8048    8.9218 C   0  0  0  0  0  0  0  0  0  0  0  0
    1.1975    5.8935   10.0198 C   0  0  0  0  0  0  0  0  0  0  0  0
 22 23  1  0  0  0
 23 24  2  0  0  0
 23  1  1  0  0  0
  1  2  2  0  0  0
  2  3  1  0  0  0
  3  4  2  0  0  0
  4  5  1  0  0  0
  5  6  2  0  0  0
  6 27  1  0  0  0
 27 29  1  0  0  0
 29 30  2  0  0  0
 30 31  1  0  0  0
 31 32  2  0  0  0
 32 33  1  0  0  0
 33 34  2  0  0  0
 32 35  1  0  0  0
 35 36  1  0  0  0
 36 37  1  0  0  0
 37 38  1  0  0  0
 38 39  1  0  0  0
 39 40  1  0  0  0
 38 41  1  0  0  0
 41 42  1  0  0  0
 42 43  1  0  0  0
 43 44  1  0  0  0
 44 45  1  0  0  0
  4  7  1  0  0  0
  7  8  1  0  0  0
  8  9  1  0  0  0
  9 10  1  0  0  0
 10 11  1  0  0  0
 11 12  1  0  0  0
 11 13  1  0  0  0
 13 14  1  0  0  0
 14 15  2  0  0  0
 14 16  1  0  0  0
 16 17  1  0  0  0
 17 18  1  0  0  0
 18 19  1  0  0  0
 19 20  1  0  0  0
  6  1  1  0  0  0
 34 29  1  0  0  0
 40 35  1  0  0  0
 45 41  1  0  0  0
 12  7  1  0  0  0
 20 16  1  0  0  0
 22 25  1  0  0  0
 22 26  1  0  0  0
 27 28  1  0  0  0
 13 21  1  0  0  0
M  END
> <minimizedAffinity>
-9.88191

> <CNNscore>
0.7806035876

> <CNNaffinity>
7.6460447311

> <CNN_VS>
5.9685301781

> <CNNaffinity_variance>
0.0389144570

$$$$
[H]c1nc(C(=O)N([H])[H])c(N([H])c2c([H])c([H])c(C3([H])C([H])([H])C([H])([H])N(C4([H])C([H])([H])C([H])([H])C([H])([H])C4([H])[H])C([H])([H])C3([H])[H])c([H])c2[H])nc1N1C([H])([H])C([H])([H])C([H])([H])[C@@]([H])(N([H])C(=O)N2C([H])([H])C([H])([H])C([H])([H])C2([H])[H])C1([H])[H]


 45 50  0  0  0  0  0  0  0  0999 V2000
    3.6450    1.1342   20.0156 C   0  0  0  0  0  0  0  0  0  0  0  0
    3.6937    1.7229   21.2509 N   0  0  0  0  0  0  0  0  0  0  0  0
    4.3499    2.8564   21.4685 C   0  0  0  0  0  0  0  0  0  0  0  0
    5.0246    3.5099   20.4545 C   0  0  0  0  0  0  0  0  0  0  0  0
    4.9779    2.9427   19.2635 N   0  0  0  0  0  0  0  0  0  0  0  0
    4.3129    1.7754   18.9999 C   0  0  0  0  0  0  0  0  0  0  0  0
    5.7310    4.7268   20.6961 N   0  0  0  0  0  0  0  0  0  0  0  0
    6.2820    5.0006   22.0094 C   0  0  0  0  0  0  0  0  0  0  0  0
    5.4755    6.1826   22.5554 C   0  0  0  0  0  0  0  0  0  0  0  0
    5.6078    7.3625   21.6137 C   0  0  0  0  0  0  0  0  0  0  0  0
    5.2522    7.0028   20.2015 C   0  0  0  0  0  0  0  0  0  0  0  0
    5.9603    5.7541   19.7272 C   0  0  0  0  0  0  0  0  0  0  0  0
    5.5566    8.1192   19.3311 N   0  0  0  0  0  0  0  0  0  0  0  0
    4.5016    8.9301   18.8423 C   0  0  0  0  0  0  0  0  0  0  0  0
    3.3001    8.7378   19.1264 O   0  0  0  0  0  0  0  0  0  0  0  0
    4.8301   10.0128   17.9874 N   0  0  0  0  0  0  0  0  0  0  0  0
    3.8729   10.9570   17.3913 C   0  0  0  0  0  0  0  0  0  0  0  0
    4.5966   12.2629   17.5045 C   0  0  0  0  0  0  0  0  0  0  0  0
    6.0622   11.9286   17.5998 C   0  0  0  0  0  0  0  0  0  0  0  0
    6.1283   10.4294   17.5077 C   0  0  0  0  0  0  0  0  0  0  0  0
    6.5503    8.2897   19.0920 H   0  0  0  0  0  0  0  0  0  0  0  0
    2.9684   -1.0376   21.0199 N   0  0  0  0  0  0  0  0  0  0  0  0
    2.8844   -0.0969   19.9105 C   0  0  0  0  0  0  0  0  0  0  0  0
    2.1516   -0.4875   18.9973 O   0  0  0  0  0  0  0  0  0  0  0  0
    2.2901   -0.9080   21.7931 H   0  0  0  0  0  0  0  0  0  0  0  0
    3.6556   -1.7942   21.0526 H   0  0  0  0  0  0  0  0  0  0  0  0
    4.3472    1.2043   17.7186 N   0  0  0  0  0  0  0  0  0  0  0  0
    4.7232    0.2503   17.5621 H   0  0  0  0  0  0  0  0  0  0  0  0
    3.8915    1.8649   16.5672 C   0  0  0  0  0  0  0  0  0  0  0  0
    2.9326    1.2339   15.7607 C   0  0  0  0  0  0  0  0  0  0  0  0
    2.4020    1.8192   14.6382 C   0  0  0  0  0  0  0  0  0  0  0  0
    2.8455    3.0894   14.3036 C   0  0  0  0  0  0  0  0  0  0  0  0
    3.7828    3.7525   15.0592 C   0  0  0  0  0  0  0  0  0  0  0  0
    4.2947    3.1103   16.1989 C   0  0  0  0  0  0  0  0  0  0  0  0
    2.2735    3.7276   13.0952 C   0  0  0  0  0  0  0  0  0  0  0  0
    1.0073    3.0049   12.7204 C   0  0  0  0  0  0  0  0  0  0  0  0
    0.2642    3.7397   11.6046 C   0  0  0  0  0  0  0  0  0  0  0  0
    0.0344    5.1036   11.9124 N   0  0  0  0  0  0  0  0  0  0  0  0
    0.6461    5.5843   13.0952 C   0  0  0  0  0  0  0  0  0  0  0  0
    2.0800    5.1952   13.2987 C   0  0  0  0  0  0  0  0  0  0  0  0
   -0.1058    5.9678   10.8140 C   0  0  0  0  0  0  0  0  0  0  0  0
   -1.4644    6.0244   10.1684 C   0  0  0  0  0  0  0  0  0  0  0  0
   -1.2244    6.2706    8.6731 C   0  0  0  0  0  0  0  0  0  0  0  0
    0.2194    6.7919    8.6715 C   0  0  0  0  0  0  0  0  0  0  0  0
    0.8147    5.7749    9.6639 C   0  0  0  0  0  0  0  0  0  0  0  0
 22 23  1  0  0  0
 23 24  2  0  0  0
 23  1  1  0  0  0
  1  2  2  0  0  0
  2  3  1  0  0  0
  3  4  2  0  0  0
  4  5  1  0  0  0
  5  6  2  0  0  0
  6 27  1  0  0  0
 27 29  1  0  0  0
 29 30  2  0  0  0
 30 31  1  0  0  0
 31 32  2  0  0  0
 32 33  1  0  0  0
 33 34  2  0  0  0
 32 35  1  0  0  0
 35 36  1  0  0  0
 36 37  1  0  0  0
 37 38  1  0  0  0
 38 39  1  0  0  0
 39 40  1  0  0  0
 38 41  1  0  0  0
 41 42  1  0  0  0
 42 43  1  0  0  0
 43 44  1  0  0  0
 44 45  1  0  0  0
  4  7  1  0  0  0
  7  8  1  0  0  0
  8  9  1  0  0  0
  9 10  1  0  0  0
 10 11  1  0  0  0
 11 12  1  0  0  0
 11 13  1  0  0  0
 13 14  1  0  0  0
 14 15  2  0  0  0
 14 16  1  0  0  0
 16 17  1  0  0  0
 17 18  1  0  0  0
 18 19  1  0  0  0
 19 20  1  0  0  0
  6  1  1  0  0  0
 34 29  1  0  0  0
 40 35  1  0  0  0
 45 41  1  0  0  0
 12  7  1  0  0  0
 20 16  1  0  0  0
 22 25  1  0  0  0
 22 26  1  0  0  0
 27 28  1  0  0  0
 13 21  1  0  0  0
M  END
> <minimizedAffinity>
-9.88591

> <CNNscore>
0.6486278772

> <CNNaffinity>
7.7024521828

> <CNN_VS>
4.9960250854

> <CNNaffinity_variance>
0.1358796060

$$$$
[H]c1nc(C(=O)N([H])[H])c(N([H])c2c([H])c([H])c(C3([H])C([H])([H])C([H])([H])N(C4([H])C([H])([H])C([H])([H])C([H])([H])C4([H])[H])C([H])([H])C3([H])[H])c([H])c2[H])nc1N1C([H])([H])C([H])([H])C([H])([H])[C@@]([H])(N([H])C(=O)N2C([H])([H])C([H])([H])C([H])([H])C2([H])[H])C1([H])[H]


 45 50  0  0  0  0  0  0  0  0999 V2000
    3.9556    2.6519   21.8958 C   0  0  0  0  0  0  0  0  0  0  0  0
    3.7466    3.6877   22.7667 N   0  0  0  0  0  0  0  0  0  0  0  0
    4.0823    4.9379   22.4719 C   0  0  0  0  0  0  0  0  0  0  0  0
    4.6647    5.2663   21.2621 C   0  0  0  0  0  0  0  0  0  0  0  0
    4.8663    4.2681   20.4223 N   0  0  0  0  0  0  0  0  0  0  0  0
    4.5346    2.9671   20.6899 C   0  0  0  0  0  0  0  0  0  0  0  0
    5.0263    6.6124   20.9528 N   0  0  0  0  0  0  0  0  0  0  0  0
    4.4311    7.2828   19.8129 C   0  0  0  0  0  0  0  0  0  0  0  0
    5.5740    7.4896   18.8146 C   0  0  0  0  0  0  0  0  0  0  0  0
    6.6692    8.3117   19.4638 C   0  0  0  0  0  0  0  0  0  0  0  0
    7.1196    7.7254   20.7689 C   0  0  0  0  0  0  0  0  0  0  0  0
    5.9630    7.4049   21.6884 C   0  0  0  0  0  0  0  0  0  0  0  0
    8.0404    8.6387   21.4127 N   0  0  0  0  0  0  0  0  0  0  0  0
    9.4269    8.3439   21.4158 C   0  0  0  0  0  0  0  0  0  0  0  0
    9.9129    7.3239   20.8822 O   0  0  0  0  0  0  0  0  0  0  0  0
   10.3037    9.2543   22.0589 N   0  0  0  0  0  0  0  0  0  0  0  0
   11.7645    9.1148   22.1581 C   0  0  0  0  0  0  0  0  0  0  0  0
   12.2368   10.5193   21.9435 C   0  0  0  0  0  0  0  0  0  0  0  0
   11.0822   11.4154   22.3082 C   0  0  0  0  0  0  0  0  0  0  0  0
    9.9885   10.4835   22.7507 C   0  0  0  0  0  0  0  0  0  0  0  0
    7.6482    9.4895   21.8554 H   0  0  0  0  0  0  0  0  0  0  0  0
    2.7029    0.5556   21.4275 N   0  0  0  0  0  0  0  0  0  0  0  0
    3.5329    1.3356   22.3361 C   0  0  0  0  0  0  0  0  0  0  0  0
    3.7733    0.7513   23.3964 O   0  0  0  0  0  0  0  0  0  0  0  0
    3.1986   -0.0423   20.7408 H   0  0  0  0  0  0  0  0  0  0  0  0
    1.6809    0.5835   21.4503 H   0  0  0  0  0  0  0  0  0  0  0  0
    4.8235    1.9494   19.7681 N   0  0  0  0  0  0  0  0  0  0  0  0
    5.4196    1.1404   20.0254 H   0  0  0  0  0  0  0  0  0  0  0  0
    4.3455    1.9455   18.4485 C   0  0  0  0  0  0  0  0  0  0  0  0
    4.7368    2.9795   17.5848 C   0  0  0  0  0  0  0  0  0  0  0  0
    4.3501    3.0372   16.2690 C   0  0  0  0  0  0  0  0  0  0  0  0
    3.5378    2.0203   15.7916 C   0  0  0  0  0  0  0  0  0  0  0  0
    3.1259    0.9838   16.5947 C   0  0  0  0  0  0  0  0  0  0  0  0
    3.5494    0.9705   17.9341 C   0  0  0  0  0  0  0  0  0  0  0  0
    3.1203    2.0754   14.3712 C   0  0  0  0  0  0  0  0  0  0  0  0
    1.6375    1.8279   14.2935 C   0  0  0  0  0  0  0  0  0  0  0  0
    1.1125    2.0717   12.8785 C   0  0  0  0  0  0  0  0  0  0  0  0
    1.4719    3.3480   12.3789 N   0  0  0  0  0  0  0  0  0  0  0  0
    2.3595    4.1020   13.1839 C   0  0  0  0  0  0  0  0  0  0  0  0
    3.5408    3.3594   13.7332 C   0  0  0  0  0  0  0  0  0  0  0  0
    1.5499    3.4627   10.9811 C   0  0  0  0  0  0  0  0  0  0  0  0
    1.3239    4.8338   10.4024 C   0  0  0  0  0  0  0  0  0  0  0  0
    0.6420    4.6244    9.0440 C   0  0  0  0  0  0  0  0  0  0  0  0
    0.9574    3.1489    8.7617 C   0  0  0  0  0  0  0  0  0  0  0  0
    0.6601    2.5942   10.1679 C   0  0  0  0  0  0  0  0  0  0  0  0
 22 23  1  0  0  0
 23 24  2  0  0  0
 23  1  1  0  0  0
  1  2  2  0  0  0
  2  3  1  0  0  0
  3  4  2  0  0  0
  4  5  1  0  0  0
  5  6  2  0  0  0
  6 27  1  0  0  0
 27 29  1  0  0  0
 29 30  2  0  0  0
 30 31  1  0  0  0
 31 32  2  0  0  0
 32 33  1  0  0  0
 33 34  2  0  0  0
 32 35  1  0  0  0
 35 36  1  0  0  0
 36 37  1  0  0  0
 37 38  1  0  0  0
 38 39  1  0  0  0
 39 40  1  0  0  0
 38 41  1  0  0  0
 41 42  1  0  0  0
 42 43  1  0  0  0
 43 44  1  0  0  0
 44 45  1  0  0  0
  4  7  1  0  0  0
  7  8  1  0  0  0
  8  9  1  0  0  0
  9 10  1  0  0  0
 10 11  1  0  0  0
 11 12  1  0  0  0
 11 13  1  0  0  0
 13 14  1  0  0  0
 14 15  2  0  0  0
 14 16  1  0  0  0
 16 17  1  0  0  0
 17 18  1  0  0  0
 18 19  1  0  0  0
 19 20  1  0  0  0
  6  1  1  0  0  0
 34 29  1  0  0  0
 40 35  1  0  0  0
 45 41  1  0  0  0
 12  7  1  0  0  0
 20 16  1  0  0  0
 22 25  1  0  0  0
 22 26  1  0  0  0
 27 28  1  0  0  0
 13 21  1  0  0  0
M  END
> <minimizedAffinity>
-9.46403

> <CNNscore>
0.3354086876

> <CNNaffinity>
7.0458631516

> <CNN_VS>
2.3632438183

> <CNNaffinity_variance>
0.2381387204

$$$$
[H]c1nc(C(=O)N([H])[H])c(N([H])c2c([H])c([H])c(C3([H])C([H])([H])C([H])([H])N(C4([H])C([H])([H])C([H])([H])C([H])([H])C4([H])[H])C([H])([H])C3([H])[H])c([H])c2[H])nc1N1C([H])([H])C([H])([H])C([H])([H])[C@@]([H])(N([H])C(=O)N2C([H])([H])C([H])([H])C([H])([H])C2([H])[H])C1([H])[H]


 45 50  0  0  0  0  0  0  0  0999 V2000
    3.7447    1.2098   20.2259 C   0  0  0  0  0  0  0  0  0  0  0  0
    3.5768    0.7416   18.9503 N   0  0  0  0  0  0  0  0  0  0  0  0
    3.8039    1.4988   17.8836 C   0  0  0  0  0  0  0  0  0  0  0  0
    4.2253    2.8100   18.0015 C   0  0  0  0  0  0  0  0  0  0  0  0
    4.3873    3.2617   19.2311 N   0  0  0  0  0  0  0  0  0  0  0  0
    4.1631    2.5126   20.3549 C   0  0  0  0  0  0  0  0  0  0  0  0
    4.4644    3.6198   16.8503 N   0  0  0  0  0  0  0  0  0  0  0  0
    5.4451    4.6870   16.9015 C   0  0  0  0  0  0  0  0  0  0  0  0
    4.6447    5.9871   16.7807 C   0  0  0  0  0  0  0  0  0  0  0  0
    3.8626    5.9802   15.4826 C   0  0  0  0  0  0  0  0  0  0  0  0
    3.0197    4.7481   15.3356 C   0  0  0  0  0  0  0  0  0  0  0  0
    3.8013    3.4793   15.5904 C   0  0  0  0  0  0  0  0  0  0  0  0
    2.4323    4.7240   14.0125 N   0  0  0  0  0  0  0  0  0  0  0  0
    1.2003    5.3872   13.7844 C   0  0  0  0  0  0  0  0  0  0  0  0
    0.5799    6.0075   14.6741 O   0  0  0  0  0  0  0  0  0  0  0  0
    0.6467    5.3416   12.4796 N   0  0  0  0  0  0  0  0  0  0  0  0
   -0.6142    5.9713   12.0595 C   0  0  0  0  0  0  0  0  0  0  0  0
   -0.2707    6.5052   10.7035 C   0  0  0  0  0  0  0  0  0  0  0  0
    0.8941    5.6883   10.2086 C   0  0  0  0  0  0  0  0  0  0  0  0
    1.1601    4.6867   11.2979 C   0  0  0  0  0  0  0  0  0  0  0  0
    2.9404    4.2153   13.2663 H   0  0  0  0  0  0  0  0  0  0  0  0
    3.1704   -1.1017   20.9402 N   0  0  0  0  0  0  0  0  0  0  0  0
    3.4734    0.2764   21.3032 C   0  0  0  0  0  0  0  0  0  0  0  0
    3.4577    0.4721   22.5217 O   0  0  0  0  0  0  0  0  0  0  0  0
    3.9768   -1.7455   20.8409 H   0  0  0  0  0  0  0  0  0  0  0  0
    2.2163   -1.4361   20.7864 H   0  0  0  0  0  0  0  0  0  0  0  0
    4.3092    3.0747   21.6322 N   0  0  0  0  0  0  0  0  0  0  0  0
    3.9359    2.6018   22.4767 H   0  0  0  0  0  0  0  0  0  0  0  0
    4.9524    4.2998   21.8669 C   0  0  0  0  0  0  0  0  0  0  0  0
    6.3399    4.3060   22.0745 C   0  0  0  0  0  0  0  0  0  0  0  0
    7.0581    5.4587   22.2734 C   0  0  0  0  0  0  0  0  0  0  0  0
    6.3643    6.6589   22.2653 C   0  0  0  0  0  0  0  0  0  0  0  0
    5.0053    6.7095   22.0661 C   0  0  0  0  0  0  0  0  0  0  0  0
    4.3162    5.5017   21.8667 C   0  0  0  0  0  0  0  0  0  0  0  0
    7.1348    7.9066   22.4758 C   0  0  0  0  0  0  0  0  0  0  0  0
    6.2193    9.0820   22.2605 C   0  0  0  0  0  0  0  0  0  0  0  0
    6.9012   10.3908   22.6597 C   0  0  0  0  0  0  0  0  0  0  0  0
    7.4246   10.3504   23.9758 N   0  0  0  0  0  0  0  0  0  0  0  0
    7.3689    9.0947   24.6275 C   0  0  0  0  0  0  0  0  0  0  0  0
    7.8010    7.9118   23.8133 C   0  0  0  0  0  0  0  0  0  0  0  0
    8.5051   11.2094   24.2357 C   0  0  0  0  0  0  0  0  0  0  0  0
    9.6418   11.1822   23.2493 C   0  0  0  0  0  0  0  0  0  0  0  0
   10.9206   11.4508   24.0534 C   0  0  0  0  0  0  0  0  0  0  0  0
   10.3548   12.0635   25.3421 C   0  0  0  0  0  0  0  0  0  0  0  0
    9.1859   11.0817   25.5500 C   0  0  0  0  0  0  0  0  0  0  0  0
 22 23  1  0  0  0
 23 24  2  0  0  0
 23  1  1  0  0  0
  1  2  2  0  0  0
  2  3  1  0  0  0
  3  4  2  0  0  0
  4  5  1  0  0  0
  5  6  2  0  0  0
  6 27  1  0  0  0
 27 29  1  0  0  0
 29 30  2  0  0  0
 30 31  1  0  0  0
 31 32  2  0  0  0
 32 33  1  0  0  0
 33 34  2  0  0  0
 32 35  1  0  0  0
 35 36  1  0  0  0
 36 37  1  0  0  0
 37 38  1  0  0  0
 38 39  1  0  0  0
 39 40  1  0  0  0
 38 41  1  0  0  0
 41 42  1  0  0  0
 42 43  1  0  0  0
 43 44  1  0  0  0
 44 45  1  0  0  0
  4  7  1  0  0  0
  7  8  1  0  0  0
  8  9  1  0  0  0
  9 10  1  0  0  0
 10 11  1  0  0  0
 11 12  1  0  0  0
 11 13  1  0  0  0
 13 14  1  0  0  0
 14 15  2  0  0  0
 14 16  1  0  0  0
 16 17  1  0  0  0
 17 18  1  0  0  0
 18 19  1  0  0  0
 19 20  1  0  0  0
  6  1  1  0  0  0
 34 29  1  0  0  0
 40 35  1  0  0  0
 45 41  1  0  0  0
 12  7  1  0  0  0
 20 16  1  0  0  0
 22 25  1  0  0  0
 22 26  1  0  0  0
 27 28  1  0  0  0
 13 21  1  0  0  0
M  END
> <minimizedAffinity>
-9.32228

> <CNNscore>
0.3208156228

> <CNNaffinity>
7.1128473282

> <CNN_VS>
2.2819125652

> <CNNaffinity_variance>
0.1596590430

$$$$
[H]c1nc(C(=O)N([H])[H])c(N([H])c2c([H])c([H])c(C3([H])C([H])([H])C([H])([H])N(C4([H])C([H])([H])C([H])([H])C([H])([H])C4([H])[H])C([H])([H])C3([H])[H])c([H])c2[H])nc1N1C([H])([H])C([H])([H])C([H])([H])[C@@]([H])(N([H])C(=O)N2C([H])([H])C([H])([H])C([H])([H])C2([H])[H])C1([H])[H]


 45 50  0  0  0  0  0  0  0  0999 V2000
    3.2702    2.8791   15.9008 C   0  0  0  0  0  0  0  0  0  0  0  0
    2.3772    3.1775   14.9066 N   0  0  0  0  0  0  0  0  0  0  0  0
    2.3644    4.3577   14.2986 C   0  0  0  0  0  0  0  0  0  0  0  0
    3.2571    5.3573   14.6368 C   0  0  0  0  0  0  0  0  0  0  0  0
    4.1182    5.0701   15.5952 N   0  0  0  0  0  0  0  0  0  0  0  0
    4.1623    3.8661   16.2455 C   0  0  0  0  0  0  0  0  0  0  0  0
    3.2357    6.6254   13.9813 N   0  0  0  0  0  0  0  0  0  0  0  0
    2.3507    7.6736   14.4517 C   0  0  0  0  0  0  0  0  0  0  0  0
    1.3174    7.8696   13.3384 C   0  0  0  0  0  0  0  0  0  0  0  0
    2.0256    8.2429   12.0517 C   0  0  0  0  0  0  0  0  0  0  0  0
    3.1048    7.2641   11.6945 C   0  0  0  0  0  0  0  0  0  0  0  0
    4.0368    6.9838   12.8514 C   0  0  0  0  0  0  0  0  0  0  0  0
    3.8468    7.7629   10.5557 N   0  0  0  0  0  0  0  0  0  0  0  0
    3.2889    7.6525    9.2573 C   0  0  0  0  0  0  0  0  0  0  0  0
    2.1702    7.1434    9.0321 O   0  0  0  0  0  0  0  0  0  0  0  0
    4.0415    8.1449    8.1609 N   0  0  0  0  0  0  0  0  0  0  0  0
    3.6228    8.1185    6.7512 C   0  0  0  0  0  0  0  0  0  0  0  0
    4.0901    9.4506    6.2521 C   0  0  0  0  0  0  0  0  0  0  0  0
    5.2003    9.8831    7.1737 C   0  0  0  0  0  0  0  0  0  0  0  0
    5.3500    8.7585    8.1603 C   0  0  0  0  0  0  0  0  0  0  0  0
    4.7743    8.1903   10.7317 H   0  0  0  0  0  0  0  0  0  0  0  0
    1.9216    0.8365   16.3392 N   0  0  0  0  0  0  0  0  0  0  0  0
    3.1850    1.5493   16.4750 C   0  0  0  0  0  0  0  0  0  0  0  0
    4.0438    0.9035   17.0824 O   0  0  0  0  0  0  0  0  0  0  0  0
    1.7976    0.2672   15.4817 H   0  0  0  0  0  0  0  0  0  0  0  0
    1.1817    0.8833   17.0436 H   0  0  0  0  0  0  0  0  0  0  0  0
    5.0742    3.6481   17.2894 N   0  0  0  0  0  0  0  0  0  0  0  0
    5.4029    2.6939   17.5294 H   0  0  0  0  0  0  0  0  0  0  0  0
    5.6002    4.6798   18.0822 C   0  0  0  0  0  0  0  0  0  0  0  0
    5.2212    4.7563   19.4308 C   0  0  0  0  0  0  0  0  0  0  0  0
    5.7135    5.7069   20.2900 C   0  0  0  0  0  0  0  0  0  0  0  0
    6.6237    6.6222   19.7843 C   0  0  0  0  0  0  0  0  0  0  0  0
    7.0291    6.5919   18.4713 C   0  0  0  0  0  0  0  0  0  0  0  0
    6.4961    5.5988   17.6328 C   0  0  0  0  0  0  0  0  0  0  0  0
    7.1612    7.6483   20.7079 C   0  0  0  0  0  0  0  0  0  0  0  0
    7.4518    8.8998   19.9235 C   0  0  0  0  0  0  0  0  0  0  0  0
    7.8172   10.0583   20.8517 C   0  0  0  0  0  0  0  0  0  0  0  0
    6.8475   10.2700   21.8629 N   0  0  0  0  0  0  0  0  0  0  0  0
    5.8114    9.3082   21.9401 C   0  0  0  0  0  0  0  0  0  0  0  0
    6.2394    7.8731   21.8622 C   0  0  0  0  0  0  0  0  0  0  0  0
    7.3104   10.8741   23.0435 C   0  0  0  0  0  0  0  0  0  0  0  0
    7.7882   12.2972   22.9314 C   0  0  0  0  0  0  0  0  0  0  0  0
    8.9269   12.4539   23.9476 C   0  0  0  0  0  0  0  0  0  0  0  0
    8.6898   11.2490   24.8688 C   0  0  0  0  0  0  0  0  0  0  0  0
    8.4107   10.1978   23.7777 C   0  0  0  0  0  0  0  0  0  0  0  0
 22 23  1  0  0  0
 23 24  2  0  0  0
 23  1  1  0  0  0
  1  2  2  0  0  0
  2  3  1  0  0  0
  3  4  2  0  0  0
  4  5  1  0  0  0
  5  6  2  0  0  0
  6 27  1  0  0  0
 27 29  1  0  0  0
 29 30  2  0  0  0
 30 31  1  0  0  0
 31 32  2  0  0  0
 32 33  1  0  0  0
 33 34  2  0  0  0
 32 35  1  0  0  0
 35 36  1  0  0  0
 36 37  1  0  0  0
 37 38  1  0  0  0
 38 39  1  0  0  0
 39 40  1  0  0  0
 38 41  1  0  0  0
 41 42  1  0  0  0
 42 43  1  0  0  0
 43 44  1  0  0  0
 44 45  1  0  0  0
  4  7  1  0  0  0
  7  8  1  0  0  0
  8  9  1  0  0  0
  9 10  1  0  0  0
 10 11  1  0  0  0
 11 12  1  0  0  0
 11 13  1  0  0  0
 13 14  1  0  0  0
 14 15  2  0  0  0
 14 16  1  0  0  0
 16 17  1  0  0  0
 17 18  1  0  0  0
 18 19  1  0  0  0
 19 20  1  0  0  0
  6  1  1  0  0  0
 34 29  1  0  0  0
 40 35  1  0  0  0
 45 41  1  0  0  0
 12  7  1  0  0  0
 20 16  1  0  0  0
 22 25  1  0  0  0
 22 26  1  0  0  0
 27 28  1  0  0  0
 13 21  1  0  0  0
M  END
> <minimizedAffinity>
-8.53349

> <CNNscore>
0.2405286878

> <CNNaffinity>
6.3628349304

> <CNN_VS>
1.5304443836

> <CNNaffinity_variance>
0.0967855826

$$$$
[H]c1nc(C(=O)N([H])[H])c(N([H])c2c([H])c([H])c(C3([H])C([H])([H])C([H])([H])N(C4([H])C([H])([H])C([H])([H])C([H])([H])C4([H])[H])C([H])([H])C3([H])[H])c([H])c2[H])nc1N1C([H])([H])C([H])([H])C([H])([H])[C@@]([H])(N([H])C(=O)N2C([H])([H])C([H])([H])C([H])([H])C2([H])[H])C1([H])[H]


 45 50  0  0  0  0  0  0  0  0999 V2000
    3.4484    3.2340   17.4772 C   0  0  0  0  0  0  0  0  0  0  0  0
    4.2048    3.2898   18.6171 N   0  0  0  0  0  0  0  0  0  0  0  0
    4.4281    4.4284   19.2626 C   0  0  0  0  0  0  0  0  0  0  0  0
    3.9061    5.6285   18.8177 C   0  0  0  0  0  0  0  0  0  0  0  0
    3.1767    5.5751   17.7188 N   0  0  0  0  0  0  0  0  0  0  0  0
    2.9246    4.4217   17.0256 C   0  0  0  0  0  0  0  0  0  0  0  0
    4.1527    6.8498   19.5147 N   0  0  0  0  0  0  0  0  0  0  0  0
    3.8486    8.1210   18.8865 C   0  0  0  0  0  0  0  0  0  0  0  0
    5.2021    8.7993   18.6545 C   0  0  0  0  0  0  0  0  0  0  0  0
    5.9184    8.9641   19.9798 C   0  0  0  0  0  0  0  0  0  0  0  0
    6.0236    7.6703   20.7316 C   0  0  0  0  0  0  0  0  0  0  0  0
    4.6975    6.9515   20.8336 C   0  0  0  0  0  0  0  0  0  0  0  0
    6.5646    7.9246   22.0503 N   0  0  0  0  0  0  0  0  0  0  0  0
    7.7530    7.2664   22.4553 C   0  0  0  0  0  0  0  0  0  0  0  0
    8.3767    6.4661   21.7261 O   0  0  0  0  0  0  0  0  0  0  0  0
    8.2558    7.5312   23.7545 N   0  0  0  0  0  0  0  0  0  0  0  0
    9.4710    6.9457   24.3407 C   0  0  0  0  0  0  0  0  0  0  0  0
   10.0695    8.1092   25.0686 C   0  0  0  0  0  0  0  0  0  0  0  0
    8.9389    9.0667   25.3403 C   0  0  0  0  0  0  0  0  0  0  0  0
    7.7157    8.3971   24.7780 C   0  0  0  0  0  0  0  0  0  0  0  0
    6.0569    8.5894   22.6620 H   0  0  0  0  0  0  0  0  0  0  0  0
    3.7376    0.7691   17.6304 N   0  0  0  0  0  0  0  0  0  0  0  0
    3.2724    1.9253   16.8759 C   0  0  0  0  0  0  0  0  0  0  0  0
    2.7736    1.6259   15.7873 O   0  0  0  0  0  0  0  0  0  0  0  0
    3.0643    0.3442   18.2943 H   0  0  0  0  0  0  0  0  0  0  0  0
    4.6781    0.3816   17.5246 H   0  0  0  0  0  0  0  0  0  0  0  0
    2.1801    4.4480   15.8365 N   0  0  0  0  0  0  0  0  0  0  0  0
    1.2315    4.0317   15.7836 H   0  0  0  0  0  0  0  0  0  0  0  0
    2.6500    5.0215   14.6448 C   0  0  0  0  0  0  0  0  0  0  0  0
    2.1668    6.2827   14.2651 C   0  0  0  0  0  0  0  0  0  0  0  0
    2.5972    6.9365   13.1376 C   0  0  0  0  0  0  0  0  0  0  0  0
    3.5510    6.3070   12.3529 C   0  0  0  0  0  0  0  0  0  0  0  0
    4.0580    5.0718   12.6792 C   0  0  0  0  0  0  0  0  0  0  0  0
    3.5851    4.4445   13.8438 C   0  0  0  0  0  0  0  0  0  0  0  0
    4.0220    7.0096   11.1366 C   0  0  0  0  0  0  0  0  0  0  0  0
    4.4932    5.9855   10.1390 C   0  0  0  0  0  0  0  0  0  0  0  0
    4.8017    6.6338    8.7892 C   0  0  0  0  0  0  0  0  0  0  0  0
    3.7195    7.4053    8.2980 N   0  0  0  0  0  0  0  0  0  0  0  0
    2.6245    7.5706    9.1801 C   0  0  0  0  0  0  0  0  0  0  0  0
    2.9687    7.9216   10.5968 C   0  0  0  0  0  0  0  0  0  0  0  0
    4.0556    8.4494    7.4205 C   0  0  0  0  0  0  0  0  0  0  0  0
    4.2780    8.0754    5.9795 C   0  0  0  0  0  0  0  0  0  0  0  0
    5.3598    9.0240    5.4469 C   0  0  0  0  0  0  0  0  0  0  0  0
    5.3268   10.1502    6.4895 C   0  0  0  0  0  0  0  0  0  0  0  0
    5.2488    9.2703    7.7518 C   0  0  0  0  0  0  0  0  0  0  0  0
 22 23  1  0  0  0
 23 24  2  0  0  0
 23  1  1  0  0  0
  1  2  2  0  0  0
  2  3  1  0  0  0
  3  4  2  0  0  0
  4  5  1  0  0  0
  5  6  2  0  0  0
  6 27  1  0  0  0
 27 29  1  0  0  0
 29 30  2  0  0  0
 30 31  1  0  0  0
 31 32  2  0  0  0
 32 33  1  0  0  0
 33 34  2  0  0  0
 32 35  1  0  0  0
 35 36  1  0  0  0
 36 37  1  0  0  0
 37 38  1  0  0  0
 38 39  1  0  0  0
 39 40  1  0  0  0
 38 41  1  0  0  0
 41 42  1  0  0  0
 42 43  1  0  0  0
 43 44  1  0  0  0
 44 45  1  0  0  0
  4  7  1  0  0  0
  7  8  1  0  0  0
  8  9  1  0  0  0
  9 10  1  0  0  0
 10 11  1  0  0  0
 11 12  1  0  0  0
 11 13  1  0  0  0
 13 14  1  0  0  0
 14 15  2  0  0  0
 14 16  1  0  0  0
 16 17  1  0  0  0
 17 18  1  0  0  0
 18 19  1  0  0  0
 19 20  1  0  0  0
  6  1  1  0  0  0
 34 29  1  0  0  0
 40 35  1  0  0  0
 45 41  1  0  0  0
 12  7  1  0  0  0
 20 16  1  0  0  0
 22 25  1  0  0  0
 22 26  1  0  0  0
 27 28  1  0  0  0
 13 21  1  0  0  0
M  END
> <minimizedAffinity>
-8.27968

> <CNNscore>
0.2173328698

> <CNNaffinity>
6.1925292015

> <CNN_VS>
1.3458400965

> <CNNaffinity_variance>
0.3490711749

$$$$
[H]c1nc(C(=O)N([H])[H])c(N([H])c2c([H])c([H])c(C3([H])C([H])([H])C([H])([H])N(C4([H])C([H])([H])C([H])([H])C([H])([H])C4([H])[H])C([H])([H])C3([H])[H])c([H])c2[H])nc1N1C([H])([H])C([H])([H])C([H])([H])[C@@]([H])(N([H])C(=O)N2C([H])([H])C([H])([H])C([H])([H])C2([H])[H])C1([H])[H]


 45 50  0  0  0  0  0  0  0  0999 V2000
    4.3039    1.8737   19.5891 C   0  0  0  0  0  0  0  0  0  0  0  0
    4.3563    1.2614   18.3656 N   0  0  0  0  0  0  0  0  0  0  0  0
    4.2607    1.9421   17.2297 C   0  0  0  0  0  0  0  0  0  0  0  0
    4.1022    3.3151   17.2183 C   0  0  0  0  0  0  0  0  0  0  0  0
    4.0517    3.9058   18.3976 N   0  0  0  0  0  0  0  0  0  0  0  0
    4.1461    3.2389   19.5896 C   0  0  0  0  0  0  0  0  0  0  0  0
    3.9967    4.0406   15.9932 N   0  0  0  0  0  0  0  0  0  0  0  0
    3.9734    5.4906   16.0051 C   0  0  0  0  0  0  0  0  0  0  0  0
    2.5673    5.8831   15.5420 C   0  0  0  0  0  0  0  0  0  0  0  0
    2.3116    5.3105   14.1623 C   0  0  0  0  0  0  0  0  0  0  0  0
    2.5644    3.8330   14.1065 C   0  0  0  0  0  0  0  0  0  0  0  0
    3.9057    3.4535   14.6918 C   0  0  0  0  0  0  0  0  0  0  0  0
    2.4642    3.3809   12.7346 N   0  0  0  0  0  0  0  0  0  0  0  0
    1.6225    2.2840   12.4217 C   0  0  0  0  0  0  0  0  0  0  0  0
    0.9449    1.6735   13.2757 O   0  0  0  0  0  0  0  0  0  0  0  0
    1.5491    1.8604   11.0703 N   0  0  0  0  0  0  0  0  0  0  0  0
    0.7307    0.7490   10.5622 C   0  0  0  0  0  0  0  0  0  0  0  0
    0.2133    1.2963    9.2682 C   0  0  0  0  0  0  0  0  0  0  0  0
    1.1761    2.3763    8.8492 C   0  0  0  0  0  0  0  0  0  0  0  0
    2.2371    2.3892    9.9144 C   0  0  0  0  0  0  0  0  0  0  0  0
    3.0195    3.8825   12.0178 H   0  0  0  0  0  0  0  0  0  0  0  0
    5.7495    0.4662   21.0425 N   0  0  0  0  0  0  0  0  0  0  0  0
    4.4318    1.0160   20.7525 C   0  0  0  0  0  0  0  0  0  0  0  0
    3.5703    0.6657   21.5640 O   0  0  0  0  0  0  0  0  0  0  0  0
    6.3749    1.0427   21.6353 H   0  0  0  0  0  0  0  0  0  0  0  0
    6.0605   -0.4412   20.6878 H   0  0  0  0  0  0  0  0  0  0  0  0
    4.0349    3.9275   20.8071 N   0  0  0  0  0  0  0  0  0  0  0  0
    3.2452    3.7528   21.4566 H   0  0  0  0  0  0  0  0  0  0  0  0
    4.9593    4.8933   21.2343 C   0  0  0  0  0  0  0  0  0  0  0  0
    4.5689    6.2407   21.2537 C   0  0  0  0  0  0  0  0  0  0  0  0
    5.3920    7.2483   21.6913 C   0  0  0  0  0  0  0  0  0  0  0  0
    6.6602    6.8992   22.1292 C   0  0  0  0  0  0  0  0  0  0  0  0
    7.0928    5.5946   22.1316 C   0  0  0  0  0  0  0  0  0  0  0  0
    6.2122    4.6003   21.6742 C   0  0  0  0  0  0  0  0  0  0  0  0
    7.5516    7.9821   22.6062 C   0  0  0  0  0  0  0  0  0  0  0  0
    8.4754    8.3765   21.4849 C   0  0  0  0  0  0  0  0  0  0  0  0
    9.2809    9.6238   21.8489 C   0  0  0  0  0  0  0  0  0  0  0  0
    8.4578   10.6973   22.2707 N   0  0  0  0  0  0  0  0  0  0  0  0
    7.0827   10.3997   22.4291 C   0  0  0  0  0  0  0  0  0  0  0  0
    6.7650    9.1272   23.1563 C   0  0  0  0  0  0  0  0  0  0  0  0
    9.0587   11.6346   23.1271 C   0  0  0  0  0  0  0  0  0  0  0  0
   10.4174   12.1428   22.7252 C   0  0  0  0  0  0  0  0  0  0  0  0
   11.1857   12.4038   24.0274 C   0  0  0  0  0  0  0  0  0  0  0  0
   10.0463   12.4625   25.0544 C   0  0  0  0  0  0  0  0  0  0  0  0
    9.2418   11.2492   24.5502 C   0  0  0  0  0  0  0  0  0  0  0  0
 22 23  1  0  0  0
 23 24  2  0  0  0
 23  1  1  0  0  0
  1  2  2  0  0  0
  2  3  1  0  0  0
  3  4  2  0  0  0
  4  5  1  0  0  0
  5  6  2  0  0  0
  6 27  1  0  0  0
 27 29  1  0  0  0
 29 30  2  0  0  0
 30 31  1  0  0  0
 31 32  2  0  0  0
 32 33  1  0  0  0
 33 34  2  0  0  0
 32 35  1  0  0  0
 35 36  1  0  0  0
 36 37  1  0  0  0
 37 38  1  0  0  0
 38 39  1  0  0  0
 39 40  1  0  0  0
 38 41  1  0  0  0
 41 42  1  0  0  0
 42 43  1  0  0  0
 43 44  1  0  0  0
 44 45  1  0  0  0
  4  7  1  0  0  0
  7  8  1  0  0  0
  8  9  1  0  0  0
  9 10  1  0  0  0
 10 11  1  0  0  0
 11 12  1  0  0  0
 11 13  1  0  0  0
 13 14  1  0  0  0
 14 15  2  0  0  0
 14 16  1  0  0  0
 16 17  1  0  0  0
 17 18  1  0  0  0
 18 19  1  0  0  0
 19 20  1  0  0  0
  6  1  1  0  0  0
 34 29  1  0  0  0
 40 35  1  0  0  0
 45 41  1  0  0  0
 12  7  1  0  0  0
 20 16  1  0  0  0
 22 25  1  0  0  0
 22 26  1  0  0  0
 27 28  1  0  0  0
 13 21  1  0  0  0
M  END
> <minimizedAffinity>
-8.13225

> <CNNscore>
0.1748102903

> <CNNaffinity>
6.7170286179

> <CNN_VS>
1.1742057800

> <CNNaffinity_variance>
0.3074301779

$$$$
[H]c1nc(C(=O)N([H])[H])c(N([H])c2c([H])c([H])c(C3([H])C([H])([H])C([H])([H])N(C4([H])C([H])([H])C([H])([H])C([H])([H])C4([H])[H])C([H])([H])C3([H])[H])c([H])c2[H])nc1N1C([H])([H])C([H])([H])C([H])([H])[C@@]([H])(N([H])C(=O)N2C([H])([H])C([H])([H])C([H])([H])C2([H])[H])C1([H])[H]


 45 50  0  0  0  0  0  0  0  0999 V2000
    3.9521    4.4395   16.6153 C   0  0  0  0  0  0  0  0  0  0  0  0
    3.9772    4.2605   17.9725 N   0  0  0  0  0  0  0  0  0  0  0  0
    4.0304    5.2816   18.8195 C   0  0  0  0  0  0  0  0  0  0  0  0
    4.0634    6.5904   18.3762 C   0  0  0  0  0  0  0  0  0  0  0  0
    4.0392    6.7634   17.0678 N   0  0  0  0  0  0  0  0  0  0  0  0
    3.9849    5.7370   16.1634 C   0  0  0  0  0  0  0  0  0  0  0  0
    4.1239    7.6837   19.2923 N   0  0  0  0  0  0  0  0  0  0  0  0
    3.6371    8.9918   18.8984 C   0  0  0  0  0  0  0  0  0  0  0  0
    4.8760    9.8901   18.8366 C   0  0  0  0  0  0  0  0  0  0  0  0
    5.5552    9.9080   20.1913 C   0  0  0  0  0  0  0  0  0  0  0  0
    5.8482    8.5263   20.6964 C   0  0  0  0  0  0  0  0  0  0  0  0
    4.6428    7.6166   20.6239 C   0  0  0  0  0  0  0  0  0  0  0  0
    6.3408    8.6070   22.0555 N   0  0  0  0  0  0  0  0  0  0  0  0
    7.4745    7.8441   22.4327 C   0  0  0  0  0  0  0  0  0  0  0  0
    8.0893    7.0935   21.6454 O   0  0  0  0  0  0  0  0  0  0  0  0
    7.9304    7.9395   23.7721 N   0  0  0  0  0  0  0  0  0  0  0  0
    9.0864    7.2279   24.3383 C   0  0  0  0  0  0  0  0  0  0  0  0
    9.7095    8.2715   25.2127 C   0  0  0  0  0  0  0  0  0  0  0  0
    8.6177    9.2554   25.5427 C   0  0  0  0  0  0  0  0  0  0  0  0
    7.3890    8.7190   24.8622 C   0  0  0  0  0  0  0  0  0  0  0  0
    5.8402    9.2293   22.7157 H   0  0  0  0  0  0  0  0  0  0  0  0
    3.6320    1.9772   16.4831 N   0  0  0  0  0  0  0  0  0  0  0  0
    3.8824    3.2403   15.8015 C   0  0  0  0  0  0  0  0  0  0  0  0
    4.0064    3.1163   14.5797 O   0  0  0  0  0  0  0  0  0  0  0  0
    2.6397    1.7112   16.6218 H   0  0  0  0  0  0  0  0  0  0  0  0
    4.3843    1.3697   16.8158 H   0  0  0  0  0  0  0  0  0  0  0  0
    4.0115    5.9945   14.7843 N   0  0  0  0  0  0  0  0  0  0  0  0
    4.9059    6.1345   14.2778 H   0  0  0  0  0  0  0  0  0  0  0  0
    2.8550    6.0884   13.9948 C   0  0  0  0  0  0  0  0  0  0  0  0
    1.6027    6.0851   14.6272 C   0  0  0  0  0  0  0  0  0  0  0  0
    0.4210    6.2108   13.9400 C   0  0  0  0  0  0  0  0  0  0  0  0
    0.4889    6.3459   12.5620 C   0  0  0  0  0  0  0  0  0  0  0  0
    1.6894    6.3558   11.8927 C   0  0  0  0  0  0  0  0  0  0  0  0
    2.8704    6.2243   12.6418 C   0  0  0  0  0  0  0  0  0  0  0  0
   -0.7831    6.4856   11.8155 C   0  0  0  0  0  0  0  0  0  0  0  0
   -0.5513    6.0775   10.3852 C   0  0  0  0  0  0  0  0  0  0  0  0
   -1.8688    6.0064    9.6130 C   0  0  0  0  0  0  0  0  0  0  0  0
   -2.8313    5.1896   10.2564 N   0  0  0  0  0  0  0  0  0  0  0  0
   -2.4811    4.7141   11.5432 C   0  0  0  0  0  0  0  0  0  0  0  0
   -1.8852    5.7244   12.4775 C   0  0  0  0  0  0  0  0  0  0  0  0
   -4.1758    5.4865    9.9785 C   0  0  0  0  0  0  0  0  0  0  0  0
   -4.4388    6.3929    8.8059 C   0  0  0  0  0  0  0  0  0  0  0  0
   -5.6862    7.2122    9.1619 C   0  0  0  0  0  0  0  0  0  0  0  0
   -6.2914    6.3787   10.3001 C   0  0  0  0  0  0  0  0  0  0  0  0
   -4.9878    6.0875   11.0679 C   0  0  0  0  0  0  0  0  0  0  0  0
 22 23  1  0  0  0
 23 24  2  0  0  0
 23  1  1  0  0  0
  1  2  2  0  0  0
  2  3  1  0  0  0
  3  4  2  0  0  0
  4  5  1  0  0  0
  5  6  2  0  0  0
  6 27  1  0  0  0
 27 29  1  0  0  0
 29 30  2  0  0  0
 30 31  1  0  0  0
 31 32  2  0  0  0
 32 33  1  0  0  0
 33 34  2  0  0  0
 32 35  1  0  0  0
 35 36  1  0  0  0
 36 37  1  0  0  0
 37 38  1  0  0  0
 38 39  1  0  0  0
 39 40  1  0  0  0
 38 41  1  0  0  0
 41 42  1  0  0  0
 42 43  1  0  0  0
 43 44  1  0  0  0
 44 45  1  0  0  0
  4  7  1  0  0  0
  7  8  1  0  0  0
  8  9  1  0  0  0
  9 10  1  0  0  0
 10 11  1  0  0  0
 11 12  1  0  0  0
 11 13  1  0  0  0
 13 14  1  0  0  0
 14 15  2  0  0  0
 14 16  1  0  0  0
 16 17  1  0  0  0
 17 18  1  0  0  0
 18 19  1  0  0  0
 19 20  1  0  0  0
  6  1  1  0  0  0
 34 29  1  0  0  0
 40 35  1  0  0  0
 45 41  1  0  0  0
 12  7  1  0  0  0
 20 16  1  0  0  0
 22 25  1  0  0  0
 22 26  1  0  0  0
 27 28  1  0  0  0
 13 21  1  0  0  0
M  END
> <minimizedAffinity>
-8.92945

> <CNNscore>
0.1243506670

> <CNNaffinity>
6.1512002945

> <CNN_VS>
0.7649058700

> <CNNaffinity_variance>
0.2294695675

$$$$
[H]c1nc(C(=O)N([H])[H])c(N([H])c2c([H])c([H])c(C3([H])C([H])([H])C([H])([H])N(C4([H])C([H])([H])C([H])([H])C([H])([H])C4([H])[H])C([H])([H])C3([H])[H])c([H])c2[H])nc1N1C([H])([H])C([H])([H])C([H])([H])[C@@]([H])(N([H])C(=O)N2C([H])([H])C([H])([H])C([H])([H])C2([H])[H])C1([H])[H]


 45 50  0  0  0  0  0  0  0  0999 V2000
    3.3280    3.0125   16.2852 C   0  0  0  0  0  0  0  0  0  0  0  0
    3.5020    2.5542   15.0067 N   0  0  0  0  0  0  0  0  0  0  0  0
    3.0327    3.2085   13.9511 C   0  0  0  0  0  0  0  0  0  0  0  0
    2.3384    4.3963   14.0839 C   0  0  0  0  0  0  0  0  0  0  0  0
    2.1705    4.8385   15.3163 N   0  0  0  0  0  0  0  0  0  0  0  0
    2.6385    4.1927   16.4290 C   0  0  0  0  0  0  0  0  0  0  0  0
    1.8336    5.0932   12.9447 N   0  0  0  0  0  0  0  0  0  0  0  0
    2.5236    6.2663   12.4439 C   0  0  0  0  0  0  0  0  0  0  0  0
    1.5775    7.4422   12.7042 C   0  0  0  0  0  0  0  0  0  0  0  0
    0.2605    7.1976   11.9954 C   0  0  0  0  0  0  0  0  0  0  0  0
   -0.3347    5.8670   12.3495 C   0  0  0  0  0  0  0  0  0  0  0  0
    0.6580    4.7349   12.2124 C   0  0  0  0  0  0  0  0  0  0  0  0
   -1.4963    5.6252   11.5197 N   0  0  0  0  0  0  0  0  0  0  0  0
   -2.7784    6.0106   11.9857 C   0  0  0  0  0  0  0  0  0  0  0  0
   -2.9699    6.5613   13.0908 O   0  0  0  0  0  0  0  0  0  0  0  0
   -3.8979    5.7559   11.1533 N   0  0  0  0  0  0  0  0  0  0  0  0
   -5.2956    6.0881   11.4687 C   0  0  0  0  0  0  0  0  0  0  0  0
   -5.8155    6.5741   10.1514 C   0  0  0  0  0  0  0  0  0  0  0  0
   -4.9272    5.9698    9.0957 C   0  0  0  0  0  0  0  0  0  0  0  0
   -3.9378    5.1276    9.8523 C   0  0  0  0  0  0  0  0  0  0  0  0
   -1.3483    5.1721   10.5996 H   0  0  0  0  0  0  0  0  0  0  0  0
    3.4466    0.8289   17.4687 N   0  0  0  0  0  0  0  0  0  0  0  0
    3.9000    2.2083   17.3488 C   0  0  0  0  0  0  0  0  0  0  0  0
    4.7396    2.5189   18.1985 O   0  0  0  0  0  0  0  0  0  0  0  0
    3.9607    0.1195   16.9145 H   0  0  0  0  0  0  0  0  0  0  0  0
    2.6619    0.5545   18.0643 H   0  0  0  0  0  0  0  0  0  0  0  0
    2.3799    4.6971   17.7126 N   0  0  0  0  0  0  0  0  0  0  0  0
    1.5248    4.4305   18.2358 H   0  0  0  0  0  0  0  0  0  0  0  0
    3.2349    5.5897   18.3773 C   0  0  0  0  0  0  0  0  0  0  0  0
    3.4888    5.3923   19.7430 C   0  0  0  0  0  0  0  0  0  0  0  0
    4.3399    6.1911   20.4653 C   0  0  0  0  0  0  0  0  0  0  0  0
    4.9664    7.2327   19.7985 C   0  0  0  0  0  0  0  0  0  0  0  0
    4.7535    7.4701   18.4616 C   0  0  0  0  0  0  0  0  0  0  0  0
    3.8734    6.6236   17.7671 C   0  0  0  0  0  0  0  0  0  0  0  0
    5.8890    8.0959   20.5722 C   0  0  0  0  0  0  0  0  0  0  0  0
    5.0916    8.8622   21.5934 C   0  0  0  0  0  0  0  0  0  0  0  0
    6.0097    9.6167   22.5551 C   0  0  0  0  0  0  0  0  0  0  0  0
    6.9802    8.7743   23.1519 N   0  0  0  0  0  0  0  0  0  0  0  0
    7.0380    7.4482   22.6593 C   0  0  0  0  0  0  0  0  0  0  0  0
    7.0039    7.2990   21.1676 C   0  0  0  0  0  0  0  0  0  0  0  0
    8.1651    9.4009   23.5722 C   0  0  0  0  0  0  0  0  0  0  0  0
    8.1748   10.9061   23.5576 C   0  0  0  0  0  0  0  0  0  0  0  0
    9.6102   11.3275   23.2169 C   0  0  0  0  0  0  0  0  0  0  0  0
   10.3924   10.0424   23.5222 C   0  0  0  0  0  0  0  0  0  0  0  0
    9.4222    9.0411   22.8668 C   0  0  0  0  0  0  0  0  0  0  0  0
 22 23  1  0  0  0
 23 24  2  0  0  0
 23  1  1  0  0  0
  1  2  2  0  0  0
  2  3  1  0  0  0
  3  4  2  0  0  0
  4  5  1  0  0  0
  5  6  2  0  0  0
  6 27  1  0  0  0
 27 29  1  0  0  0
 29 30  2  0  0  0
 30 31  1  0  0  0
 31 32  2  0  0  0
 32 33  1  0  0  0
 33 34  2  0  0  0
 32 35  1  0  0  0
 35 36  1  0  0  0
 36 37  1  0  0  0
 37 38  1  0  0  0
 38 39  1  0  0  0
 39 40  1  0  0  0
 38 41  1  0  0  0
 41 42  1  0  0  0
 42 43  1  0  0  0
 43 44  1  0  0  0
 44 45  1  0  0  0
  4  7  1  0  0  0
  7  8  1  0  0  0
  8  9  1  0  0  0
  9 10  1  0  0  0
 10 11  1  0  0  0
 11 12  1  0  0  0
 11 13  1  0  0  0
 13 14  1  0  0  0
 14 15  2  0  0  0
 14 16  1  0  0  0
 16 17  1  0  0  0
 17 18  1  0  0  0
 18 19  1  0  0  0
 19 20  1  0  0  0
  6  1  1  0  0  0
 34 29  1  0  0  0
 40 35  1  0  0  0
 45 41  1  0  0  0
 12  7  1  0  0  0
 20 16  1  0  0  0
 22 25  1  0  0  0
 22 26  1  0  0  0
 27 28  1  0  0  0
 13 21  1  0  0  0
M  END
> <minimizedAffinity>
-9.22573

> <CNNscore>
0.1161854342

> <CNNaffinity>
6.1893172264

> <CNN_VS>
0.7191085219

> <CNNaffinity_variance>
0.1505188644

$$$$
[H]O[C@]1([H])C([H])([H])C([H])([H])[C@]2([H])[C@]1(C([H])([H])[H])C([H])([H])C([H])([H])[C@]1([H])[C@]3(C([H])([H])[H])C(=C([H])C(=O)C([H])([H])C3([H])[H])C([H])([H])C([H])([H])[C@@]21[H]


 22 25  0  0  0  0  0  0  0  0999 V2000
    6.8509    5.5664   21.7701 C   0  0  0  0  0  0  0  0  0  0  0  0
    5.4852    6.0750   21.3872 C   0  0  0  0  0  0  0  0  0  0  0  0
    4.3893    5.4520   22.1895 C   0  0  0  0  0  0  0  0  0  0  0  0
    4.3805    3.9706   21.9228 C   0  0  0  0  0  0  0  0  0  0  0  0
    4.3400    3.6055   20.4805 C   0  0  0  0  0  0  0  0  0  0  0  0
    5.3522    4.3565   19.6376 C   0  0  0  0  0  0  0  0  0  0  0  0
    5.0822    4.0548   18.1795 C   0  0  0  0  0  0  0  0  0  0  0  0
    5.0565    2.5890   17.8892 C   0  0  0  0  0  0  0  0  0  0  0  0
    4.3077    1.7972   18.8855 C   0  0  0  0  0  0  0  0  0  0  0  0
    3.5274    0.8154   18.4545 C   0  0  0  0  0  0  0  0  0  0  0  0
    2.7611   -0.0054   19.3760 C   0  0  0  0  0  0  0  0  0  0  0  0
    1.8130   -0.7025   18.9492 O   0  0  0  0  0  0  0  0  0  0  0  0
    3.1605    0.0318   20.8179 C   0  0  0  0  0  0  0  0  0  0  0  0
    3.3728    1.4832   21.1709 C   0  0  0  0  0  0  0  0  0  0  0  0
    4.4493    2.1223   20.3374 C   0  0  0  0  0  0  0  0  0  0  0  0
    5.8002    1.6043   20.7709 C   0  0  0  0  0  0  0  0  0  0  0  0
    5.1529    5.7841   19.9359 C   0  0  0  0  0  0  0  0  0  0  0  0
    5.9550    6.7732   19.2041 C   0  0  0  0  0  0  0  0  0  0  0  0
    5.5736    8.0428   19.9695 C   0  0  0  0  0  0  0  0  0  0  0  0
    5.4961    7.5718   21.4041 C   0  0  0  0  0  0  0  0  0  0  0  0
    4.4006    8.1098   22.0741 O   0  0  0  0  0  0  0  0  0  0  0  0
    4.6803    8.4901   22.9344 H   0  0  0  0  0  0  0  0  0  0  0  0
  2  1  1  0  0  0
  2  3  1  0  0  0
  3  4  1  0  0  0
  4  5  1  0  0  0
  5  6  1  0  0  0
  6  7  1  0  0  0
  7  8  1  0  0  0
  8  9  1  0  0  0
  9 10  2  0  0  0
 10 11  1  0  0  0
 11 12  2  0  0  0
 11 13  1  0  0  0
 13 14  1  0  0  0
 14 15  1  0  0  0
 15 16  1  0  0  0
  6 17  1  0  0  0
 17 18  1  0  0  0
 18 19  1  0  0  0
 19 20  1  0  0  0
 20 21  1  0  0  0
 17  2  1  0  0  0
 20  2  1  0  0  0
 15  5  1  0  0  0
 15  9  1  0  0  0
 21 22  1  0  0  0
M  END
> <minimizedAffinity>
-9.89221

> <CNNscore>
0.5830963254

> <CNNaffinity>
5.9733605385

> <CNN_VS>
3.4830446243

> <CNNaffinity_variance>
0.2191819400

$$$$
[H]O[C@]1([H])C([H])([H])C([H])([H])[C@]2([H])[C@]1(C([H])([H])[H])C([H])([H])C([H])([H])[C@]1([H])[C@]3(C([H])([H])[H])C(=C([H])C(=O)C([H])([H])C3([H])[H])C([H])([H])C([H])([H])[C@@]21[H]


 22 25  0  0  0  0  0  0  0  0999 V2000
    5.0242    5.7466   17.2409 C   0  0  0  0  0  0  0  0  0  0  0  0
    3.6709    5.0945   17.3578 C   0  0  0  0  0  0  0  0  0  0  0  0
    2.8803    5.6051   18.5184 C   0  0  0  0  0  0  0  0  0  0  0  0
    3.6209    5.2763   19.7869 C   0  0  0  0  0  0  0  0  0  0  0  0
    4.0099    3.8457   19.9187 C   0  0  0  0  0  0  0  0  0  0  0  0
    4.6747    3.2827   18.6777 C   0  0  0  0  0  0  0  0  0  0  0  0
    4.8384    1.7888   18.8555 C   0  0  0  0  0  0  0  0  0  0  0  0
    5.5611    1.4339   20.1146 C   0  0  0  0  0  0  0  0  0  0  0  0
    5.1163    2.2028   21.2941 C   0  0  0  0  0  0  0  0  0  0  0  0
    4.9828    1.5658   22.4495 C   0  0  0  0  0  0  0  0  0  0  0  0
    4.5497    2.2566   23.6516 C   0  0  0  0  0  0  0  0  0  0  0  0
    4.1357    1.5994   24.6333 O   0  0  0  0  0  0  0  0  0  0  0  0
    4.6258    3.7513   23.6453 C   0  0  0  0  0  0  0  0  0  0  0  0
    4.0601    4.2079   22.3234 C   0  0  0  0  0  0  0  0  0  0  0  0
    4.8318    3.6633   21.1530 C   0  0  0  0  0  0  0  0  0  0  0  0
    6.1680    4.3610   21.0583 C   0  0  0  0  0  0  0  0  0  0  0  0
    3.7745    3.5939   17.5555 C   0  0  0  0  0  0  0  0  0  0  0  0
    4.1258    3.1034   16.2164 C   0  0  0  0  0  0  0  0  0  0  0  0
    3.0619    3.8222   15.3829 C   0  0  0  0  0  0  0  0  0  0  0  0
    2.9683    5.1811   16.0389 C   0  0  0  0  0  0  0  0  0  0  0  0
    1.6511    5.6157   16.1591 O   0  0  0  0  0  0  0  0  0  0  0  0
    1.5626    6.5330   15.8216 H   0  0  0  0  0  0  0  0  0  0  0  0
  2  1  1  0  0  0
  2  3  1  0  0  0
  3  4  1  0  0  0
  4  5  1  0  0  0
  5  6  1  0  0  0
  6  7  1  0  0  0
  7  8  1  0  0  0
  8  9  1  0  0  0
  9 10  2  0  0  0
 10 11  1  0  0  0
 11 12  2  0  0  0
 11 13  1  0  0  0
 13 14  1  0  0  0
 14 15  1  0  0  0
 15 16  1  0  0  0
  6 17  1  0  0  0
 17 18  1  0  0  0
 18 19  1  0  0  0
 19 20  1  0  0  0
 20 21  1  0  0  0
 17  2  1  0  0  0
 20  2  1  0  0  0
 15  5  1  0  0  0
 15  9  1  0  0  0
 21 22  1  0  0  0
M  END
> <minimizedAffinity>
-8.25357

> <CNNscore>
0.5462129116

> <CNNaffinity>
6.0192904472

> <CNN_VS>
3.2878141403

> <CNNaffinity_variance>
0.1789978743

$$$$
[H]O[C@]1([H])C([H])([H])C([H])([H])[C@]2([H])[C@]1(C([H])([H])[H])C([H])([H])C([H])([H])[C@]1([H])[C@]3(C([H])([H])[H])C(=C([H])C(=O)C([H])([H])C3([H])[H])C([H])([H])C([H])([H])[C@@]21[H]


 22 25  0  0  0  0  0  0  0  0999 V2000
    6.2465    2.0382   21.6215 C   0  0  0  0  0  0  0  0  0  0  0  0
    4.9962    2.8711   21.7374 C   0  0  0  0  0  0  0  0  0  0  0  0
    3.7490    2.0760   21.5250 C   0  0  0  0  0  0  0  0  0  0  0  0
    3.7629    1.5240   20.1247 C   0  0  0  0  0  0  0  0  0  0  0  0
    4.0047    2.5410   19.0652 C   0  0  0  0  0  0  0  0  0  0  0  0
    5.1807    3.4521   19.3582 C   0  0  0  0  0  0  0  0  0  0  0  0
    5.2023    4.5570   18.3244 C   0  0  0  0  0  0  0  0  0  0  0  0
    5.2047    4.0361   16.9236 C   0  0  0  0  0  0  0  0  0  0  0  0
    4.2551    2.9281   16.6983 C   0  0  0  0  0  0  0  0  0  0  0  0
    3.5567    2.9145   15.5710 C   0  0  0  0  0  0  0  0  0  0  0  0
    2.6043    1.8568   15.2808 C   0  0  0  0  0  0  0  0  0  0  0  0
    1.7467    2.0193   14.3835 O   0  0  0  0  0  0  0  0  0  0  0  0
    2.7073    0.6034   16.0922 C   0  0  0  0  0  0  0  0  0  0  0  0
    2.8747    1.0308   17.5293 C   0  0  0  0  0  0  0  0  0  0  0  0
    4.1095    1.8638   17.7375 C   0  0  0  0  0  0  0  0  0  0  0  0
    5.3351    0.9867   17.6385 C   0  0  0  0  0  0  0  0  0  0  0  0
    4.9555    3.9873   20.7107 C   0  0  0  0  0  0  0  0  0  0  0  0
    5.9085    4.9687   21.2455 C   0  0  0  0  0  0  0  0  0  0  0  0
    5.4079    5.0653   22.6889 C   0  0  0  0  0  0  0  0  0  0  0  0
    5.0346    3.6386   23.0220 C   0  0  0  0  0  0  0  0  0  0  0  0
    3.8385    3.5613   23.7303 O   0  0  0  0  0  0  0  0  0  0  0  0
    3.9480    2.9934   24.5231 H   0  0  0  0  0  0  0  0  0  0  0  0
  2  1  1  0  0  0
  2  3  1  0  0  0
  3  4  1  0  0  0
  4  5  1  0  0  0
  5  6  1  0  0  0
  6  7  1  0  0  0
  7  8  1  0  0  0
  8  9  1  0  0  0
  9 10  2  0  0  0
 10 11  1  0  0  0
 11 12  2  0  0  0
 11 13  1  0  0  0
 13 14  1  0  0  0
 14 15  1  0  0  0
 15 16  1  0  0  0
  6 17  1  0  0  0
 17 18  1  0  0  0
 18 19  1  0  0  0
 19 20  1  0  0  0
 20 21  1  0  0  0
 17  2  1  0  0  0
 20  2  1  0  0  0
 15  5  1  0  0  0
 15  9  1  0  0  0
 21 22  1  0  0  0
M  END
> <minimizedAffinity>
-8.02064

> <CNNscore>
0.4538707435

> <CNNaffinity>
5.9868717194

> <CNN_VS>
2.7172658443

> <CNNaffinity_variance>
0.1442697495

$$$$
[H]O[C@]1([H])C([H])([H])C([H])([H])[C@]2([H])[C@]1(C([H])([H])[H])C([H])([H])C([H])([H])[C@]1([H])[C@]3(C([H])([H])[H])C(=C([H])C(=O)C([H])([H])C3([H])[H])C([H])([H])C([H])([H])[C@@]21[H]


 22 25  0  0  0  0  0  0  0  0999 V2000
    2.1651    6.6142   12.0759 C   0  0  0  0  0  0  0  0  0  0  0  0
    1.4426    5.7138   13.0442 C   0  0  0  0  0  0  0  0  0  0  0  0
    2.2875    4.5760   13.5177 C   0  0  0  0  0  0  0  0  0  0  0  0
    2.6508    3.7210   12.3334 C   0  0  0  0  0  0  0  0  0  0  0  0
    1.4906    3.2927   11.5051 C   0  0  0  0  0  0  0  0  0  0  0  0
    0.5463    4.4261   11.1546 C   0  0  0  0  0  0  0  0  0  0  0  0
   -0.6823    3.8410   10.4926 C   0  0  0  0  0  0  0  0  0  0  0  0
   -0.3490    2.9773    9.3193 C   0  0  0  0  0  0  0  0  0  0  0  0
    0.7833    2.0598    9.5572 C   0  0  0  0  0  0  0  0  0  0  0  0
    0.6986    0.8195    9.0957 C   0  0  0  0  0  0  0  0  0  0  0  0
    1.7728   -0.1384    9.2918 C   0  0  0  0  0  0  0  0  0  0  0  0
    1.5548   -1.3607    9.1323 O   0  0  0  0  0  0  0  0  0  0  0  0
    3.1108    0.4064    9.6829 C   0  0  0  0  0  0  0  0  0  0  0  0
    2.8630    1.4246   10.7683 C   0  0  0  0  0  0  0  0  0  0  0  0
    1.9809    2.5509   10.3045 C   0  0  0  0  0  0  0  0  0  0  0  0
    2.7511    3.4409    9.3579 C   0  0  0  0  0  0  0  0  0  0  0  0
    0.2080    5.0840   12.4270 C   0  0  0  0  0  0  0  0  0  0  0  0
   -0.7590    6.1893   12.4109 C   0  0  0  0  0  0  0  0  0  0  0  0
   -0.6327    6.6735   13.8576 C   0  0  0  0  0  0  0  0  0  0  0  0
    0.8475    6.5452   14.1375 C   0  0  0  0  0  0  0  0  0  0  0  0
    1.0984    6.0260   15.4047 O   0  0  0  0  0  0  0  0  0  0  0  0
    1.7555    6.5815   15.8767 H   0  0  0  0  0  0  0  0  0  0  0  0
  2  1  1  0  0  0
  2  3  1  0  0  0
  3  4  1  0  0  0
  4  5  1  0  0  0
  5  6  1  0  0  0
  6  7  1  0  0  0
  7  8  1  0  0  0
  8  9  1  0  0  0
  9 10  2  0  0  0
 10 11  1  0  0  0
 11 12  2  0  0  0
 11 13  1  0  0  0
 13 14  1  0  0  0
 14 15  1  0  0  0
 15 16  1  0  0  0
  6 17  1  0  0  0
 17 18  1  0  0  0
 18 19  1  0  0  0
 19 20  1  0  0  0
 20 21  1  0  0  0
 17  2  1  0  0  0
 20  2  1  0  0  0
 15  5  1  0  0  0
 15  9  1  0  0  0
 21 22  1  0  0  0
M  END
> <minimizedAffinity>
-5.19065

> <CNNscore>
0.4454604983

> <CNNaffinity>
4.8308143616

> <CNN_VS>
2.1519370079

> <CNNaffinity_variance>
0.0576731451

$$$$
[H]O[C@]1([H])C([H])([H])C([H])([H])[C@]2([H])[C@]1(C([H])([H])[H])C([H])([H])C([H])([H])[C@]1([H])[C@]3(C([H])([H])[H])C(=C([H])C(=O)C([H])([H])C3([H])[H])C([H])([H])C([H])([H])[C@@]21[H]


 22 25  0  0  0  0  0  0  0  0999 V2000
    6.1075    5.7074   22.7122 C   0  0  0  0  0  0  0  0  0  0  0  0
    7.0771    6.8261   22.4319 C   0  0  0  0  0  0  0  0  0  0  0  0
    6.4169    8.1656   22.3816 C   0  0  0  0  0  0  0  0  0  0  0  0
    5.4244    8.1706   21.2499 C   0  0  0  0  0  0  0  0  0  0  0  0
    5.9826    7.7358   19.9405 C   0  0  0  0  0  0  0  0  0  0  0  0
    6.7872    6.4532   20.0217 C   0  0  0  0  0  0  0  0  0  0  0  0
    7.4632    6.2242   18.6873 C   0  0  0  0  0  0  0  0  0  0  0  0
    6.5009    6.2360   17.5439 C   0  0  0  0  0  0  0  0  0  0  0  0
    5.5079    7.3268   17.6119 C   0  0  0  0  0  0  0  0  0  0  0  0
    5.1978    7.9689   16.4939 C   0  0  0  0  0  0  0  0  0  0  0  0
    4.2301    9.0521   16.4840 C   0  0  0  0  0  0  0  0  0  0  0  0
    4.1819    9.8361   15.5093 O   0  0  0  0  0  0  0  0  0  0  0  0
    3.3248    9.1699   17.6700 C   0  0  0  0  0  0  0  0  0  0  0  0
    4.1913    9.0056   18.8940 C   0  0  0  0  0  0  0  0  0  0  0  0
    4.8870    7.6726   18.9267 C   0  0  0  0  0  0  0  0  0  0  0  0
    3.8848    6.5855   19.2353 C   0  0  0  0  0  0  0  0  0  0  0  0
    7.7737    6.6573   21.0948 C   0  0  0  0  0  0  0  0  0  0  0  0
    8.7534    5.5955   21.3596 C   0  0  0  0  0  0  0  0  0  0  0  0
    9.3958    6.1400   22.6379 C   0  0  0  0  0  0  0  0  0  0  0  0
    8.2248    6.7326   23.3884 C   0  0  0  0  0  0  0  0  0  0  0  0
    8.5406    7.9573   23.9703 O   0  0  0  0  0  0  0  0  0  0  0  0
    8.2672    7.9675   24.9128 H   0  0  0  0  0  0  0  0  0  0  0  0
  2  1  1  0  0  0
  2  3  1  0  0  0
  3  4  1  0  0  0
  4  5  1  0  0  0
  5  6  1  0  0  0
  6  7  1  0  0  0
  7  8  1  0  0  0
  8  9  1  0  0  0
  9 10  2  0  0  0
 10 11  1  0  0  0
 11 12  2  0  0  0
 11 13  1  0  0  0
 13 14  1  0  0  0
 14 15  1  0  0  0
 15 16  1  0  0  0
  6 17  1  0  0  0
 17 18  1  0  0  0
 18 19  1  0  0  0
 19 20  1  0  0  0
 20 21  1  0  0  0
 17  2  1  0  0  0
 20  2  1  0  0  0
 15  5  1  0  0  0
 15  9  1  0  0  0
 21 22  1  0  0  0
M  END
> <minimizedAffinity>
-5.12292

> <CNNscore>
0.4241459966

> <CNNaffinity>
5.0520839691

> <CNN_VS>
2.1428210735

> <CNNaffinity_variance>
0.2330135852

$$$$
[H]O[C@]1([H])C([H])([H])C([H])([H])[C@]2([H])[C@]1(C([H])([H])[H])C([H])([H])C([H])([H])[C@]1([H])[C@]3(C([H])([H])[H])C(=C([H])C(=O)C([H])([H])C3([H])[H])C([H])([H])C([H])([H])[C@@]21[H]


 22 25  0  0  0  0  0  0  0  0999 V2000
    5.8704    7.5618   18.1164 C   0  0  0  0  0  0  0  0  0  0  0  0
    4.3666    7.6395   18.1702 C   0  0  0  0  0  0  0  0  0  0  0  0
    3.7770    6.7394   19.2070 C   0  0  0  0  0  0  0  0  0  0  0  0
    4.1161    5.3153   18.8568 C   0  0  0  0  0  0  0  0  0  0  0  0
    3.7655    4.9242   17.4642 C   0  0  0  0  0  0  0  0  0  0  0  0
    4.2303    5.9212   16.4206 C   0  0  0  0  0  0  0  0  0  0  0  0
    3.6475    5.5230   15.0820 C   0  0  0  0  0  0  0  0  0  0  0  0
    3.9599    4.1083   14.7150 C   0  0  0  0  0  0  0  0  0  0  0  0
    3.7918    3.1529   15.8282 C   0  0  0  0  0  0  0  0  0  0  0  0
    3.2357    1.9766   15.5720 C   0  0  0  0  0  0  0  0  0  0  0  0
    3.0382    0.9867   16.6166 C   0  0  0  0  0  0  0  0  0  0  0  0
    2.2484    0.0334   16.4308 O   0  0  0  0  0  0  0  0  0  0  0  0
    3.8103    1.1697   17.8857 C   0  0  0  0  0  0  0  0  0  0  0  0
    3.6906    2.6265   18.2588 C   0  0  0  0  0  0  0  0  0  0  0  0
    4.2488    3.5356   17.1987 C   0  0  0  0  0  0  0  0  0  0  0  0
    5.7565    3.4457   17.1969 C   0  0  0  0  0  0  0  0  0  0  0  0
    3.7258    7.2334   16.8564 C   0  0  0  0  0  0  0  0  0  0  0  0
    3.9627    8.3987   15.9942 C   0  0  0  0  0  0  0  0  0  0  0  0
    3.4725    9.5164   16.9182 C   0  0  0  0  0  0  0  0  0  0  0  0
    3.9525    9.0736   18.2817 C   0  0  0  0  0  0  0  0  0  0  0  0
    2.9922    9.2806   19.2683 O   0  0  0  0  0  0  0  0  0  0  0  0
    3.3881    9.7442   20.0374 H   0  0  0  0  0  0  0  0  0  0  0  0
  2  1  1  0  0  0
  2  3  1  0  0  0
  3  4  1  0  0  0
  4  5  1  0  0  0
  5  6  1  0  0  0
  6  7  1  0  0  0
  7  8  1  0  0  0
  8  9  1  0  0  0
  9 10  2  0  0  0
 10 11  1  0  0  0
 11 12  2  0  0  0
 11 13  1  0  0  0
 13 14  1  0  0  0
 14 15  1  0  0  0
 15 16  1  0  0  0
  6 17  1  0  0  0
 17 18  1  0  0  0
 18 19  1  0  0  0
 19 20  1  0  0  0
 20 21  1  0  0  0
 17  2  1  0  0  0
 20  2  1  0  0  0
 15  5  1  0  0  0
 15  9  1  0  0  0
 21 22  1  0  0  0
M  END
> <minimizedAffinity>
-7.64519

> <CNNscore>
0.4032545388

> <CNNaffinity>
5.4298887253

> <CNN_VS>
2.1896271706

> <CNNaffinity_variance>
0.1659944355

$$$$
[H]O[C@]1([H])C([H])([H])C([H])([H])[C@]2([H])[C@]1(C([H])([H])[H])C([H])([H])C([H])([H])[C@]1([H])[C@]3(C([H])([H])[H])C(=C([H])C(=O)C([H])([H])C3([H])[H])C([H])([H])C([H])([H])[C@@]21[H]


 22 25  0  0  0  0  0  0  0  0999 V2000
    3.9471    4.5661   21.5974 C   0  0  0  0  0  0  0  0  0  0  0  0
    5.3325    4.2474   21.0980 C   0  0  0  0  0  0  0  0  0  0  0  0
    5.8875    5.3134   20.2101 C   0  0  0  0  0  0  0  0  0  0  0  0
    5.0126    5.4274   18.9905 C   0  0  0  0  0  0  0  0  0  0  0  0
    4.7671    4.1389   18.2871 C   0  0  0  0  0  0  0  0  0  0  0  0
    4.3532    3.0127   19.2142 C   0  0  0  0  0  0  0  0  0  0  0  0
    4.3297    1.7228   18.4234 C   0  0  0  0  0  0  0  0  0  0  0  0
    3.4765    1.8123   17.1995 C   0  0  0  0  0  0  0  0  0  0  0  0
    3.6605    3.0620   16.4349 C   0  0  0  0  0  0  0  0  0  0  0  0
    3.6952    2.9929   15.1111 C   0  0  0  0  0  0  0  0  0  0  0  0
    3.8730    4.1802   14.2934 C   0  0  0  0  0  0  0  0  0  0  0  0
    4.2108    4.0659   13.0934 O   0  0  0  0  0  0  0  0  0  0  0  0
    3.6358    5.5039   14.9505 C   0  0  0  0  0  0  0  0  0  0  0  0
    4.3325    5.4541   16.2878 C   0  0  0  0  0  0  0  0  0  0  0  0
    3.8012    4.3567   17.1683 C   0  0  0  0  0  0  0  0  0  0  0  0
    2.4244    4.7281   17.6660 C   0  0  0  0  0  0  0  0  0  0  0  0
    5.3660    2.9693   20.2814 C   0  0  0  0  0  0  0  0  0  0  0  0
    5.2665    1.9175   21.3018 C   0  0  0  0  0  0  0  0  0  0  0  0
    6.3544    2.3853   22.2719 C   0  0  0  0  0  0  0  0  0  0  0  0
    6.2037    3.8896   22.2615 C   0  0  0  0  0  0  0  0  0  0  0  0
    7.4346    4.5396   22.2312 O   0  0  0  0  0  0  0  0  0  0  0  0
    7.4700    5.2349   22.9229 H   0  0  0  0  0  0  0  0  0  0  0  0
  2  1  1  0  0  0
  2  3  1  0  0  0
  3  4  1  0  0  0
  4  5  1  0  0  0
  5  6  1  0  0  0
  6  7  1  0  0  0
  7  8  1  0  0  0
  8  9  1  0  0  0
  9 10  2  0  0  0
 10 11  1  0  0  0
 11 12  2  0  0  0
 11 13  1  0  0  0
 13 14  1  0  0  0
 14 15  1  0  0  0
 15 16  1  0  0  0
  6 17  1  0  0  0
 17 18  1  0  0  0
 18 19  1  0  0  0
 19 20  1  0  0  0
 20 21  1  0  0  0
 17  2  1  0  0  0
 20  2  1  0  0  0
 15  5  1  0  0  0
 15  9  1  0  0  0
 21 22  1  0  0  0
M  END
> <minimizedAffinity>
-8.41549

> <CNNscore>
0.4010635614

> <CNNaffinity>
5.6358122826

> <CNN_VS>
2.2603189945

> <CNNaffinity_variance>
0.0858426839

$$$$
[H]O[C@]1([H])C([H])([H])C([H])([H])[C@]2([H])[C@]1(C([H])([H])[H])C([H])([H])C([H])([H])[C@]1([H])[C@]3(C([H])([H])[H])C(=C([H])C(=O)C([H])([H])C3([H])[H])C([H])([H])C([H])([H])[C@@]21[H]


 22 25  0  0  0  0  0  0  0  0999 V2000
    6.4530    7.3651   19.0879 C   0  0  0  0  0  0  0  0  0  0  0  0
    5.1235    7.3079   19.7945 C   0  0  0  0  0  0  0  0  0  0  0  0
    4.9952    6.1200   20.6919 C   0  0  0  0  0  0  0  0  0  0  0  0
    5.0847    4.8726   19.8543 C   0  0  0  0  0  0  0  0  0  0  0  0
    4.1523    4.8423   18.6946 C   0  0  0  0  0  0  0  0  0  0  0  0
    4.1695    6.1153   17.8710 C   0  0  0  0  0  0  0  0  0  0  0  0
    3.0505    6.0457   16.8546 C   0  0  0  0  0  0  0  0  0  0  0  0
    3.1090    4.8097   16.0165 C   0  0  0  0  0  0  0  0  0  0  0  0
    3.3911    3.5811   16.7854 C   0  0  0  0  0  0  0  0  0  0  0  0
    2.7250    2.4766   16.4774 C   0  0  0  0  0  0  0  0  0  0  0  0
    2.9496    1.2310   17.1901 C   0  0  0  0  0  0  0  0  0  0  0  0
    2.1133    0.3036   17.1033 O   0  0  0  0  0  0  0  0  0  0  0  0
    4.1994    1.1273   18.0070 C   0  0  0  0  0  0  0  0  0  0  0  0
    4.3193    2.4172   18.7802 C   0  0  0  0  0  0  0  0  0  0  0  0
    4.4097    3.6175   17.8785 C   0  0  0  0  0  0  0  0  0  0  0  0
    5.7645    3.6494   17.2117 C   0  0  0  0  0  0  0  0  0  0  0  0
    3.9624    7.2196   18.8220 C   0  0  0  0  0  0  0  0  0  0  0  0
    3.8599    8.5878   18.2981 C   0  0  0  0  0  0  0  0  0  0  0  0
    3.8665    9.3757   19.6105 C   0  0  0  0  0  0  0  0  0  0  0  0
    4.8645    8.6230   20.4609 C   0  0  0  0  0  0  0  0  0  0  0  0
    4.4317    8.4828   21.7768 O   0  0  0  0  0  0  0  0  0  0  0  0
    5.1406    8.7531   22.3993 H   0  0  0  0  0  0  0  0  0  0  0  0
  2  1  1  0  0  0
  2  3  1  0  0  0
  3  4  1  0  0  0
  4  5  1  0  0  0
  5  6  1  0  0  0
  6  7  1  0  0  0
  7  8  1  0  0  0
  8  9  1  0  0  0
  9 10  2  0  0  0
 10 11  1  0  0  0
 11 12  2  0  0  0
 11 13  1  0  0  0
 13 14  1  0  0  0
 14 15  1  0  0  0
 15 16  1  0  0  0
  6 17  1  0  0  0
 17 18  1  0  0  0
 18 19  1  0  0  0
 19 20  1  0  0  0
 20 21  1  0  0  0
 17  2  1  0  0  0
 20  2  1  0  0  0
 15  5  1  0  0  0
 15  9  1  0  0  0
 21 22  1  0  0  0
M  END
> <minimizedAffinity>
-8.53004

> <CNNscore>
0.3985713422

> <CNNaffinity>
5.5641937256

> <CNN_VS>
2.2177281380

> <CNNaffinity_variance>
0.2463056296

$$$$
[H]O[C@]1([H])C([H])([H])C([H])([H])[C@]2([H])[C@]1(C([H])([H])[H])C([H])([H])C([H])([H])[C@]1([H])[C@]3(C([H])([H])[H])C(=C([H])C(=O)C([H])([H])C3([H])[H])C([H])([H])C([H])([H])[C@@]21[H]


 22 25  0  0  0  0  0  0  0  0999 V2000
    2.1816    2.6790   16.2359 C   0  0  0  0  0  0  0  0  0  0  0  0
    3.3749    3.5455   15.9268 C   0  0  0  0  0  0  0  0  0  0  0  0
    4.6741    2.8364   16.1315 C   0  0  0  0  0  0  0  0  0  0  0  0
    4.7908    2.4555   17.5831 C   0  0  0  0  0  0  0  0  0  0  0  0
    4.5737    3.5803   18.5334 C   0  0  0  0  0  0  0  0  0  0  0  0
    3.3334    4.3980   18.2298 C   0  0  0  0  0  0  0  0  0  0  0  0
    3.3292    5.6165   19.1272 C   0  0  0  0  0  0  0  0  0  0  0  0
    3.4558    5.2669   20.5747 C   0  0  0  0  0  0  0  0  0  0  0  0
    4.4760    4.2360   20.8518 C   0  0  0  0  0  0  0  0  0  0  0  0
    5.2541    4.3875   21.9149 C   0  0  0  0  0  0  0  0  0  0  0  0
    6.2791    3.4144   22.2502 C   0  0  0  0  0  0  0  0  0  0  0  0
    7.1900    3.7200   23.0527 O   0  0  0  0  0  0  0  0  0  0  0  0
    6.1833    2.0698   21.5999 C   0  0  0  0  0  0  0  0  0  0  0  0
    5.8898    2.3149   20.1405 C   0  0  0  0  0  0  0  0  0  0  0  0
    4.6012    3.0626   19.9346 C   0  0  0  0  0  0  0  0  0  0  0  0
    3.4337    2.1512   20.2302 C   0  0  0  0  0  0  0  0  0  0  0  0
    3.4315    4.7771   16.8109 C   0  0  0  0  0  0  0  0  0  0  0  0
    2.3922    5.6453   16.2424 C   0  0  0  0  0  0  0  0  0  0  0  0
    2.7808    5.5904   14.7628 C   0  0  0  0  0  0  0  0  0  0  0  0
    3.2031    4.1518   14.5690 C   0  0  0  0  0  0  0  0  0  0  0  0
    4.3470    4.0424   13.7829 O   0  0  0  0  0  0  0  0  0  0  0  0
    4.2101    3.3797   13.0722 H   0  0  0  0  0  0  0  0  0  0  0  0
  2  1  1  0  0  0
  2  3  1  0  0  0
  3  4  1  0  0  0
  4  5  1  0  0  0
  5  6  1  0  0  0
  6  7  1  0  0  0
  7  8  1  0  0  0
  8  9  1  0  0  0
  9 10  2  0  0  0
 10 11  1  0  0  0
 11 12  2  0  0  0
 11 13  1  0  0  0
 13 14  1  0  0  0
 14 15  1  0  0  0
 15 16  1  0  0  0
  6 17  1  0  0  0
 17 18  1  0  0  0
 18 19  1  0  0  0
 19 20  1  0  0  0
 20 21  1  0  0  0
 17  2  1  0  0  0
 20  2  1  0  0  0
 15  5  1  0  0  0
 15  9  1  0  0  0
 21 22  1  0  0  0
M  END
> <minimizedAffinity>
-5.64386

> <CNNscore>
0.3966363966

> <CNNaffinity>
5.3739590645

> <CNN_VS>
2.1315078735

> <CNNaffinity_variance>
0.1585380286

$$$$
[H]N=C(N([H])[H])N([H])C([H])([H])C([H])([H])C([H])([H])[C@@]([H])(C(=O)c1nc2c([H])c([H])c([H])c([H])c2s1)N([H])C(=O)[C@@]([H])(N([H])C(=O)[C@@]1([H])N(C(=O)OC([H])([H])c2c([H])c([H])c([H])c([H])c2[H])C([H])([H])C([H])([H])C1([H])[H])C([H])([H])C([H])([H])C([H])([H])N([H])C(=N[H])N([H])[H]


 58 61  0  0  0  0  0  0  0  0999 V2000
    5.6582    7.1967   17.1898 C   0  0  0  0  0  0  0  0  0  0  0  0
    4.6337    6.2102   17.1936 N   0  0  0  0  0  0  0  0  0  0  0  0
    4.7502    4.8276   17.3585 C   0  0  0  0  0  0  0  0  0  0  0  0
    5.8941    4.3377   17.5321 O   0  0  0  0  0  0  0  0  0  0  0  0
    3.6392    6.5850   17.0511 H   0  0  0  0  0  0  0  0  0  0  0  0
    3.5823    3.8999   17.3414 C   0  0  0  0  0  0  0  0  0  0  0  0
    3.9392    2.5285   17.8654 C   0  0  0  0  0  0  0  0  0  0  0  0
    3.9090    1.5893   16.7019 C   0  0  0  0  0  0  0  0  0  0  0  0
    3.6866    2.4745   15.4965 C   0  0  0  0  0  0  0  0  0  0  0  0
    3.0531    3.6571   16.0327 N   0  0  0  0  0  0  0  0  0  0  0  0
    2.0748    4.4310   15.3580 C   0  0  0  0  0  0  0  0  0  0  0  0
    1.6114    5.4445   15.9461 O   0  0  0  0  0  0  0  0  0  0  0  0
    1.6376    4.0949   14.1016 O   0  0  0  0  0  0  0  0  0  0  0  0
    1.6367    4.9454   12.9984 C   0  0  0  0  0  0  0  0  0  0  0  0
    0.2883    5.2202   12.4635 C   0  0  0  0  0  0  0  0  0  0  0  0
   -0.0655    4.7397   11.2166 C   0  0  0  0  0  0  0  0  0  0  0  0
   -1.3322    4.9984   10.7454 C   0  0  0  0  0  0  0  0  0  0  0  0
   -2.2502    5.7192   11.4783 C   0  0  0  0  0  0  0  0  0  0  0  0
   -1.8694    6.1902   12.7264 C   0  0  0  0  0  0  0  0  0  0  0  0
   -0.6211    5.9414   13.2044 C   0  0  0  0  0  0  0  0  0  0  0  0
    6.1205    7.4073   18.6079 C   0  0  0  0  0  0  0  0  0  0  0  0
    7.0558    8.2508   18.7611 O   0  0  0  0  0  0  0  0  0  0  0  0
    5.6018    6.7543   19.7200 N   0  0  0  0  0  0  0  0  0  0  0  0
    4.8443    6.0488   19.6259 H   0  0  0  0  0  0  0  0  0  0  0  0
    6.1082    7.0449   21.0650 C   0  0  0  0  0  0  0  0  0  0  0  0
    6.5625    5.8034   21.6755 C   0  0  0  0  0  0  0  0  0  0  0  0
    7.7801    5.7776   22.1256 O   0  0  0  0  0  0  0  0  0  0  0  0
    5.7784    4.5792   21.8316 C   0  0  0  0  0  0  0  0  0  0  0  0
    6.0354    3.4149   21.2505 N   0  0  0  0  0  0  0  0  0  0  0  0
    5.2664    2.3982   21.4007 C   0  0  0  0  0  0  0  0  0  0  0  0
    5.4500    1.1278   20.8242 C   0  0  0  0  0  0  0  0  0  0  0  0
    4.5577    0.1219   21.0516 C   0  0  0  0  0  0  0  0  0  0  0  0
    3.4408    0.2711   21.8416 C   0  0  0  0  0  0  0  0  0  0  0  0
    3.2446    1.5092   22.4158 C   0  0  0  0  0  0  0  0  0  0  0  0
    4.1549    2.5554   22.1917 C   0  0  0  0  0  0  0  0  0  0  0  0
    4.3258    4.1867   22.6554 S   0  0  0  0  0  0  0  0  0  0  0  0
    5.0967    7.7727   21.8582 C   0  0  0  0  0  0  0  0  0  0  0  0
    5.2462    9.3008   21.7464 C   0  0  0  0  0  0  0  0  0  0  0  0
    6.4095    9.7744   22.5682 C   0  0  0  0  0  0  0  0  0  0  0  0
    6.1152    9.6307   23.9923 N   0  0  0  0  0  0  0  0  0  0  0  0
    5.2317    9.9323   24.4388 H   0  0  0  0  0  0  0  0  0  0  0  0
    7.1186    9.0333   24.8233 C   0  0  0  0  0  0  0  0  0  0  0  0
    7.6611    9.7248   25.9375 N   0  0  0  0  0  0  0  0  0  0  0  0
    7.5547    7.8413   24.5751 N   0  0  0  0  0  0  0  0  0  0  0  0
    7.5456   10.7512   26.0170 H   0  0  0  0  0  0  0  0  0  0  0  0
    8.1751    9.2029   26.6795 H   0  0  0  0  0  0  0  0  0  0  0  0
    8.2848    7.4054   25.1792 H   0  0  0  0  0  0  0  0  0  0  0  0
    5.3437    8.4736   16.4726 C   0  0  0  0  0  0  0  0  0  0  0  0
    6.0742    8.5845   15.1770 C   0  0  0  0  0  0  0  0  0  0  0  0
    5.1706    8.5002   13.9484 C   0  0  0  0  0  0  0  0  0  0  0  0
    4.5276    9.8188   13.8543 N   0  0  0  0  0  0  0  0  0  0  0  0
    4.9675   10.6343   13.3751 H   0  0  0  0  0  0  0  0  0  0  0  0
    2.3091    8.9966   14.4398 N   0  0  0  0  0  0  0  0  0  0  0  0
    3.2295   10.0668   14.4270 C   0  0  0  0  0  0  0  0  0  0  0  0
    2.9510   11.2227   14.8909 N   0  0  0  0  0  0  0  0  0  0  0  0
    2.1650    8.3361   13.6495 H   0  0  0  0  0  0  0  0  0  0  0  0
    1.7137    8.8258   15.2827 H   0  0  0  0  0  0  0  0  0  0  0  0
    2.0558   11.5019   15.3125 H   0  0  0  0  0  0  0  0  0  0  0  0
 53 54  1  0  0  0
 54 55  2  0  0  0
 54 51  1  0  0  0
 51 50  1  0  0  0
 50 49  1  0  0  0
 49 48  1  0  0  0
 48  1  1  0  0  0
  1  2  1  0  0  0
  2  3  1  0  0  0
  3  4  2  0  0  0
  3  6  1  0  0  0
  6  7  1  0  0  0
  7  8  1  0  0  0
  8  9  1  0  0  0
  9 10  1  0  0  0
 10 11  1  0  0  0
 11 12  2  0  0  0
 11 13  1  0  0  0
 13 14  1  0  0  0
 14 15  1  0  0  0
 15 16  2  0  0  0
 16 17  1  0  0  0
 17 18  2  0  0  0
 18 19  1  0  0  0
 19 20  2  0  0  0
  1 21  1  0  0  0
 21 22  2  0  0  0
 21 23  1  0  0  0
 23 25  1  0  0  0
 25 37  1  0  0  0
 37 38  1  0  0  0
 38 39  1  0  0  0
 39 40  1  0  0  0
 40 42  1  0  0  0
 42 43  1  0  0  0
 42 44  2  0  0  0
 25 26  1  0  0  0
 26 27  2  0  0  0
 26 28  1  0  0  0
 28 29  2  0  0  0
 29 30  1  0  0  0
 30 31  2  0  0  0
 31 32  1  0  0  0
 32 33  2  0  0  0
 33 34  1  0  0  0
 34 35  2  0  0  0
 35 36  1  0  0  0
 10  6  1  0  0  0
 20 15  1  0  0  0
 36 28  1  0  0  0
 35 30  1  0  0  0
 53 56  1  0  0  0
 53 57  1  0  0  0
 55 58  1  0  0  0
 51 52  1  0  0  0
  2  5  1  0  0  0
 23 24  1  0  0  0
 40 41  1  0  0  0
 43 45  1  0  0  0
 43 46  1  0  0  0
 44 47  1  0  0  0
M  END
> <minimizedAffinity>
-8.74541

> <CNNscore>
0.4915590286

> <CNNaffinity>
7.3796615601

> <CNN_VS>
3.6275391579

> <CNNaffinity_variance>
0.3007317781

$$$$
[H]N=C(N([H])[H])N([H])C([H])([H])C([H])([H])C([H])([H])[C@@]([H])(C(=O)c1nc2c([H])c([H])c([H])c([H])c2s1)N([H])C(=O)[C@@]([H])(N([H])C(=O)[C@@]1([H])N(C(=O)OC([H])([H])c2c([H])c([H])c([H])c([H])c2[H])C([H])([H])C([H])([H])C1([H])[H])C([H])([H])C([H])([H])C([H])([H])N([H])C(=N[H])N([H])[H]


 58 61  0  0  0  0  0  0  0  0999 V2000
    5.3507    4.9619   17.7820 C   0  0  0  0  0  0  0  0  0  0  0  0
    4.2222    4.5642   17.0133 N   0  0  0  0  0  0  0  0  0  0  0  0
    3.8775    3.2884   16.5595 C   0  0  0  0  0  0  0  0  0  0  0  0
    4.6334    2.3255   16.8431 O   0  0  0  0  0  0  0  0  0  0  0  0
    3.5476    5.3552   16.7506 H   0  0  0  0  0  0  0  0  0  0  0  0
    2.6531    3.0088   15.7548 C   0  0  0  0  0  0  0  0  0  0  0  0
    2.7002    1.6456   15.1051 C   0  0  0  0  0  0  0  0  0  0  0  0
    2.8607    1.8625   13.6340 C   0  0  0  0  0  0  0  0  0  0  0  0
    3.0612    3.3535   13.4831 C   0  0  0  0  0  0  0  0  0  0  0  0
    2.4539    3.9181   14.6662 N   0  0  0  0  0  0  0  0  0  0  0  0
    1.7797    5.1648   14.7168 C   0  0  0  0  0  0  0  0  0  0  0  0
    1.3026    5.5364   15.8223 O   0  0  0  0  0  0  0  0  0  0  0  0
    1.6444    5.9513   13.6007 O   0  0  0  0  0  0  0  0  0  0  0  0
    0.8872    5.6265   12.4775 C   0  0  0  0  0  0  0  0  0  0  0  0
   -0.5493    5.9352   12.6221 C   0  0  0  0  0  0  0  0  0  0  0  0
   -0.9705    6.7801   13.6318 C   0  0  0  0  0  0  0  0  0  0  0  0
   -2.3131    7.0623   13.7381 C   0  0  0  0  0  0  0  0  0  0  0  0
   -3.2419    6.5279   12.8714 C   0  0  0  0  0  0  0  0  0  0  0  0
   -2.7926    5.6825   11.8674 C   0  0  0  0  0  0  0  0  0  0  0  0
   -1.4686    5.3957   11.7505 C   0  0  0  0  0  0  0  0  0  0  0  0
    5.0274    4.7621   19.2396 C   0  0  0  0  0  0  0  0  0  0  0  0
    3.8748    5.1473   19.6044 O   0  0  0  0  0  0  0  0  0  0  0  0
    5.8873    4.2009   20.1765 N   0  0  0  0  0  0  0  0  0  0  0  0
    6.8423    3.8874   19.9116 H   0  0  0  0  0  0  0  0  0  0  0  0
    5.4697    4.0310   21.5717 C   0  0  0  0  0  0  0  0  0  0  0  0
    5.6268    5.3002   22.2680 C   0  0  0  0  0  0  0  0  0  0  0  0
    4.5467    5.8684   22.7111 O   0  0  0  0  0  0  0  0  0  0  0  0
    6.8865    5.9991   22.5179 C   0  0  0  0  0  0  0  0  0  0  0  0
    8.0994    5.5224   22.2709 N   0  0  0  0  0  0  0  0  0  0  0  0
    9.1600    6.1822   22.5668 C   0  0  0  0  0  0  0  0  0  0  0  0
   10.4852    5.7614   22.3503 C   0  0  0  0  0  0  0  0  0  0  0  0
   11.5367    6.5496   22.7147 C   0  0  0  0  0  0  0  0  0  0  0  0
   11.3834    7.7831   23.3056 C   0  0  0  0  0  0  0  0  0  0  0  0
   10.0916    8.2125   23.5250 C   0  0  0  0  0  0  0  0  0  0  0  0
    8.9978    7.4126   23.1547 C   0  0  0  0  0  0  0  0  0  0  0  0
    7.2974    7.5062   23.2269 S   0  0  0  0  0  0  0  0  0  0  0  0
    6.1905    2.9048   22.1995 C   0  0  0  0  0  0  0  0  0  0  0  0
    5.2533    1.7468   22.5876 C   0  0  0  0  0  0  0  0  0  0  0  0
    3.8186    2.1600   22.4323 C   0  0  0  0  0  0  0  0  0  0  0  0
    3.0265    1.0508   21.9054 N   0  0  0  0  0  0  0  0  0  0  0  0
    2.2674    0.5773   22.4253 H   0  0  0  0  0  0  0  0  0  0  0  0
    3.3236    0.5897   20.5812 C   0  0  0  0  0  0  0  0  0  0  0  0
    3.0275   -0.7387   20.1791 N   0  0  0  0  0  0  0  0  0  0  0  0
    3.8712    1.3800   19.7164 N   0  0  0  0  0  0  0  0  0  0  0  0
    2.8429   -1.4672   20.8921 H   0  0  0  0  0  0  0  0  0  0  0  0
    2.9931   -0.9851   19.1666 H   0  0  0  0  0  0  0  0  0  0  0  0
    4.0878    1.0457   18.7523 H   0  0  0  0  0  0  0  0  0  0  0  0
    5.9122    6.3172   17.4793 C   0  0  0  0  0  0  0  0  0  0  0  0
    7.1181    6.6221   18.3024 C   0  0  0  0  0  0  0  0  0  0  0  0
    6.8646    7.6315   19.4204 C   0  0  0  0  0  0  0  0  0  0  0  0
    5.6694    8.3769   19.0001 N   0  0  0  0  0  0  0  0  0  0  0  0
    5.6102    8.8968   18.0976 H   0  0  0  0  0  0  0  0  0  0  0  0
    3.2483    8.1789   19.1989 N   0  0  0  0  0  0  0  0  0  0  0  0
    4.4885    8.4335   19.8229 C   0  0  0  0  0  0  0  0  0  0  0  0
    4.5928    8.7122   21.0641 N   0  0  0  0  0  0  0  0  0  0  0  0
    2.9766    8.5404   18.2624 H   0  0  0  0  0  0  0  0  0  0  0  0
    2.5284    7.5926   19.6806 H   0  0  0  0  0  0  0  0  0  0  0  0
    3.8145    8.7829   21.7320 H   0  0  0  0  0  0  0  0  0  0  0  0
 53 54  1  0  0  0
 54 55  2  0  0  0
 54 51  1  0  0  0
 51 50  1  0  0  0
 50 49  1  0  0  0
 49 48  1  0  0  0
 48  1  1  0  0  0
  1  2  1  0  0  0
  2  3  1  0  0  0
  3  4  2  0  0  0
  3  6  1  0  0  0
  6  7  1  0  0  0
  7  8  1  0  0  0
  8  9  1  0  0  0
  9 10  1  0  0  0
 10 11  1  0  0  0
 11 12  2  0  0  0
 11 13  1  0  0  0
 13 14  1  0  0  0
 14 15  1  0  0  0
 15 16  2  0  0  0
 16 17  1  0  0  0
 17 18  2  0  0  0
 18 19  1  0  0  0
 19 20  2  0  0  0
  1 21  1  0  0  0
 21 22  2  0  0  0
 21 23  1  0  0  0
 23 25  1  0  0  0
 25 37  1  0  0  0
 37 38  1  0  0  0
 38 39  1  0  0  0
 39 40  1  0  0  0
 40 42  1  0  0  0
 42 43  1  0  0  0
 42 44  2  0  0  0
 25 26  1  0  0  0
 26 27  2  0  0  0
 26 28  1  0  0  0
 28 29  2  0  0  0
 29 30  1  0  0  0
 30 31  2  0  0  0
 31 32  1  0  0  0
 32 33  2  0  0  0
 33 34  1  0  0  0
 34 35  2  0  0  0
 35 36  1  0  0  0
 10  6  1  0  0  0
 20 15  1  0  0  0
 36 28  1  0  0  0
 35 30  1  0  0  0
 53 56  1  0  0  0
 53 57  1  0  0  0
 55 58  1  0  0  0
 51 52  1  0  0  0
  2  5  1  0  0  0
 23 24  1  0  0  0
 40 41  1  0  0  0
 43 45  1  0  0  0
 43 46  1  0  0  0
 44 47  1  0  0  0
M  END
> <minimizedAffinity>
-8.20343

> <CNNscore>
0.2852322161

> <CNNaffinity>
7.3277654648

> <CNN_VS>
2.0901148319

> <CNNaffinity_variance>
0.3919356763

$$$$
[H]N=C(N([H])[H])N([H])C([H])([H])C([H])([H])C([H])([H])[C@@]([H])(C(=O)c1nc2c([H])c([H])c([H])c([H])c2s1)N([H])C(=O)[C@@]([H])(N([H])C(=O)[C@@]1([H])N(C(=O)OC([H])([H])c2c([H])c([H])c([H])c([H])c2[H])C([H])([H])C([H])([H])C1([H])[H])C([H])([H])C([H])([H])C([H])([H])N([H])C(=N[H])N([H])[H]


 58 61  0  0  0  0  0  0  0  0999 V2000
    3.4210    4.2770   17.2347 C   0  0  0  0  0  0  0  0  0  0  0  0
    3.1829    4.2222   15.8336 N   0  0  0  0  0  0  0  0  0  0  0  0
    2.2006    4.8768   15.0862 C   0  0  0  0  0  0  0  0  0  0  0  0
    1.3925    5.6299   15.6850 O   0  0  0  0  0  0  0  0  0  0  0  0
    3.8523    3.5921   15.2817 H   0  0  0  0  0  0  0  0  0  0  0  0
    2.0623    4.7293   13.6083 C   0  0  0  0  0  0  0  0  0  0  0  0
    2.7976    3.5163   13.0879 C   0  0  0  0  0  0  0  0  0  0  0  0
    3.9688    4.0133   12.3017 C   0  0  0  0  0  0  0  0  0  0  0  0
    3.9723    5.5097   12.5179 C   0  0  0  0  0  0  0  0  0  0  0  0
    2.6050    5.8249   12.8624 N   0  0  0  0  0  0  0  0  0  0  0  0
    1.9347    7.0241   12.5102 C   0  0  0  0  0  0  0  0  0  0  0  0
    0.7401    7.1675   12.8846 O   0  0  0  0  0  0  0  0  0  0  0  0
    2.5587    8.0059   11.7827 O   0  0  0  0  0  0  0  0  0  0  0  0
    2.3461    8.2595   10.4296 C   0  0  0  0  0  0  0  0  0  0  0  0
    2.1849    7.0379    9.6163 C   0  0  0  0  0  0  0  0  0  0  0  0
    3.3032    6.3714    9.1515 C   0  0  0  0  0  0  0  0  0  0  0  0
    3.1270    5.2282    8.4061 C   0  0  0  0  0  0  0  0  0  0  0  0
    1.8743    4.7346    8.1124 C   0  0  0  0  0  0  0  0  0  0  0  0
    0.7688    5.4229    8.5906 C   0  0  0  0  0  0  0  0  0  0  0  0
    0.9285    6.5535    9.3288 C   0  0  0  0  0  0  0  0  0  0  0  0
    4.0848    5.5912   17.5530 C   0  0  0  0  0  0  0  0  0  0  0  0
    5.1334    5.8522   16.8881 O   0  0  0  0  0  0  0  0  0  0  0  0
    3.6328    6.5031   18.4998 N   0  0  0  0  0  0  0  0  0  0  0  0
    2.7844    6.3125   19.0694 H   0  0  0  0  0  0  0  0  0  0  0  0
    4.3408    7.7677   18.7219 C   0  0  0  0  0  0  0  0  0  0  0  0
    5.1788    7.6365   19.9055 C   0  0  0  0  0  0  0  0  0  0  0  0
    5.8707    8.6773   20.2577 O   0  0  0  0  0  0  0  0  0  0  0  0
    5.3172    6.4431   20.7389 C   0  0  0  0  0  0  0  0  0  0  0  0
    4.3665    5.9124   21.4964 N   0  0  0  0  0  0  0  0  0  0  0  0
    4.5847    4.8887   22.2395 C   0  0  0  0  0  0  0  0  0  0  0  0
    3.6471    4.2589   23.0787 C   0  0  0  0  0  0  0  0  0  0  0  0
    3.9987    3.1768   23.8306 C   0  0  0  0  0  0  0  0  0  0  0  0
    5.2636    2.6348   23.8241 C   0  0  0  0  0  0  0  0  0  0  0  0
    6.1958    3.2384   23.0069 C   0  0  0  0  0  0  0  0  0  0  0  0
    5.8492    4.3533   22.2258 C   0  0  0  0  0  0  0  0  0  0  0  0
    6.6213    5.3958   21.1201 S   0  0  0  0  0  0  0  0  0  0  0  0
    3.3895    8.8963   18.7780 C   0  0  0  0  0  0  0  0  0  0  0  0
    3.9467   10.1715   18.1196 C   0  0  0  0  0  0  0  0  0  0  0  0
    5.0437    9.8261   17.1551 C   0  0  0  0  0  0  0  0  0  0  0  0
    4.5636    9.9415   15.7798 N   0  0  0  0  0  0  0  0  0  0  0  0
    4.5969   10.8121   15.2213 H   0  0  0  0  0  0  0  0  0  0  0  0
    4.0094    8.7704   15.1669 C   0  0  0  0  0  0  0  0  0  0  0  0
    2.6065    8.6002   15.0359 N   0  0  0  0  0  0  0  0  0  0  0  0
    4.7810    7.8361   14.7150 N   0  0  0  0  0  0  0  0  0  0  0  0
    1.9592    9.1748   15.6051 H   0  0  0  0  0  0  0  0  0  0  0  0
    2.2233    7.8989   14.3662 H   0  0  0  0  0  0  0  0  0  0  0  0
    4.3789    6.9835   14.2685 H   0  0  0  0  0  0  0  0  0  0  0  0
    4.1241    3.0971   17.8324 C   0  0  0  0  0  0  0  0  0  0  0  0
    4.1790    3.1711   19.3210 C   0  0  0  0  0  0  0  0  0  0  0  0
    4.1343    1.8085   20.0100 C   0  0  0  0  0  0  0  0  0  0  0  0
    3.5476    0.8964   19.0177 N   0  0  0  0  0  0  0  0  0  0  0  0
    3.6741    1.0158   17.9890 H   0  0  0  0  0  0  0  0  0  0  0  0
    3.0213   -0.8134   20.6729 N   0  0  0  0  0  0  0  0  0  0  0  0
    2.7507   -0.2362   19.4135 C   0  0  0  0  0  0  0  0  0  0  0  0
    1.8464   -0.6807   18.6301 N   0  0  0  0  0  0  0  0  0  0  0  0
    3.9760   -0.9734   21.0530 H   0  0  0  0  0  0  0  0  0  0  0  0
    2.2344   -1.1143   21.2930 H   0  0  0  0  0  0  0  0  0  0  0  0
    1.2311   -1.4831   18.8158 H   0  0  0  0  0  0  0  0  0  0  0  0
 53 54  1  0  0  0
 54 55  2  0  0  0
 54 51  1  0  0  0
 51 50  1  0  0  0
 50 49  1  0  0  0
 49 48  1  0  0  0
 48  1  1  0  0  0
  1  2  1  0  0  0
  2  3  1  0  0  0
  3  4  2  0  0  0
  3  6  1  0  0  0
  6  7  1  0  0  0
  7  8  1  0  0  0
  8  9  1  0  0  0
  9 10  1  0  0  0
 10 11  1  0  0  0
 11 12  2  0  0  0
 11 13  1  0  0  0
 13 14  1  0  0  0
 14 15  1  0  0  0
 15 16  2  0  0  0
 16 17  1  0  0  0
 17 18  2  0  0  0
 18 19  1  0  0  0
 19 20  2  0  0  0
  1 21  1  0  0  0
 21 22  2  0  0  0
 21 23  1  0  0  0
 23 25  1  0  0  0
 25 37  1  0  0  0
 37 38  1  0  0  0
 38 39  1  0  0  0
 39 40  1  0  0  0
 40 42  1  0  0  0
 42 43  1  0  0  0
 42 44  2  0  0  0
 25 26  1  0  0  0
 26 27  2  0  0  0
 26 28  1  0  0  0
 28 29  2  0  0  0
 29 30  1  0  0  0
 30 31  2  0  0  0
 31 32  1  0  0  0
 32 33  2  0  0  0
 33 34  1  0  0  0
 34 35  2  0  0  0
 35 36  1  0  0  0
 10  6  1  0  0  0
 20 15  1  0  0  0
 36 28  1  0  0  0
 35 30  1  0  0  0
 53 56  1  0  0  0
 53 57  1  0  0  0
 55 58  1  0  0  0
 51 52  1  0  0  0
  2  5  1  0  0  0
 23 24  1  0  0  0
 40 41  1  0  0  0
 43 45  1  0  0  0
 43 46  1  0  0  0
 44 47  1  0  0  0
M  END
> <minimizedAffinity>
-7.38957

> <CNNscore>
0.2802255452

> <CNNaffinity>
7.0871505737

> <CNN_VS>
1.9860006571

> <CNNaffinity_variance>
0.7387613654

$$$$
[H]N=C(N([H])[H])N([H])C([H])([H])C([H])([H])C([H])([H])[C@@]([H])(C(=O)c1nc2c([H])c([H])c([H])c([H])c2s1)N([H])C(=O)[C@@]([H])(N([H])C(=O)[C@@]1([H])N(C(=O)OC([H])([H])c2c([H])c([H])c([H])c([H])c2[H])C([H])([H])C([H])([H])C1([H])[H])C([H])([H])C([H])([H])C([H])([H])N([H])C(=N[H])N([H])[H]


 58 61  0  0  0  0  0  0  0  0999 V2000
    3.8141    5.1760   17.7317 C   0  0  0  0  0  0  0  0  0  0  0  0
    3.8035    5.5354   16.3557 N   0  0  0  0  0  0  0  0  0  0  0  0
    2.7232    5.5798   15.4707 C   0  0  0  0  0  0  0  0  0  0  0  0
    1.5830    5.2708   15.8987 O   0  0  0  0  0  0  0  0  0  0  0  0
    4.7569    5.8096   15.9487 H   0  0  0  0  0  0  0  0  0  0  0  0
    2.8534    5.9786   14.0393 C   0  0  0  0  0  0  0  0  0  0  0  0
    3.8901    7.0602   13.8436 C   0  0  0  0  0  0  0  0  0  0  0  0
    3.1586    8.3125   13.4787 C   0  0  0  0  0  0  0  0  0  0  0  0
    1.6953    7.9620   13.6258 C   0  0  0  0  0  0  0  0  0  0  0  0
    1.6546    6.5254   13.4778 N   0  0  0  0  0  0  0  0  0  0  0  0
    0.5950    5.8008   12.8748 C   0  0  0  0  0  0  0  0  0  0  0  0
    0.6910    4.5456   12.8197 O   0  0  0  0  0  0  0  0  0  0  0  0
   -0.5071    6.4377   12.3624 O   0  0  0  0  0  0  0  0  0  0  0  0
   -1.7214    6.5985   13.0259 C   0  0  0  0  0  0  0  0  0  0  0  0
   -2.8525    5.9184   12.3643 C   0  0  0  0  0  0  0  0  0  0  0  0
   -2.6204    4.7951   11.5928 C   0  0  0  0  0  0  0  0  0  0  0  0
   -3.6925    4.1717   10.9966 C   0  0  0  0  0  0  0  0  0  0  0  0
   -4.9818    4.6349   11.1469 C   0  0  0  0  0  0  0  0  0  0  0  0
   -5.1870    5.7642   11.9261 C   0  0  0  0  0  0  0  0  0  0  0  0
   -4.1367    6.3897   12.5213 C   0  0  0  0  0  0  0  0  0  0  0  0
    4.6965    6.1481   18.4702 C   0  0  0  0  0  0  0  0  0  0  0  0
    5.8590    6.3101   17.9883 O   0  0  0  0  0  0  0  0  0  0  0  0
    4.3260    6.8532   19.6094 N   0  0  0  0  0  0  0  0  0  0  0  0
    3.3856    6.7327   20.0355 H   0  0  0  0  0  0  0  0  0  0  0  0
    5.2539    7.7942   20.2447 C   0  0  0  0  0  0  0  0  0  0  0  0
    5.8939    7.1343   21.3740 C   0  0  0  0  0  0  0  0  0  0  0  0
    5.1509    6.3581   22.1030 O   0  0  0  0  0  0  0  0  0  0  0  0
    7.2962    7.2607   21.7680 C   0  0  0  0  0  0  0  0  0  0  0  0
    8.1560    6.2600   21.9046 N   0  0  0  0  0  0  0  0  0  0  0  0
    9.3608    6.4516   22.3041 C   0  0  0  0  0  0  0  0  0  0  0  0
   10.3416    5.4589   22.4848 C   0  0  0  0  0  0  0  0  0  0  0  0
   11.5917    5.7837   22.9227 C   0  0  0  0  0  0  0  0  0  0  0  0
   11.9763    7.0729   23.2124 C   0  0  0  0  0  0  0  0  0  0  0  0
   11.0284    8.0594   23.0404 C   0  0  0  0  0  0  0  0  0  0  0  0
    9.7366    7.7411   22.5894 C   0  0  0  0  0  0  0  0  0  0  0  0
    8.2895    8.5745   22.2477 S   0  0  0  0  0  0  0  0  0  0  0  0
    4.5644    9.0532   20.5929 C   0  0  0  0  0  0  0  0  0  0  0  0
    5.3850   10.2998   20.2154 C   0  0  0  0  0  0  0  0  0  0  0  0
    6.2226   10.0267   19.0001 C   0  0  0  0  0  0  0  0  0  0  0  0
    5.4938   10.3979   17.7891 N   0  0  0  0  0  0  0  0  0  0  0  0
    5.2488   11.3694   17.5303 H   0  0  0  0  0  0  0  0  0  0  0  0
    5.0920    9.3447   16.9039 C   0  0  0  0  0  0  0  0  0  0  0  0
    5.9899    8.8015   15.9485 N   0  0  0  0  0  0  0  0  0  0  0  0
    3.8937    8.8612   16.9571 N   0  0  0  0  0  0  0  0  0  0  0  0
    6.8485    9.3205   15.6903 H   0  0  0  0  0  0  0  0  0  0  0  0
    5.7897    7.8792   15.5053 H   0  0  0  0  0  0  0  0  0  0  0  0
    3.6001    8.0946   16.3136 H   0  0  0  0  0  0  0  0  0  0  0  0
    4.1237    3.7428   18.0382 C   0  0  0  0  0  0  0  0  0  0  0  0
    4.1678    3.4793   19.5055 C   0  0  0  0  0  0  0  0  0  0  0  0
    4.8837    2.1829   19.8798 C   0  0  0  0  0  0  0  0  0  0  0  0
    3.8670    1.1301   19.7419 N   0  0  0  0  0  0  0  0  0  0  0  0
    3.4930    0.8164   18.8200 H   0  0  0  0  0  0  0  0  0  0  0  0
    2.8652   -0.8679   20.7139 N   0  0  0  0  0  0  0  0  0  0  0  0
    3.3185    0.4571   20.8912 C   0  0  0  0  0  0  0  0  0  0  0  0
    3.2531    1.0653   22.0114 N   0  0  0  0  0  0  0  0  0  0  0  0
    2.3252   -1.1986   19.8890 H   0  0  0  0  0  0  0  0  0  0  0  0
    3.0654   -1.5933   21.4404 H   0  0  0  0  0  0  0  0  0  0  0  0
    2.8753    0.6773   22.8853 H   0  0  0  0  0  0  0  0  0  0  0  0
 53 54  1  0  0  0
 54 55  2  0  0  0
 54 51  1  0  0  0
 51 50  1  0  0  0
 50 49  1  0  0  0
 49 48  1  0  0  0
 48  1  1  0  0  0
  1  2  1  0  0  0
  2  3  1  0  0  0
  3  4  2  0  0  0
  3  6  1  0  0  0
  6  7  1  0  0  0
  7  8  1  0  0  0
  8  9  1  0  0  0
  9 10  1  0  0  0
 10 11  1  0  0  0
 11 12  2  0  0  0
 11 13  1  0  0  0
 13 14  1  0  0  0
 14 15  1  0  0  0
 15 16  2  0  0  0
 16 17  1  0  0  0
 17 18  2  0  0  0
 18 19  1  0  0  0
 19 20  2  0  0  0
  1 21  1  0  0  0
 21 22  2  0  0  0
 21 23  1  0  0  0
 23 25  1  0  0  0
 25 37  1  0  0  0
 37 38  1  0  0  0
 38 39  1  0  0  0
 39 40  1  0  0  0
 40 42  1  0  0  0
 42 43  1  0  0  0
 42 44  2  0  0  0
 25 26  1  0  0  0
 26 27  2  0  0  0
 26 28  1  0  0  0
 28 29  2  0  0  0
 29 30  1  0  0  0
 30 31  2  0  0  0
 31 32  1  0  0  0
 32 33  2  0  0  0
 33 34  1  0  0  0
 34 35  2  0  0  0
 35 36  1  0  0  0
 10  6  1  0  0  0
 20 15  1  0  0  0
 36 28  1  0  0  0
 35 30  1  0  0  0
 53 56  1  0  0  0
 53 57  1  0  0  0
 55 58  1  0  0  0
 51 52  1  0  0  0
  2  5  1  0  0  0
 23 24  1  0  0  0
 40 41  1  0  0  0
 43 45  1  0  0  0
 43 46  1  0  0  0
 44 47  1  0  0  0
M  END
> <minimizedAffinity>
-7.76608

> <CNNscore>
0.2736924589

> <CNNaffinity>
6.8448228836

> <CNN_VS>
1.8733763695

> <CNNaffinity_variance>
0.4058391452

$$$$
[H]N=C(N([H])[H])N([H])C([H])([H])C([H])([H])C([H])([H])[C@@]([H])(C(=O)c1nc2c([H])c([H])c([H])c([H])c2s1)N([H])C(=O)[C@@]([H])(N([H])C(=O)[C@@]1([H])N(C(=O)OC([H])([H])c2c([H])c([H])c([H])c([H])c2[H])C([H])([H])C([H])([H])C1([H])[H])C([H])([H])C([H])([H])C([H])([H])N([H])C(=N[H])N([H])[H]


 58 61  0  0  0  0  0  0  0  0999 V2000
    4.6787    5.3548   17.1240 C   0  0  0  0  0  0  0  0  0  0  0  0
    4.5559    6.0912   15.9135 N   0  0  0  0  0  0  0  0  0  0  0  0
    3.6490    5.9095   14.8663 C   0  0  0  0  0  0  0  0  0  0  0  0
    2.8044    4.9836   14.9570 O   0  0  0  0  0  0  0  0  0  0  0  0
    5.2566    6.8942   15.7952 H   0  0  0  0  0  0  0  0  0  0  0  0
    3.6300    6.7621   13.6425 C   0  0  0  0  0  0  0  0  0  0  0  0
    4.0249    8.1899   13.9395 C   0  0  0  0  0  0  0  0  0  0  0  0
    2.7964    9.0290   13.7861 C   0  0  0  0  0  0  0  0  0  0  0  0
    1.6781    8.0381   13.5550 C   0  0  0  0  0  0  0  0  0  0  0  0
    2.3404    6.8671   13.0283 N   0  0  0  0  0  0  0  0  0  0  0  0
    1.7866    5.9849   12.0658 C   0  0  0  0  0  0  0  0  0  0  0  0
    2.4773    4.9963   11.7007 O   0  0  0  0  0  0  0  0  0  0  0  0
    0.5362    6.1925   11.5402 O   0  0  0  0  0  0  0  0  0  0  0  0
   -0.5085    5.2713   11.5674 C   0  0  0  0  0  0  0  0  0  0  0  0
   -1.7623    5.8143   12.1267 C   0  0  0  0  0  0  0  0  0  0  0  0
   -1.7163    6.6565   13.2219 C   0  0  0  0  0  0  0  0  0  0  0  0
   -2.8975    7.1594   13.7169 C   0  0  0  0  0  0  0  0  0  0  0  0
   -4.1162    6.8472   13.1542 C   0  0  0  0  0  0  0  0  0  0  0  0
   -4.1344    5.9994   12.0562 C   0  0  0  0  0  0  0  0  0  0  0  0
   -2.9745    5.4957   11.5565 C   0  0  0  0  0  0  0  0  0  0  0  0
    5.3423    6.2348   18.1507 C   0  0  0  0  0  0  0  0  0  0  0  0
    6.5897    6.4109   17.9994 O   0  0  0  0  0  0  0  0  0  0  0  0
    4.6919    6.8438   19.2176 N   0  0  0  0  0  0  0  0  0  0  0  0
    3.6735    6.7087   19.3759 H   0  0  0  0  0  0  0  0  0  0  0  0
    5.4259    7.7011   20.1537 C   0  0  0  0  0  0  0  0  0  0  0  0
    5.6549    6.9627   21.3878 C   0  0  0  0  0  0  0  0  0  0  0  0
    6.2988    7.5773   22.3330 O   0  0  0  0  0  0  0  0  0  0  0  0
    5.2287    5.5922   21.6670 C   0  0  0  0  0  0  0  0  0  0  0  0
    5.8680    4.4909   21.2958 N   0  0  0  0  0  0  0  0  0  0  0  0
    5.3992    3.3209   21.5384 C   0  0  0  0  0  0  0  0  0  0  0  0
    5.9976    2.0981   21.1823 C   0  0  0  0  0  0  0  0  0  0  0  0
    5.3989    0.9119   21.4891 C   0  0  0  0  0  0  0  0  0  0  0  0
    4.1965    0.8253   22.1529 C   0  0  0  0  0  0  0  0  0  0  0  0
    3.5954    2.0136   22.5108 C   0  0  0  0  0  0  0  0  0  0  0  0
    4.1997    3.2437   22.2025 C   0  0  0  0  0  0  0  0  0  0  0  0
    3.8527    4.8982   22.4206 S   0  0  0  0  0  0  0  0  0  0  0  0
    4.7266    8.9885   20.3416 C   0  0  0  0  0  0  0  0  0  0  0  0
    3.6612    9.2451   19.2604 C   0  0  0  0  0  0  0  0  0  0  0  0
    3.7136   10.6736   18.8025 C   0  0  0  0  0  0  0  0  0  0  0  0
    5.0653   11.0156   18.3649 N   0  0  0  0  0  0  0  0  0  0  0  0
    5.7281   11.5906   18.9135 H   0  0  0  0  0  0  0  0  0  0  0  0
    5.4984   10.5218   17.0910 C   0  0  0  0  0  0  0  0  0  0  0  0
    6.4580    9.4810   16.9910 N   0  0  0  0  0  0  0  0  0  0  0  0
    5.0200   11.0163   15.9960 N   0  0  0  0  0  0  0  0  0  0  0  0
    7.0527    9.2442   17.8055 H   0  0  0  0  0  0  0  0  0  0  0  0
    6.5662    8.9511   16.0996 H   0  0  0  0  0  0  0  0  0  0  0  0
    5.3342   10.6576   15.0683 H   0  0  0  0  0  0  0  0  0  0  0  0
    5.3043    3.9983   17.0120 C   0  0  0  0  0  0  0  0  0  0  0  0
    4.8346    3.0731   18.0833 C   0  0  0  0  0  0  0  0  0  0  0  0
    4.5053    1.6670   17.5856 C   0  0  0  0  0  0  0  0  0  0  0  0
    3.3408    1.2435   18.3765 N   0  0  0  0  0  0  0  0  0  0  0  0
    2.9915    1.7729   19.2048 H   0  0  0  0  0  0  0  0  0  0  0  0
    2.3393   -0.8598   19.0932 N   0  0  0  0  0  0  0  0  0  0  0  0
    2.5997    0.0528   18.0483 C   0  0  0  0  0  0  0  0  0  0  0  0
    2.2129   -0.1431   16.8478 N   0  0  0  0  0  0  0  0  0  0  0  0
    3.0292   -1.1298   19.8229 H   0  0  0  0  0  0  0  0  0  0  0  0
    1.4013   -1.3162   19.1705 H   0  0  0  0  0  0  0  0  0  0  0  0
    1.6861   -0.9594   16.5114 H   0  0  0  0  0  0  0  0  0  0  0  0
 53 54  1  0  0  0
 54 55  2  0  0  0
 54 51  1  0  0  0
 51 50  1  0  0  0
 50 49  1  0  0  0
 49 48  1  0  0  0
 48  1  1  0  0  0
  1  2  1  0  0  0
  2  3  1  0  0  0
  3  4  2  0  0  0
  3  6  1  0  0  0
  6  7  1  0  0  0
  7  8  1  0  0  0
  8  9  1  0  0  0
  9 10  1  0  0  0
 10 11  1  0  0  0
 11 12  2  0  0  0
 11 13  1  0  0  0
 13 14  1  0  0  0
 14 15  1  0  0  0
 15 16  2  0  0  0
 16 17  1  0  0  0
 17 18  2  0  0  0
 18 19  1  0  0  0
 19 20  2  0  0  0
  1 21  1  0  0  0
 21 22  2  0  0  0
 21 23  1  0  0  0
 23 25  1  0  0  0
 25 37  1  0  0  0
 37 38  1  0  0  0
 38 39  1  0  0  0
 39 40  1  0  0  0
 40 42  1  0  0  0
 42 43  1  0  0  0
 42 44  2  0  0  0
 25 26  1  0  0  0
 26 27  2  0  0  0
 26 28  1  0  0  0
 28 29  2  0  0  0
 29 30  1  0  0  0
 30 31  2  0  0  0
 31 32  1  0  0  0
 32 33  2  0  0  0
 33 34  1  0  0  0
 34 35  2  0  0  0
 35 36  1  0  0  0
 10  6  1  0  0  0
 20 15  1  0  0  0
 36 28  1  0  0  0
 35 30  1  0  0  0
 53 56  1  0  0  0
 53 57  1  0  0  0
 55 58  1  0  0  0
 51 52  1  0  0  0
  2  5  1  0  0  0
 23 24  1  0  0  0
 40 41  1  0  0  0
 43 45  1  0  0  0
 43 46  1  0  0  0
 44 47  1  0  0  0
M  END
> <minimizedAffinity>
-8.84248

> <CNNscore>
0.2448830605

> <CNNaffinity>
6.9022779465

> <CNN_VS>
1.6902509928

> <CNNaffinity_variance>
0.4717184007

$$$$
[H]N=C(N([H])[H])N([H])C([H])([H])C([H])([H])C([H])([H])[C@@]([H])(C(=O)c1nc2c([H])c([H])c([H])c([H])c2s1)N([H])C(=O)[C@@]([H])(N([H])C(=O)[C@@]1([H])N(C(=O)OC([H])([H])c2c([H])c([H])c([H])c([H])c2[H])C([H])([H])C([H])([H])C1([H])[H])C([H])([H])C([H])([H])C([H])([H])N([H])C(=N[H])N([H])[H]


 58 61  0  0  0  0  0  0  0  0999 V2000
    5.3576    4.9507   17.7821 C   0  0  0  0  0  0  0  0  0  0  0  0
    4.2282    4.5799   17.0013 N   0  0  0  0  0  0  0  0  0  0  0  0
    3.8680    3.3156   16.5281 C   0  0  0  0  0  0  0  0  0  0  0  0
    4.6080    2.3380   16.8030 O   0  0  0  0  0  0  0  0  0  0  0  0
    3.5669    5.3842   16.7454 H   0  0  0  0  0  0  0  0  0  0  0  0
    2.6446    3.0647   15.7123 C   0  0  0  0  0  0  0  0  0  0  0  0
    2.6654    1.7007   15.0630 C   0  0  0  0  0  0  0  0  0  0  0  0
    2.8443    1.9135   13.5935 C   0  0  0  0  0  0  0  0  0  0  0  0
    3.0813    3.3993   13.4444 C   0  0  0  0  0  0  0  0  0  0  0  0
    2.4768    3.9783   14.6220 N   0  0  0  0  0  0  0  0  0  0  0  0
    1.8318    5.2405   14.6666 C   0  0  0  0  0  0  0  0  0  0  0  0
    1.3535    5.6235   15.7676 O   0  0  0  0  0  0  0  0  0  0  0  0
    1.7252    6.0298   13.5493 O   0  0  0  0  0  0  0  0  0  0  0  0
    1.6235    7.4191   13.5553 C   0  0  0  0  0  0  0  0  0  0  0  0
    2.9286    8.1084   13.5892 C   0  0  0  0  0  0  0  0  0  0  0  0
    4.0098    7.5621   12.9232 C   0  0  0  0  0  0  0  0  0  0  0  0
    5.2123    8.2299   12.9593 C   0  0  0  0  0  0  0  0  0  0  0  0
    5.3661    9.4197   13.6375 C   0  0  0  0  0  0  0  0  0  0  0  0
    4.2654    9.9460   14.2979 C   0  0  0  0  0  0  0  0  0  0  0  0
    3.0710    9.2968   14.2700 C   0  0  0  0  0  0  0  0  0  0  0  0
    5.0259    4.7266   19.2343 C   0  0  0  0  0  0  0  0  0  0  0  0
    3.8703    5.1034   19.5982 O   0  0  0  0  0  0  0  0  0  0  0  0
    5.8814    4.1521   20.1672 N   0  0  0  0  0  0  0  0  0  0  0  0
    6.8386    3.8449   19.9030 H   0  0  0  0  0  0  0  0  0  0  0  0
    5.4556    3.9586   21.5569 C   0  0  0  0  0  0  0  0  0  0  0  0
    5.6271    5.2107   22.2803 C   0  0  0  0  0  0  0  0  0  0  0  0
    4.5540    5.7787   22.7404 O   0  0  0  0  0  0  0  0  0  0  0  0
    6.8942    5.8926   22.5402 C   0  0  0  0  0  0  0  0  0  0  0  0
    8.1024    5.4005   22.3005 N   0  0  0  0  0  0  0  0  0  0  0  0
    9.1694    6.0458   22.6049 C   0  0  0  0  0  0  0  0  0  0  0  0
   10.4905    5.6081   22.3965 C   0  0  0  0  0  0  0  0  0  0  0  0
   11.5497    6.3818   22.7697 C   0  0  0  0  0  0  0  0  0  0  0  0
   11.4085    7.6159   23.3620 C   0  0  0  0  0  0  0  0  0  0  0  0
   10.1210    8.0618   23.5735 C   0  0  0  0  0  0  0  0  0  0  0  0
    9.0194    7.2770   23.1942 C   0  0  0  0  0  0  0  0  0  0  0  0
    7.3199    7.3927   23.2550 S   0  0  0  0  0  0  0  0  0  0  0  0
    6.1584    2.8098   22.1637 C   0  0  0  0  0  0  0  0  0  0  0  0
    5.1910    1.7151   22.6489 C   0  0  0  0  0  0  0  0  0  0  0  0
    3.7684    2.1308   22.4112 C   0  0  0  0  0  0  0  0  0  0  0  0
    2.9932    1.0076   21.8889 N   0  0  0  0  0  0  0  0  0  0  0  0
    2.2499    0.5167   22.4155 H   0  0  0  0  0  0  0  0  0  0  0  0
    3.2847    0.5575   20.5597 C   0  0  0  0  0  0  0  0  0  0  0  0
    2.9377   -0.7501   20.1311 N   0  0  0  0  0  0  0  0  0  0  0  0
    3.8736    1.3392   19.7143 N   0  0  0  0  0  0  0  0  0  0  0  0
    2.7155   -1.4826   20.8292 H   0  0  0  0  0  0  0  0  0  0  0  0
    2.9036   -0.9772   19.1141 H   0  0  0  0  0  0  0  0  0  0  0  0
    4.0861    1.0129   18.7466 H   0  0  0  0  0  0  0  0  0  0  0  0
    5.9350    6.3054   17.5077 C   0  0  0  0  0  0  0  0  0  0  0  0
    7.1208    6.5946   18.3648 C   0  0  0  0  0  0  0  0  0  0  0  0
    6.8685    7.6589   19.4309 C   0  0  0  0  0  0  0  0  0  0  0  0
    5.6361    8.3399   19.0086 N   0  0  0  0  0  0  0  0  0  0  0  0
    5.5365    8.8179   18.0867 H   0  0  0  0  0  0  0  0  0  0  0  0
    3.2180    8.1566   19.2525 N   0  0  0  0  0  0  0  0  0  0  0  0
    4.4728    8.3872   19.8565 C   0  0  0  0  0  0  0  0  0  0  0  0
    4.6046    8.6368   21.1013 N   0  0  0  0  0  0  0  0  0  0  0  0
    2.9303    8.5414   18.3302 H   0  0  0  0  0  0  0  0  0  0  0  0
    2.5031    7.5653   19.7357 H   0  0  0  0  0  0  0  0  0  0  0  0
    3.8407    8.6985   21.7865 H   0  0  0  0  0  0  0  0  0  0  0  0
 53 54  1  0  0  0
 54 55  2  0  0  0
 54 51  1  0  0  0
 51 50  1  0  0  0
 50 49  1  0  0  0
 49 48  1  0  0  0
 48  1  1  0  0  0
  1  2  1  0  0  0
  2  3  1  0  0  0
  3  4  2  0  0  0
  3  6  1  0  0  0
  6  7  1  0  0  0
  7  8  1  0  0  0
  8  9  1  0  0  0
  9 10  1  0  0  0
 10 11  1  0  0  0
 11 12  2  0  0  0
 11 13  1  0  0  0
 13 14  1  0  0  0
 14 15  1  0  0  0
 15 16  2  0  0  0
 16 17  1  0  0  0
 17 18  2  0  0  0
 18 19  1  0  0  0
 19 20  2  0  0  0
  1 21  1  0  0  0
 21 22  2  0  0  0
 21 23  1  0  0  0
 23 25  1  0  0  0
 25 37  1  0  0  0
 37 38  1  0  0  0
 38 39  1  0  0  0
 39 40  1  0  0  0
 40 42  1  0  0  0
 42 43  1  0  0  0
 42 44  2  0  0  0
 25 26  1  0  0  0
 26 27  2  0  0  0
 26 28  1  0  0  0
 28 29  2  0  0  0
 29 30  1  0  0  0
 30 31  2  0  0  0
 31 32  1  0  0  0
 32 33  2  0  0  0
 33 34  1  0  0  0
 34 35  2  0  0  0
 35 36  1  0  0  0
 10  6  1  0  0  0
 20 15  1  0  0  0
 36 28  1  0  0  0
 35 30  1  0  0  0
 53 56  1  0  0  0
 53 57  1  0  0  0
 55 58  1  0  0  0
 51 52  1  0  0  0
  2  5  1  0  0  0
 23 24  1  0  0  0
 40 41  1  0  0  0
 43 45  1  0  0  0
 43 46  1  0  0  0
 44 47  1  0  0  0
M  END
> <minimizedAffinity>
-7.94707

> <CNNscore>
0.2439510375

> <CNNaffinity>
6.9845809937

> <CNN_VS>
1.7038958073

> <CNNaffinity_variance>
0.4880257547

$$$$
[H]N=C(N([H])[H])N([H])C([H])([H])C([H])([H])C([H])([H])[C@@]([H])(C(=O)c1nc2c([H])c([H])c([H])c([H])c2s1)N([H])C(=O)[C@@]([H])(N([H])C(=O)[C@@]1([H])N(C(=O)OC([H])([H])c2c([H])c([H])c([H])c([H])c2[H])C([H])([H])C([H])([H])C1([H])[H])C([H])([H])C([H])([H])C([H])([H])N([H])C(=N[H])N([H])[H]


 58 61  0  0  0  0  0  0  0  0999 V2000
    4.3863    6.1226   16.7762 C   0  0  0  0  0  0  0  0  0  0  0  0
    4.3719    6.9051   15.5887 N   0  0  0  0  0  0  0  0  0  0  0  0
    3.6652    6.6849   14.4036 C   0  0  0  0  0  0  0  0  0  0  0  0
    2.9257    5.6722   14.3246 O   0  0  0  0  0  0  0  0  0  0  0  0
    4.9881    7.7822   15.6131 H   0  0  0  0  0  0  0  0  0  0  0  0
    3.7417    7.5944   13.2238 C   0  0  0  0  0  0  0  0  0  0  0  0
    2.9994    7.0396   12.0305 C   0  0  0  0  0  0  0  0  0  0  0  0
    4.0250    6.6524   11.0132 C   0  0  0  0  0  0  0  0  0  0  0  0
    5.3528    6.8488   11.7091 C   0  0  0  0  0  0  0  0  0  0  0  0
    5.0740    7.8150   12.7464 N   0  0  0  0  0  0  0  0  0  0  0  0
    5.9825    8.8054   13.1992 C   0  0  0  0  0  0  0  0  0  0  0  0
    5.6055    9.5800   14.1187 O   0  0  0  0  0  0  0  0  0  0  0  0
    7.2377    8.9262   12.6584 O   0  0  0  0  0  0  0  0  0  0  0  0
    8.4315    8.7781   13.3608 C   0  0  0  0  0  0  0  0  0  0  0  0
    9.5285    8.2109   12.5516 C   0  0  0  0  0  0  0  0  0  0  0  0
   10.8412    8.4649   12.9024 C   0  0  0  0  0  0  0  0  0  0  0  0
   11.8457    7.9146   12.1398 C   0  0  0  0  0  0  0  0  0  0  0  0
   11.5793    7.1235   11.0432 C   0  0  0  0  0  0  0  0  0  0  0  0
   10.2533    6.8847   10.7126 C   0  0  0  0  0  0  0  0  0  0  0  0
    9.2508    7.4217   11.4579 C   0  0  0  0  0  0  0  0  0  0  0  0
    5.0058    6.9419   17.8780 C   0  0  0  0  0  0  0  0  0  0  0  0
    5.8460    7.8169   17.5059 O   0  0  0  0  0  0  0  0  0  0  0  0
    4.7220    6.8008   19.2314 N   0  0  0  0  0  0  0  0  0  0  0  0
    4.0481    6.0849   19.5688 H   0  0  0  0  0  0  0  0  0  0  0  0
    5.3654    7.6635   20.2272 C   0  0  0  0  0  0  0  0  0  0  0  0
    5.6886    6.8663   21.4021 C   0  0  0  0  0  0  0  0  0  0  0  0
    6.4345    7.4237   22.3071 O   0  0  0  0  0  0  0  0  0  0  0  0
    5.2535    5.4950   21.6630 C   0  0  0  0  0  0  0  0  0  0  0  0
    5.6321    4.4196   20.9851 N   0  0  0  0  0  0  0  0  0  0  0  0
    5.1633    3.2538   21.2469 C   0  0  0  0  0  0  0  0  0  0  0  0
    5.4971    2.0582   20.5841 C   0  0  0  0  0  0  0  0  0  0  0  0
    4.9257    0.8747   20.9480 C   0  0  0  0  0  0  0  0  0  0  0  0
    4.0044    0.7649   21.9644 C   0  0  0  0  0  0  0  0  0  0  0  0
    3.6654    1.9262   22.6261 C   0  0  0  0  0  0  0  0  0  0  0  0
    4.2456    3.1531   22.2635 C   0  0  0  0  0  0  0  0  0  0  0  0
    4.1426    4.7811   22.7579 S   0  0  0  0  0  0  0  0  0  0  0  0
    4.5284    8.8468   20.5123 C   0  0  0  0  0  0  0  0  0  0  0  0
    5.2829   10.1705   20.2925 C   0  0  0  0  0  0  0  0  0  0  0  0
    4.5148   11.0623   19.3608 C   0  0  0  0  0  0  0  0  0  0  0  0
    4.5690   10.5373   17.9981 N   0  0  0  0  0  0  0  0  0  0  0  0
    5.4427   10.2841   17.5048 H   0  0  0  0  0  0  0  0  0  0  0  0
    3.3288   10.3640   17.3009 C   0  0  0  0  0  0  0  0  0  0  0  0
    2.1123   10.8777   17.8210 N   0  0  0  0  0  0  0  0  0  0  0  0
    3.2903    9.7320   16.1733 N   0  0  0  0  0  0  0  0  0  0  0  0
    2.0481   11.1473   18.8192 H   0  0  0  0  0  0  0  0  0  0  0  0
    1.2812   10.9869   17.2009 H   0  0  0  0  0  0  0  0  0  0  0  0
    2.3884    9.6054   15.6648 H   0  0  0  0  0  0  0  0  0  0  0  0
    4.9734    4.7497   16.6560 C   0  0  0  0  0  0  0  0  0  0  0  0
    4.1491    3.7232   17.3570 C   0  0  0  0  0  0  0  0  0  0  0  0
    4.0056    2.4129   16.5852 C   0  0  0  0  0  0  0  0  0  0  0  0
    3.6530    1.4080   17.5984 N   0  0  0  0  0  0  0  0  0  0  0  0
    4.0607    1.3996   18.5587 H   0  0  0  0  0  0  0  0  0  0  0  0
    2.0635    0.3775   16.0648 N   0  0  0  0  0  0  0  0  0  0  0  0
    2.7067    0.3581   17.3212 C   0  0  0  0  0  0  0  0  0  0  0  0
    2.4761   -0.5370   18.2013 N   0  0  0  0  0  0  0  0  0  0  0  0
    1.6996    1.2359   15.6042 H   0  0  0  0  0  0  0  0  0  0  0  0
    1.9241   -0.5119   15.5322 H   0  0  0  0  0  0  0  0  0  0  0  0
    1.8180   -1.3208   18.1039 H   0  0  0  0  0  0  0  0  0  0  0  0
 53 54  1  0  0  0
 54 55  2  0  0  0
 54 51  1  0  0  0
 51 50  1  0  0  0
 50 49  1  0  0  0
 49 48  1  0  0  0
 48  1  1  0  0  0
  1  2  1  0  0  0
  2  3  1  0  0  0
  3  4  2  0  0  0
  3  6  1  0  0  0
  6  7  1  0  0  0
  7  8  1  0  0  0
  8  9  1  0  0  0
  9 10  1  0  0  0
 10 11  1  0  0  0
 11 12  2  0  0  0
 11 13  1  0  0  0
 13 14  1  0  0  0
 14 15  1  0  0  0
 15 16  2  0  0  0
 16 17  1  0  0  0
 17 18  2  0  0  0
 18 19  1  0  0  0
 19 20  2  0  0  0
  1 21  1  0  0  0
 21 22  2  0  0  0
 21 23  1  0  0  0
 23 25  1  0  0  0
 25 37  1  0  0  0
 37 38  1  0  0  0
 38 39  1  0  0  0
 39 40  1  0  0  0
 40 42  1  0  0  0
 42 43  1  0  0  0
 42 44  2  0  0  0
 25 26  1  0  0  0
 26 27  2  0  0  0
 26 28  1  0  0  0
 28 29  2  0  0  0
 29 30  1  0  0  0
 30 31  2  0  0  0
 31 32  1  0  0  0
 32 33  2  0  0  0
 33 34  1  0  0  0
 34 35  2  0  0  0
 35 36  1  0  0  0
 10  6  1  0  0  0
 20 15  1  0  0  0
 36 28  1  0  0  0
 35 30  1  0  0  0
 53 56  1  0  0  0
 53 57  1  0  0  0
 55 58  1  0  0  0
 51 52  1  0  0  0
  2  5  1  0  0  0
 23 24  1  0  0  0
 40 41  1  0  0  0
 43 45  1  0  0  0
 43 46  1  0  0  0
 44 47  1  0  0  0
M  END
> <minimizedAffinity>
-8.76230

> <CNNscore>
0.2379613966

> <CNNaffinity>
6.8047919273

> <CNN_VS>
1.6192778349

> <CNNaffinity_variance>
0.4573569298

$$$$
[H]N=C(N([H])[H])N([H])C([H])([H])C([H])([H])C([H])([H])[C@@]([H])(C(=O)c1nc2c([H])c([H])c([H])c([H])c2s1)N([H])C(=O)[C@@]([H])(N([H])C(=O)[C@@]1([H])N(C(=O)OC([H])([H])c2c([H])c([H])c([H])c([H])c2[H])C([H])([H])C([H])([H])C1([H])[H])C([H])([H])C([H])([H])C([H])([H])N([H])C(=N[H])N([H])[H]


 58 61  0  0  0  0  0  0  0  0999 V2000
    4.3636    6.8551   18.0223 C   0  0  0  0  0  0  0  0  0  0  0  0
    3.6073    5.9122   17.2728 N   0  0  0  0  0  0  0  0  0  0  0  0
    3.1810    5.9895   15.9444 C   0  0  0  0  0  0  0  0  0  0  0  0
    3.4813    7.0099   15.2756 O   0  0  0  0  0  0  0  0  0  0  0  0
    3.3311    5.0232   17.8047 H   0  0  0  0  0  0  0  0  0  0  0  0
    2.3866    4.9185   15.2760 C   0  0  0  0  0  0  0  0  0  0  0  0
    3.0023    3.5521   15.4673 C   0  0  0  0  0  0  0  0  0  0  0  0
    3.5374    3.1188   14.1396 C   0  0  0  0  0  0  0  0  0  0  0  0
    3.3562    4.3200   13.2394 C   0  0  0  0  0  0  0  0  0  0  0  0
    2.2867    5.0710   13.8553 N   0  0  0  0  0  0  0  0  0  0  0  0
    1.3136    5.8250   13.1511 C   0  0  0  0  0  0  0  0  0  0  0  0
    0.4394    6.4376   13.8206 O   0  0  0  0  0  0  0  0  0  0  0  0
    1.3141    5.8920   11.7806 O   0  0  0  0  0  0  0  0  0  0  0  0
    0.9071    6.9935   11.0312 C   0  0  0  0  0  0  0  0  0  0  0  0
    1.6303    7.1397    9.7523 C   0  0  0  0  0  0  0  0  0  0  0  0
    1.4708    6.1884    8.7621 C   0  0  0  0  0  0  0  0  0  0  0  0
    2.1458    6.3536    7.5744 C   0  0  0  0  0  0  0  0  0  0  0  0
    2.9710    7.4340    7.3483 C   0  0  0  0  0  0  0  0  0  0  0  0
    3.1138    8.3738    8.3587 C   0  0  0  0  0  0  0  0  0  0  0  0
    2.4522    8.2232    9.5371 C   0  0  0  0  0  0  0  0  0  0  0  0
    5.2324    6.1018   18.9953 C   0  0  0  0  0  0  0  0  0  0  0  0
    6.4186    5.8716   18.6083 O   0  0  0  0  0  0  0  0  0  0  0  0
    4.8256    5.6586   20.2484 N   0  0  0  0  0  0  0  0  0  0  0  0
    3.8569    5.8204   20.5888 H   0  0  0  0  0  0  0  0  0  0  0  0
    5.7560    4.9492   21.1322 C   0  0  0  0  0  0  0  0  0  0  0  0
    5.1009    3.7531   21.6428 C   0  0  0  0  0  0  0  0  0  0  0  0
    5.0109    3.6340   22.9326 O   0  0  0  0  0  0  0  0  0  0  0  0
    4.5326    2.6699   20.8418 C   0  0  0  0  0  0  0  0  0  0  0  0
    4.6102    2.5588   19.5223 N   0  0  0  0  0  0  0  0  0  0  0  0
    4.0390    1.5999   18.8884 C   0  0  0  0  0  0  0  0  0  0  0  0
    4.0588    1.3996   17.4957 C   0  0  0  0  0  0  0  0  0  0  0  0
    3.4059    0.3429   16.9326 C   0  0  0  0  0  0  0  0  0  0  0  0
    2.6980   -0.5817   17.6660 C   0  0  0  0  0  0  0  0  0  0  0  0
    2.6681   -0.4020   19.0328 C   0  0  0  0  0  0  0  0  0  0  0  0
    3.3360    0.6810   19.6280 C   0  0  0  0  0  0  0  0  0  0  0  0
    3.5691    1.2966   21.2003 S   0  0  0  0  0  0  0  0  0  0  0  0
    6.2693    5.8515   22.1831 C   0  0  0  0  0  0  0  0  0  0  0  0
    7.6726    6.3959   21.8602 C   0  0  0  0  0  0  0  0  0  0  0  0
    8.1631    7.2729   22.9752 C   0  0  0  0  0  0  0  0  0  0  0  0
    7.1178    7.4441   23.9819 N   0  0  0  0  0  0  0  0  0  0  0  0
    6.2217    6.9265   23.9863 H   0  0  0  0  0  0  0  0  0  0  0  0
    7.3512    8.3930   25.0304 C   0  0  0  0  0  0  0  0  0  0  0  0
    8.4894    8.2962   25.8727 N   0  0  0  0  0  0  0  0  0  0  0  0
    6.5245    9.3665   25.2334 N   0  0  0  0  0  0  0  0  0  0  0  0
    9.0223    7.4093   25.9242 H   0  0  0  0  0  0  0  0  0  0  0  0
    8.7936    9.1164   26.4400 H   0  0  0  0  0  0  0  0  0  0  0  0
    6.6934   10.0578   25.9960 H   0  0  0  0  0  0  0  0  0  0  0  0
    3.5888    7.9685   18.6577 C   0  0  0  0  0  0  0  0  0  0  0  0
    4.0516    9.3092   18.1964 C   0  0  0  0  0  0  0  0  0  0  0  0
    4.3920   10.2709   19.3333 C   0  0  0  0  0  0  0  0  0  0  0  0
    5.4997    9.6312   20.0576 N   0  0  0  0  0  0  0  0  0  0  0  0
    6.3410    9.2392   19.5812 H   0  0  0  0  0  0  0  0  0  0  0  0
    6.4033   10.2987   22.2206 N   0  0  0  0  0  0  0  0  0  0  0  0
    5.4896    9.5065   21.4925 C   0  0  0  0  0  0  0  0  0  0  0  0
    4.6776    8.6971   22.0534 N   0  0  0  0  0  0  0  0  0  0  0  0
    7.3923   10.4605   21.9425 H   0  0  0  0  0  0  0  0  0  0  0  0
    6.1023   10.7694   23.1049 H   0  0  0  0  0  0  0  0  0  0  0  0
    4.5963    8.5312   23.0647 H   0  0  0  0  0  0  0  0  0  0  0  0
 53 54  1  0  0  0
 54 55  2  0  0  0
 54 51  1  0  0  0
 51 50  1  0  0  0
 50 49  1  0  0  0
 49 48  1  0  0  0
 48  1  1  0  0  0
  1  2  1  0  0  0
  2  3  1  0  0  0
  3  4  2  0  0  0
  3  6  1  0  0  0
  6  7  1  0  0  0
  7  8  1  0  0  0
  8  9  1  0  0  0
  9 10  1  0  0  0
 10 11  1  0  0  0
 11 12  2  0  0  0
 11 13  1  0  0  0
 13 14  1  0  0  0
 14 15  1  0  0  0
 15 16  2  0  0  0
 16 17  1  0  0  0
 17 18  2  0  0  0
 18 19  1  0  0  0
 19 20  2  0  0  0
  1 21  1  0  0  0
 21 22  2  0  0  0
 21 23  1  0  0  0
 23 25  1  0  0  0
 25 37  1  0  0  0
 37 38  1  0  0  0
 38 39  1  0  0  0
 39 40  1  0  0  0
 40 42  1  0  0  0
 42 43  1  0  0  0
 42 44  2  0  0  0
 25 26  1  0  0  0
 26 27  2  0  0  0
 26 28  1  0  0  0
 28 29  2  0  0  0
 29 30  1  0  0  0
 30 31  2  0  0  0
 31 32  1  0  0  0
 32 33  2  0  0  0
 33 34  1  0  0  0
 34 35  2  0  0  0
 35 36  1  0  0  0
 10  6  1  0  0  0
 20 15  1  0  0  0
 36 28  1  0  0  0
 35 30  1  0  0  0
 53 56  1  0  0  0
 53 57  1  0  0  0
 55 58  1  0  0  0
 51 52  1  0  0  0
  2  5  1  0  0  0
 23 24  1  0  0  0
 40 41  1  0  0  0
 43 45  1  0  0  0
 43 46  1  0  0  0
 44 47  1  0  0  0
M  END
> <minimizedAffinity>
-8.35132

> <CNNscore>
0.2368334234

> <CNNaffinity>
7.1342673302

> <CNN_VS>
1.6896330118

> <CNNaffinity_variance>
0.2907316089

$$$$
[H]N=C(N([H])[H])N([H])C([H])([H])C([H])([H])C([H])([H])[C@@]([H])(C(=O)c1nc2c([H])c([H])c([H])c([H])c2s1)N([H])C(=O)[C@@]([H])(N([H])C(=O)[C@@]1([H])N(C(=O)OC([H])([H])c2c([H])c([H])c([H])c([H])c2[H])C([H])([H])C([H])([H])C1([H])[H])C([H])([H])C([H])([H])C([H])([H])N([H])C(=N[H])N([H])[H]


 58 61  0  0  0  0  0  0  0  0999 V2000
    4.4383    4.4043   16.8497 C   0  0  0  0  0  0  0  0  0  0  0  0
    4.2671    5.0535   15.5959 N   0  0  0  0  0  0  0  0  0  0  0  0
    3.0808    5.3852   14.9365 C   0  0  0  0  0  0  0  0  0  0  0  0
    1.9878    5.0933   15.4833 O   0  0  0  0  0  0  0  0  0  0  0  0
    5.1756    5.3236   15.0945 H   0  0  0  0  0  0  0  0  0  0  0  0
    3.0444    6.0723   13.6130 C   0  0  0  0  0  0  0  0  0  0  0  0
    3.7505    7.4075   13.6472 C   0  0  0  0  0  0  0  0  0  0  0  0
    2.7007    8.4657   13.5254 C   0  0  0  0  0  0  0  0  0  0  0  0
    1.3886    7.7165   13.5812 C   0  0  0  0  0  0  0  0  0  0  0  0
    1.7224    6.3774   13.1537 N   0  0  0  0  0  0  0  0  0  0  0  0
    0.8684    5.5270   12.4062 C   0  0  0  0  0  0  0  0  0  0  0  0
    1.2898    4.3778   12.1072 O   0  0  0  0  0  0  0  0  0  0  0  0
   -0.3820    5.9337   12.0140 O   0  0  0  0  0  0  0  0  0  0  0  0
   -1.5726    5.2822   12.3280 C   0  0  0  0  0  0  0  0  0  0  0  0
   -2.6746    5.5782   11.3913 C   0  0  0  0  0  0  0  0  0  0  0  0
   -3.9487    5.7996   11.8798 C   0  0  0  0  0  0  0  0  0  0  0  0
   -4.9563    6.0860   10.9876 C   0  0  0  0  0  0  0  0  0  0  0  0
   -4.7304    6.1567    9.6299 C   0  0  0  0  0  0  0  0  0  0  0  0
   -3.4428    5.9299    9.1659 C   0  0  0  0  0  0  0  0  0  0  0  0
   -2.4376    5.6464   10.0366 C   0  0  0  0  0  0  0  0  0  0  0  0
    5.4633    5.1694   17.6452 C   0  0  0  0  0  0  0  0  0  0  0  0
    6.6702    5.0017   17.2915 O   0  0  0  0  0  0  0  0  0  0  0  0
    5.1755    6.0183   18.7077 N   0  0  0  0  0  0  0  0  0  0  0  0
    4.1983    6.1666   19.0293 H   0  0  0  0  0  0  0  0  0  0  0  0
    6.2464    6.7352   19.4070 C   0  0  0  0  0  0  0  0  0  0  0  0
    6.4477    6.1232   20.7130 C   0  0  0  0  0  0  0  0  0  0  0  0
    7.3187    6.6804   21.4984 O   0  0  0  0  0  0  0  0  0  0  0  0
    5.7622    4.9388   21.2276 C   0  0  0  0  0  0  0  0  0  0  0  0
    5.7449    3.7429   20.6540 N   0  0  0  0  0  0  0  0  0  0  0  0
    5.0753    2.7648   21.1465 C   0  0  0  0  0  0  0  0  0  0  0  0
    4.9902    1.4661   20.6115 C   0  0  0  0  0  0  0  0  0  0  0  0
    4.2379    0.5067   21.2226 C   0  0  0  0  0  0  0  0  0  0  0  0
    3.5250    0.7320   22.3780 C   0  0  0  0  0  0  0  0  0  0  0  0
    3.5971    1.9989   22.9175 C   0  0  0  0  0  0  0  0  0  0  0  0
    4.3681    2.9978   22.3003 C   0  0  0  0  0  0  0  0  0  0  0  0
    4.7425    4.6381   22.5739 S   0  0  0  0  0  0  0  0  0  0  0  0
    5.9598    8.1834   19.4569 C   0  0  0  0  0  0  0  0  0  0  0  0
    4.6061    8.4950   20.1204 C   0  0  0  0  0  0  0  0  0  0  0  0
    3.8454    9.5032   19.3093 C   0  0  0  0  0  0  0  0  0  0  0  0
    3.5754    8.9779   17.9727 N   0  0  0  0  0  0  0  0  0  0  0  0
    3.2977    8.0008   17.7750 H   0  0  0  0  0  0  0  0  0  0  0  0
    3.7056    9.8772   16.8643 C   0  0  0  0  0  0  0  0  0  0  0  0
    4.9383   10.0273   16.1772 N   0  0  0  0  0  0  0  0  0  0  0  0
    2.6950   10.5764   16.4617 N   0  0  0  0  0  0  0  0  0  0  0  0
    5.8190    9.7028   16.6156 H   0  0  0  0  0  0  0  0  0  0  0  0
    4.9614   10.4621   15.2298 H   0  0  0  0  0  0  0  0  0  0  0  0
    2.7884   11.2311   15.6550 H   0  0  0  0  0  0  0  0  0  0  0  0
    4.7046    2.9310   16.8002 C   0  0  0  0  0  0  0  0  0  0  0  0
    3.5172    2.1314   17.2186 C   0  0  0  0  0  0  0  0  0  0  0  0
    3.1936    0.9685   16.2826 C   0  0  0  0  0  0  0  0  0  0  0  0
    1.9525    1.3604   15.5993 N   0  0  0  0  0  0  0  0  0  0  0  0
    1.0115    1.2948   16.0451 H   0  0  0  0  0  0  0  0  0  0  0  0
    0.7685    1.7573   13.5062 N   0  0  0  0  0  0  0  0  0  0  0  0
    1.9622    1.8680   14.2514 C   0  0  0  0  0  0  0  0  0  0  0  0
    3.0273    2.3865   13.7764 N   0  0  0  0  0  0  0  0  0  0  0  0
    0.1524    0.9195   13.5047 H   0  0  0  0  0  0  0  0  0  0  0  0
    0.4507    2.5500   12.9023 H   0  0  0  0  0  0  0  0  0  0  0  0
    3.1387    2.7700   12.8290 H   0  0  0  0  0  0  0  0  0  0  0  0
 53 54  1  0  0  0
 54 55  2  0  0  0
 54 51  1  0  0  0
 51 50  1  0  0  0
 50 49  1  0  0  0
 49 48  1  0  0  0
 48  1  1  0  0  0
  1  2  1  0  0  0
  2  3  1  0  0  0
  3  4  2  0  0  0
  3  6  1  0  0  0
  6  7  1  0  0  0
  7  8  1  0  0  0
  8  9  1  0  0  0
  9 10  1  0  0  0
 10 11  1  0  0  0
 11 12  2  0  0  0
 11 13  1  0  0  0
 13 14  1  0  0  0
 14 15  1  0  0  0
 15 16  2  0  0  0
 16 17  1  0  0  0
 17 18  2  0  0  0
 18 19  1  0  0  0
 19 20  2  0  0  0
  1 21  1  0  0  0
 21 22  2  0  0  0
 21 23  1  0  0  0
 23 25  1  0  0  0
 25 37  1  0  0  0
 37 38  1  0  0  0
 38 39  1  0  0  0
 39 40  1  0  0  0
 40 42  1  0  0  0
 42 43  1  0  0  0
 42 44  2  0  0  0
 25 26  1  0  0  0
 26 27  2  0  0  0
 26 28  1  0  0  0
 28 29  2  0  0  0
 29 30  1  0  0  0
 30 31  2  0  0  0
 31 32  1  0  0  0
 32 33  2  0  0  0
 33 34  1  0  0  0
 34 35  2  0  0  0
 35 36  1  0  0  0
 10  6  1  0  0  0
 20 15  1  0  0  0
 36 28  1  0  0  0
 35 30  1  0  0  0
 53 56  1  0  0  0
 53 57  1  0  0  0
 55 58  1  0  0  0
 51 52  1  0  0  0
  2  5  1  0  0  0
 23 24  1  0  0  0
 40 41  1  0  0  0
 43 45  1  0  0  0
 43 46  1  0  0  0
 44 47  1  0  0  0
M  END
> <minimizedAffinity>
-8.54350

> <CNNscore>
0.2144146711

> <CNNaffinity>
6.9081368446

> <CNN_VS>
1.4812059402

> <CNNaffinity_variance>
0.5697996616

$$$$
[H]c1c([H])c(S(=O)(=O)N([H])C(=O)N2C([H])([H])C([H])([H])N(c3c([H])c([H])c([N+](=O)[O-])c([H])c3[H])C([H])([H])C2([H])[H])c([H])c([H])c1Cl


 29 31  0  0  0  0  0  0  0  0999 V2000
    3.4035    3.1981   14.0297 N   0  0  0  0  0  0  0  0  0  0  0  0
    2.6721    2.6800   12.8929 C   0  0  0  0  0  0  0  0  0  0  0  0
    3.0686    3.4898   11.6598 C   0  0  0  0  0  0  0  0  0  0  0  0
    2.9095    4.8947   11.8834 N   0  0  0  0  0  0  0  0  0  0  0  0
    3.3587    5.4402   13.1467 C   0  0  0  0  0  0  0  0  0  0  0  0
    4.1601    4.4148   13.9182 C   0  0  0  0  0  0  0  0  0  0  0  0
    2.3439    5.7570   10.9446 C   0  0  0  0  0  0  0  0  0  0  0  0
    2.2447    7.0067   11.2533 O   0  0  0  0  0  0  0  0  0  0  0  0
    1.8874    5.3028    9.6914 N   0  0  0  0  0  0  0  0  0  0  0  0
    1.9724    4.3115    9.4419 H   0  0  0  0  0  0  0  0  0  0  0  0
    3.3381    1.1747   17.6891 C   0  0  0  0  0  0  0  0  0  0  0  0
    2.5963    0.7043   16.6365 C   0  0  0  0  0  0  0  0  0  0  0  0
    2.6017    1.3696   15.4067 C   0  0  0  0  0  0  0  0  0  0  0  0
    3.3495    2.4984   15.2444 C   0  0  0  0  0  0  0  0  0  0  0  0
    4.0941    2.9567   16.3292 C   0  0  0  0  0  0  0  0  0  0  0  0
    4.1020    2.3160   17.5474 C   0  0  0  0  0  0  0  0  0  0  0  0
    2.5116   -0.5554   19.1437 O   0  0  0  0  0  0  0  0  0  0  0  0
    3.3328    0.5029   18.9212 N   0  0  0  0  0  0  0  0  0  0  0  0
    4.0948    0.8830   19.8287 O   0  0  0  0  0  0  0  0  0  0  0  0
    1.1752    6.3594    8.5178 S   0  0  0  0  0  0  0  0  0  0  0  0
    0.0049    7.1110    9.0780 O   0  0  0  0  0  0  0  0  0  0  0  0
    0.6601    5.4731    7.3979 O   0  0  0  0  0  0  0  0  0  0  0  0
    2.4266    7.4225    7.9278 C   0  0  0  0  0  0  0  0  0  0  0  0
    2.3459    8.7932    8.0721 C   0  0  0  0  0  0  0  0  0  0  0  0
    3.3279    9.6407    7.6194 C   0  0  0  0  0  0  0  0  0  0  0  0
    4.4543    9.1427    6.9909 C   0  0  0  0  0  0  0  0  0  0  0  0
    5.7144   10.2386    6.4095 Cl  0  0  0  0  0  0  0  0  0  0  0  0
    4.5537    7.7840    6.8377 C   0  0  0  0  0  0  0  0  0  0  0  0
    3.5683    6.9485    7.2929 C   0  0  0  0  0  0  0  0  0  0  0  0
 17 18  1  0  0  0
 18 19  2  0  0  0
 18 11  1  0  0  0
 11 12  2  0  0  0
 12 13  1  0  0  0
 13 14  2  0  0  0
 14 15  1  0  0  0
 15 16  2  0  0  0
 14  1  1  0  0  0
  1  2  1  0  0  0
  2  3  1  0  0  0
  3  4  1  0  0  0
  4  5  1  0  0  0
  5  6  1  0  0  0
  4  7  1  0  0  0
  7  8  2  0  0  0
  7  9  1  0  0  0
  9 20  1  0  0  0
 20 21  2  0  0  0
 20 22  2  0  0  0
 20 23  1  0  0  0
 23 24  2  0  0  0
 24 25  1  0  0  0
 25 26  2  0  0  0
 26 27  1  0  0  0
 26 28  1  0  0  0
 28 29  2  0  0  0
 16 11  1  0  0  0
  6  1  1  0  0  0
 29 23  1  0  0  0
  9 10  1  0  0  0
M  CHG 1  17  -1
M  CHG 1  18   1
M  END
> <minimizedAffinity>
-6.82046

> <CNNscore>
0.4099588096

> <CNNaffinity>
5.4445443153

> <CNN_VS>
2.2320389748

> <CNNaffinity_variance>
0.1230457202

$$$$
[H]c1c([H])c(S(=O)(=O)N([H])C(=O)N2C([H])([H])C([H])([H])N(c3c([H])c([H])c([N+](=O)[O-])c([H])c3[H])C([H])([H])C2([H])[H])c([H])c([H])c1Cl


 29 31  0  0  0  0  0  0  0  0999 V2000
    4.4286    7.7559    7.4494 N   0  0  0  0  0  0  0  0  0  0  0  0
    4.6990    6.6909    8.3920 C   0  0  0  0  0  0  0  0  0  0  0  0
    3.3712    6.2394    8.9973 C   0  0  0  0  0  0  0  0  0  0  0  0
    2.6400    7.3449    9.5377 N   0  0  0  0  0  0  0  0  0  0  0  0
    2.5780    8.5664    8.7636 C   0  0  0  0  0  0  0  0  0  0  0  0
    3.1201    8.3446    7.3687 C   0  0  0  0  0  0  0  0  0  0  0  0
    1.9884    7.2989   10.7699 C   0  0  0  0  0  0  0  0  0  0  0  0
    1.3620    8.3572   11.1630 O   0  0  0  0  0  0  0  0  0  0  0  0
    1.9991    6.1455   11.5790 N   0  0  0  0  0  0  0  0  0  0  0  0
    2.4901    5.3016   11.2645 H   0  0  0  0  0  0  0  0  0  0  0  0
    7.4819    9.2222    4.9966 C   0  0  0  0  0  0  0  0  0  0  0  0
    7.3273    7.8696    5.1582 C   0  0  0  0  0  0  0  0  0  0  0  0
    6.3153    7.3605    5.9777 C   0  0  0  0  0  0  0  0  0  0  0  0
    5.4695    8.2109    6.6264 C   0  0  0  0  0  0  0  0  0  0  0  0
    5.6475    9.5811    6.4466 C   0  0  0  0  0  0  0  0  0  0  0  0
    6.6374   10.1017    5.6443 C   0  0  0  0  0  0  0  0  0  0  0  0
    9.7893    9.7695    4.5859 O   0  0  0  0  0  0  0  0  0  0  0  0
    8.4969    9.7300    4.1711 N   0  0  0  0  0  0  0  0  0  0  0  0
    8.2088   10.1527    3.0367 O   0  0  0  0  0  0  0  0  0  0  0  0
    1.2018    6.0748   13.1153 S   0  0  0  0  0  0  0  0  0  0  0  0
    1.6486    7.1765   14.0293 O   0  0  0  0  0  0  0  0  0  0  0  0
    1.6076    4.7568   13.7501 O   0  0  0  0  0  0  0  0  0  0  0  0
   -0.5184    6.1084   12.8259 C   0  0  0  0  0  0  0  0  0  0  0  0
   -1.1057    5.3464   11.8357 C   0  0  0  0  0  0  0  0  0  0  0  0
   -2.4596    5.3575   11.6028 C   0  0  0  0  0  0  0  0  0  0  0  0
   -3.2997    6.1472   12.3661 C   0  0  0  0  0  0  0  0  0  0  0  0
   -5.0415    6.1580   12.0611 Cl  0  0  0  0  0  0  0  0  0  0  0  0
   -2.7363    6.9115   13.3549 C   0  0  0  0  0  0  0  0  0  0  0  0
   -1.3850    6.8926   13.5779 C   0  0  0  0  0  0  0  0  0  0  0  0
 17 18  1  0  0  0
 18 19  2  0  0  0
 18 11  1  0  0  0
 11 12  2  0  0  0
 12 13  1  0  0  0
 13 14  2  0  0  0
 14 15  1  0  0  0
 15 16  2  0  0  0
 14  1  1  0  0  0
  1  2  1  0  0  0
  2  3  1  0  0  0
  3  4  1  0  0  0
  4  5  1  0  0  0
  5  6  1  0  0  0
  4  7  1  0  0  0
  7  8  2  0  0  0
  7  9  1  0  0  0
  9 20  1  0  0  0
 20 21  2  0  0  0
 20 22  2  0  0  0
 20 23  1  0  0  0
 23 24  2  0  0  0
 24 25  1  0  0  0
 25 26  2  0  0  0
 26 27  1  0  0  0
 26 28  1  0  0  0
 28 29  2  0  0  0
 16 11  1  0  0  0
  6  1  1  0  0  0
 29 23  1  0  0  0
  9 10  1  0  0  0
M  CHG 1  17  -1
M  CHG 1  18   1
M  END
> <minimizedAffinity>
-7.13538

> <CNNscore>
0.4011341929

> <CNNaffinity>
4.6421356201

> <CNN_VS>
1.8621193171

> <CNNaffinity_variance>
0.3192141056

$$$$
[H]c1c([H])c(S(=O)(=O)N([H])C(=O)N2C([H])([H])C([H])([H])N(c3c([H])c([H])c([N+](=O)[O-])c([H])c3[H])C([H])([H])C2([H])[H])c([H])c([H])c1Cl


 29 31  0  0  0  0  0  0  0  0999 V2000
    3.6993    4.9596   13.6474 N   0  0  0  0  0  0  0  0  0  0  0  0
    4.0329    4.6504   12.2730 C   0  0  0  0  0  0  0  0  0  0  0  0
    4.3164    5.9620   11.5431 C   0  0  0  0  0  0  0  0  0  0  0  0
    3.2404    6.8924   11.7025 N   0  0  0  0  0  0  0  0  0  0  0  0
    2.6511    7.0362   13.0167 C   0  0  0  0  0  0  0  0  0  0  0  0
    3.4827    6.3196   14.0579 C   0  0  0  0  0  0  0  0  0  0  0  0
    2.7364    7.6623   10.6545 C   0  0  0  0  0  0  0  0  0  0  0  0
    1.7597    8.4670   10.9101 O   0  0  0  0  0  0  0  0  0  0  0  0
    3.2596    7.5822    9.3488 N   0  0  0  0  0  0  0  0  0  0  0  0
    4.0405    6.9487    9.1460 H   0  0  0  0  0  0  0  0  0  0  0  0
    3.2619    1.7684   16.3147 C   0  0  0  0  0  0  0  0  0  0  0  0
    3.8736    2.9236   16.7280 C   0  0  0  0  0  0  0  0  0  0  0  0
    4.0331    3.9996   15.8495 C   0  0  0  0  0  0  0  0  0  0  0  0
    3.5787    3.9072   14.5671 C   0  0  0  0  0  0  0  0  0  0  0  0
    2.9612    2.7226   14.1710 C   0  0  0  0  0  0  0  0  0  0  0  0
    2.7947    1.6526   15.0206 C   0  0  0  0  0  0  0  0  0  0  0  0
    3.6304    0.7206   18.4497 O   0  0  0  0  0  0  0  0  0  0  0  0
    3.1007    0.6913   17.1997 N   0  0  0  0  0  0  0  0  0  0  0  0
    2.4602   -0.3109   16.8337 O   0  0  0  0  0  0  0  0  0  0  0  0
    2.6396    8.5253    8.0346 S   0  0  0  0  0  0  0  0  0  0  0  0
    1.9150    9.7471    8.5151 O   0  0  0  0  0  0  0  0  0  0  0  0
    1.6334    7.6473    7.3124 O   0  0  0  0  0  0  0  0  0  0  0  0
    3.9748    8.9161    6.9817 C   0  0  0  0  0  0  0  0  0  0  0  0
    4.1188    8.3306    5.7397 C   0  0  0  0  0  0  0  0  0  0  0  0
    5.1607    8.6354    4.8977 C   0  0  0  0  0  0  0  0  0  0  0  0
    6.1216    9.5573    5.2704 C   0  0  0  0  0  0  0  0  0  0  0  0
    7.4610    9.9448    4.1828 Cl  0  0  0  0  0  0  0  0  0  0  0  0
    5.9968   10.1503    6.5000 C   0  0  0  0  0  0  0  0  0  0  0  0
    4.9537    9.8385    7.3313 C   0  0  0  0  0  0  0  0  0  0  0  0
 17 18  1  0  0  0
 18 19  2  0  0  0
 18 11  1  0  0  0
 11 12  2  0  0  0
 12 13  1  0  0  0
 13 14  2  0  0  0
 14 15  1  0  0  0
 15 16  2  0  0  0
 14  1  1  0  0  0
  1  2  1  0  0  0
  2  3  1  0  0  0
  3  4  1  0  0  0
  4  5  1  0  0  0
  5  6  1  0  0  0
  4  7  1  0  0  0
  7  8  2  0  0  0
  7  9  1  0  0  0
  9 20  1  0  0  0
 20 21  2  0  0  0
 20 22  2  0  0  0
 20 23  1  0  0  0
 23 24  2  0  0  0
 24 25  1  0  0  0
 25 26  2  0  0  0
 26 27  1  0  0  0
 26 28  1  0  0  0
 28 29  2  0  0  0
 16 11  1  0  0  0
  6  1  1  0  0  0
 29 23  1  0  0  0
  9 10  1  0  0  0
M  CHG 1  17  -1
M  CHG 1  18   1
M  END
> <minimizedAffinity>
-8.19608

> <CNNscore>
0.3719048500

> <CNNaffinity>
4.9649314880

> <CNN_VS>
1.8464821577

> <CNNaffinity_variance>
0.1329219341

$$$$
[H]c1c([H])c(S(=O)(=O)N([H])C(=O)N2C([H])([H])C([H])([H])N(c3c([H])c([H])c([N+](=O)[O-])c([H])c3[H])C([H])([H])C2([H])[H])c([H])c([H])c1Cl


 29 31  0  0  0  0  0  0  0  0999 V2000
    2.7374    4.6930   12.7745 N   0  0  0  0  0  0  0  0  0  0  0  0
    3.7141    5.7607   12.7288 C   0  0  0  0  0  0  0  0  0  0  0  0
    3.2464    6.7929   11.7045 C   0  0  0  0  0  0  0  0  0  0  0  0
    2.9658    6.1845   10.4396 N   0  0  0  0  0  0  0  0  0  0  0  0
    2.2347    4.9353   10.4299 C   0  0  0  0  0  0  0  0  0  0  0  0
    1.6798    4.6288   11.8037 C   0  0  0  0  0  0  0  0  0  0  0  0
    3.3630    6.7375    9.2225 C   0  0  0  0  0  0  0  0  0  0  0  0
    3.0604    6.1008    8.1409 O   0  0  0  0  0  0  0  0  0  0  0  0
    4.0736    7.9520    9.1492 N   0  0  0  0  0  0  0  0  0  0  0  0
    4.3081    8.4628   10.0073 H   0  0  0  0  0  0  0  0  0  0  0  0
    3.1730    1.8351   15.7964 C   0  0  0  0  0  0  0  0  0  0  0  0
    2.2910    1.6137   14.7705 C   0  0  0  0  0  0  0  0  0  0  0  0
    2.1282    2.5594   13.7536 C   0  0  0  0  0  0  0  0  0  0  0  0
    2.8499    3.7162   13.7751 C   0  0  0  0  0  0  0  0  0  0  0  0
    3.7391    3.9181   14.8285 C   0  0  0  0  0  0  0  0  0  0  0  0
    3.9136    2.9996   15.8387 C   0  0  0  0  0  0  0  0  0  0  0  0
    2.5478   -0.2210   16.8797 O   0  0  0  0  0  0  0  0  0  0  0  0
    3.3362    0.8826   16.8141 N   0  0  0  0  0  0  0  0  0  0  0  0
    4.2201    1.0509   17.6737 O   0  0  0  0  0  0  0  0  0  0  0  0
    4.5813    8.6480    7.6463 S   0  0  0  0  0  0  0  0  0  0  0  0
    5.5481    7.7632    6.9177 O   0  0  0  0  0  0  0  0  0  0  0  0
    5.3065    9.9361    7.9922 O   0  0  0  0  0  0  0  0  0  0  0  0
    3.1518    8.9867    6.7051 C   0  0  0  0  0  0  0  0  0  0  0  0
    2.9554    8.4357    5.4545 C   0  0  0  0  0  0  0  0  0  0  0  0
    1.8308    8.6877    4.7067 C   0  0  0  0  0  0  0  0  0  0  0  0
    0.8355    9.5181    5.1882 C   0  0  0  0  0  0  0  0  0  0  0  0
   -0.6092    9.8394    4.2206 Cl  0  0  0  0  0  0  0  0  0  0  0  0
    1.0112   10.0753    6.4283 C   0  0  0  0  0  0  0  0  0  0  0  0
    2.1367    9.8170    7.1650 C   0  0  0  0  0  0  0  0  0  0  0  0
 17 18  1  0  0  0
 18 19  2  0  0  0
 18 11  1  0  0  0
 11 12  2  0  0  0
 12 13  1  0  0  0
 13 14  2  0  0  0
 14 15  1  0  0  0
 15 16  2  0  0  0
 14  1  1  0  0  0
  1  2  1  0  0  0
  2  3  1  0  0  0
  3  4  1  0  0  0
  4  5  1  0  0  0
  5  6  1  0  0  0
  4  7  1  0  0  0
  7  8  2  0  0  0
  7  9  1  0  0  0
  9 20  1  0  0  0
 20 21  2  0  0  0
 20 22  2  0  0  0
 20 23  1  0  0  0
 23 24  2  0  0  0
 24 25  1  0  0  0
 25 26  2  0  0  0
 26 27  1  0  0  0
 26 28  1  0  0  0
 28 29  2  0  0  0
 16 11  1  0  0  0
  6  1  1  0  0  0
 29 23  1  0  0  0
  9 10  1  0  0  0
M  CHG 1  17  -1
M  CHG 1  18   1
M  END
> <minimizedAffinity>
-6.80791

> <CNNscore>
0.3175470531

> <CNNaffinity>
4.8326287270

> <CNN_VS>
1.5345870256

> <CNNaffinity_variance>
0.1010013819

$$$$
[H]c1c([H])c(S(=O)(=O)N([H])C(=O)N2C([H])([H])C([H])([H])N(c3c([H])c([H])c([N+](=O)[O-])c([H])c3[H])C([H])([H])C2([H])[H])c([H])c([H])c1Cl


 29 31  0  0  0  0  0  0  0  0999 V2000
    1.9940    4.9139   12.2799 N   0  0  0  0  0  0  0  0  0  0  0  0
    1.9303    6.3600   12.2531 C   0  0  0  0  0  0  0  0  0  0  0  0
    1.0624    6.7785   11.0677 C   0  0  0  0  0  0  0  0  0  0  0  0
    1.5149    6.1771    9.8502 N   0  0  0  0  0  0  0  0  0  0  0  0
    1.8854    4.7781    9.8760 C   0  0  0  0  0  0  0  0  0  0  0  0
    1.4762    4.1399   11.1854 C   0  0  0  0  0  0  0  0  0  0  0  0
    1.6149    6.8743    8.6465 C   0  0  0  0  0  0  0  0  0  0  0  0
    2.0401    6.2335    7.6095 O   0  0  0  0  0  0  0  0  0  0  0  0
    1.2690    8.2360    8.5399 N   0  0  0  0  0  0  0  0  0  0  0  0
    0.9240    8.7444    9.3613 H   0  0  0  0  0  0  0  0  0  0  0  0
    3.7910    3.1403   15.6137 C   0  0  0  0  0  0  0  0  0  0  0  0
    3.2895    2.3529   14.6098 C   0  0  0  0  0  0  0  0  0  0  0  0
    2.6811    2.9272   13.4895 C   0  0  0  0  0  0  0  0  0  0  0  0
    2.5814    4.2834   13.3868 C   0  0  0  0  0  0  0  0  0  0  0  0
    3.0980    5.0618   14.4205 C   0  0  0  0  0  0  0  0  0  0  0  0
    3.7003    4.5156   15.5310 C   0  0  0  0  0  0  0  0  0  0  0  0
    4.0577    1.3201   17.1654 O   0  0  0  0  0  0  0  0  0  0  0  0
    4.4037    2.5608   16.7355 N   0  0  0  0  0  0  0  0  0  0  0  0
    5.2811    3.1947   17.3493 O   0  0  0  0  0  0  0  0  0  0  0  0
    1.3952    9.1184    7.0546 S   0  0  0  0  0  0  0  0  0  0  0  0
    0.8083   10.4935    7.1685 O   0  0  0  0  0  0  0  0  0  0  0  0
    0.5788    8.3527    6.0289 O   0  0  0  0  0  0  0  0  0  0  0  0
    3.0778    9.1504    6.5942 C   0  0  0  0  0  0  0  0  0  0  0  0
    3.5092    8.6649    5.3759 C   0  0  0  0  0  0  0  0  0  0  0  0
    4.8297    8.6916    4.9978 C   0  0  0  0  0  0  0  0  0  0  0  0
    5.7935    9.2157    5.8396 C   0  0  0  0  0  0  0  0  0  0  0  0
    7.4918    9.2465    5.3478 Cl  0  0  0  0  0  0  0  0  0  0  0  0
    5.3858    9.7032    7.0542 C   0  0  0  0  0  0  0  0  0  0  0  0
    4.0663    9.6712    7.4206 C   0  0  0  0  0  0  0  0  0  0  0  0
 17 18  1  0  0  0
 18 19  2  0  0  0
 18 11  1  0  0  0
 11 12  2  0  0  0
 12 13  1  0  0  0
 13 14  2  0  0  0
 14 15  1  0  0  0
 15 16  2  0  0  0
 14  1  1  0  0  0
  1  2  1  0  0  0
  2  3  1  0  0  0
  3  4  1  0  0  0
  4  5  1  0  0  0
  5  6  1  0  0  0
  4  7  1  0  0  0
  7  8  2  0  0  0
  7  9  1  0  0  0
  9 20  1  0  0  0
 20 21  2  0  0  0
 20 22  2  0  0  0
 20 23  1  0  0  0
 23 24  2  0  0  0
 24 25  1  0  0  0
 25 26  2  0  0  0
 26 27  1  0  0  0
 26 28  1  0  0  0
 28 29  2  0  0  0
 16 11  1  0  0  0
  6  1  1  0  0  0
 29 23  1  0  0  0
  9 10  1  0  0  0
M  CHG 1  17  -1
M  CHG 1  18   1
M  END
> <minimizedAffinity>
-6.61950

> <CNNscore>
0.2470719069

> <CNNaffinity>
4.7430200577

> <CNN_VS>
1.1718670130

> <CNNaffinity_variance>
0.0650284439

$$$$
[H]c1c([H])c(S(=O)(=O)N([H])C(=O)N2C([H])([H])C([H])([H])N(c3c([H])c([H])c([N+](=O)[O-])c([H])c3[H])C([H])([H])C2([H])[H])c([H])c([H])c1Cl


 29 31  0  0  0  0  0  0  0  0999 V2000
    3.4570    2.7898   14.9996 N   0  0  0  0  0  0  0  0  0  0  0  0
    2.6845    2.0364   14.0345 C   0  0  0  0  0  0  0  0  0  0  0  0
    2.8918    2.6672   12.6588 C   0  0  0  0  0  0  0  0  0  0  0  0
    2.6159    4.0715   12.6804 N   0  0  0  0  0  0  0  0  0  0  0  0
    3.1170    4.8488   13.7940 C   0  0  0  0  0  0  0  0  0  0  0  0
    4.0785    4.0312   14.6283 C   0  0  0  0  0  0  0  0  0  0  0  0
    1.8898    4.7215   11.6828 C   0  0  0  0  0  0  0  0  0  0  0  0
    1.6958    5.9920   11.8058 O   0  0  0  0  0  0  0  0  0  0  0  0
    1.3733    4.0351   10.5660 N   0  0  0  0  0  0  0  0  0  0  0  0
    1.5331    3.0270   10.4633 H   0  0  0  0  0  0  0  0  0  0  0  0
    3.7321    1.2240   18.8677 C   0  0  0  0  0  0  0  0  0  0  0  0
    4.2780    2.4500   18.5879 C   0  0  0  0  0  0  0  0  0  0  0  0
    4.2002    2.9881   17.2997 C   0  0  0  0  0  0  0  0  0  0  0  0
    3.5768    2.2928   16.3059 C   0  0  0  0  0  0  0  0  0  0  0  0
    3.0307    1.0488   16.6152 C   0  0  0  0  0  0  0  0  0  0  0  0
    3.0970    0.5022   17.8767 C   0  0  0  0  0  0  0  0  0  0  0  0
    2.7090    0.1983   20.7894 O   0  0  0  0  0  0  0  0  0  0  0  0
    3.8094    0.6880   20.1624 N   0  0  0  0  0  0  0  0  0  0  0  0
    4.9067    0.6602   20.7487 O   0  0  0  0  0  0  0  0  0  0  0  0
    0.4626    4.8259    9.3227 S   0  0  0  0  0  0  0  0  0  0  0  0
    0.4347    4.0265    8.0543 O   0  0  0  0  0  0  0  0  0  0  0  0
    1.1798    6.1314    9.0286 O   0  0  0  0  0  0  0  0  0  0  0  0
   -1.1366    5.1359    9.9477 C   0  0  0  0  0  0  0  0  0  0  0  0
   -2.1025    5.7728    9.1943 C   0  0  0  0  0  0  0  0  0  0  0  0
   -3.3677    6.0157    9.6715 C   0  0  0  0  0  0  0  0  0  0  0  0
   -3.7270    5.6237   10.9479 C   0  0  0  0  0  0  0  0  0  0  0  0
   -5.3567    5.9399   11.5569 Cl  0  0  0  0  0  0  0  0  0  0  0  0
   -2.7822    4.9895   11.7124 C   0  0  0  0  0  0  0  0  0  0  0  0
   -1.5237    4.7527   11.2262 C   0  0  0  0  0  0  0  0  0  0  0  0
 17 18  1  0  0  0
 18 19  2  0  0  0
 18 11  1  0  0  0
 11 12  2  0  0  0
 12 13  1  0  0  0
 13 14  2  0  0  0
 14 15  1  0  0  0
 15 16  2  0  0  0
 14  1  1  0  0  0
  1  2  1  0  0  0
  2  3  1  0  0  0
  3  4  1  0  0  0
  4  5  1  0  0  0
  5  6  1  0  0  0
  4  7  1  0  0  0
  7  8  2  0  0  0
  7  9  1  0  0  0
  9 20  1  0  0  0
 20 21  2  0  0  0
 20 22  2  0  0  0
 20 23  1  0  0  0
 23 24  2  0  0  0
 24 25  1  0  0  0
 25 26  2  0  0  0
 26 27  1  0  0  0
 26 28  1  0  0  0
 28 29  2  0  0  0
 16 11  1  0  0  0
  6  1  1  0  0  0
 29 23  1  0  0  0
  9 10  1  0  0  0
M  CHG 1  17  -1
M  CHG 1  18   1
M  END
> <minimizedAffinity>
-6.98221

> <CNNscore>
0.2450694144

> <CNNaffinity>
5.2867746353

> <CNN_VS>
1.2956267595

> <CNNaffinity_variance>
0.1015891284

$$$$
[H]c1c([H])c(S(=O)(=O)N([H])C(=O)N2C([H])([H])C([H])([H])N(c3c([H])c([H])c([N+](=O)[O-])c([H])c3[H])C([H])([H])C2([H])[H])c([H])c([H])c1Cl


 29 31  0  0  0  0  0  0  0  0999 V2000
    3.6102    6.0737   14.2834 N   0  0  0  0  0  0  0  0  0  0  0  0
    3.7777    5.0588   15.3021 C   0  0  0  0  0  0  0  0  0  0  0  0
    3.4241    5.6756   16.6541 C   0  0  0  0  0  0  0  0  0  0  0  0
    4.1575    6.8827   16.8863 N   0  0  0  0  0  0  0  0  0  0  0  0
    4.2832    7.8258   15.7954 C   0  0  0  0  0  0  0  0  0  0  0  0
    3.3730    7.4431   14.6490 C   0  0  0  0  0  0  0  0  0  0  0  0
    4.7537    7.1896   18.1091 C   0  0  0  0  0  0  0  0  0  0  0  0
    5.3961    8.3053   18.2060 O   0  0  0  0  0  0  0  0  0  0  0  0
    4.6719    6.3253   19.2188 N   0  0  0  0  0  0  0  0  0  0  0  0
    4.1555    5.4421   19.1454 H   0  0  0  0  0  0  0  0  0  0  0  0
    3.8109    5.0568   10.2318 C   0  0  0  0  0  0  0  0  0  0  0  0
    4.0821    4.1110   11.1865 C   0  0  0  0  0  0  0  0  0  0  0  0
    4.0246    4.4331   12.5459 C   0  0  0  0  0  0  0  0  0  0  0  0
    3.6965    5.6984   12.9345 C   0  0  0  0  0  0  0  0  0  0  0  0
    3.4260    6.6417   11.9454 C   0  0  0  0  0  0  0  0  0  0  0  0
    3.4772    6.3443   10.6024 C   0  0  0  0  0  0  0  0  0  0  0  0
    5.0529    4.6285    8.2154 O   0  0  0  0  0  0  0  0  0  0  0  0
    3.8665    4.7296    8.8683 N   0  0  0  0  0  0  0  0  0  0  0  0
    2.8093    4.5279    8.2437 O   0  0  0  0  0  0  0  0  0  0  0  0
    5.4135    6.6879   20.7418 S   0  0  0  0  0  0  0  0  0  0  0  0
    4.8475    7.9322   21.3581 O   0  0  0  0  0  0  0  0  0  0  0  0
    6.8823    6.9432   20.4549 O   0  0  0  0  0  0  0  0  0  0  0  0
    5.2268    5.2923   21.7720 C   0  0  0  0  0  0  0  0  0  0  0  0
    4.0836    5.0849   22.5178 C   0  0  0  0  0  0  0  0  0  0  0  0
    3.9206    3.9863   23.3265 C   0  0  0  0  0  0  0  0  0  0  0  0
    4.9144    3.0299   23.4251 C   0  0  0  0  0  0  0  0  0  0  0  0
    4.6992    1.6185   24.4683 Cl  0  0  0  0  0  0  0  0  0  0  0  0
    6.0577    3.2171   22.6923 C   0  0  0  0  0  0  0  0  0  0  0  0
    6.2093    4.3165   21.8894 C   0  0  0  0  0  0  0  0  0  0  0  0
 17 18  1  0  0  0
 18 19  2  0  0  0
 18 11  1  0  0  0
 11 12  2  0  0  0
 12 13  1  0  0  0
 13 14  2  0  0  0
 14 15  1  0  0  0
 15 16  2  0  0  0
 14  1  1  0  0  0
  1  2  1  0  0  0
  2  3  1  0  0  0
  3  4  1  0  0  0
  4  5  1  0  0  0
  5  6  1  0  0  0
  4  7  1  0  0  0
  7  8  2  0  0  0
  7  9  1  0  0  0
  9 20  1  0  0  0
 20 21  2  0  0  0
 20 22  2  0  0  0
 20 23  1  0  0  0
 23 24  2  0  0  0
 24 25  1  0  0  0
 25 26  2  0  0  0
 26 27  1  0  0  0
 26 28  1  0  0  0
 28 29  2  0  0  0
 16 11  1  0  0  0
  6  1  1  0  0  0
 29 23  1  0  0  0
  9 10  1  0  0  0
M  CHG 1  17  -1
M  CHG 1  18   1
M  END
> <minimizedAffinity>
-6.77901

> <CNNscore>
0.2304810584

> <CNNaffinity>
5.0628819466

> <CNN_VS>
1.1668983698

> <CNNaffinity_variance>
0.1913484037

$$$$
[H]c1c([H])c(S(=O)(=O)N([H])C(=O)N2C([H])([H])C([H])([H])N(c3c([H])c([H])c([N+](=O)[O-])c([H])c3[H])C([H])([H])C2([H])[H])c([H])c([H])c1Cl


 29 31  0  0  0  0  0  0  0  0999 V2000
    4.5407    6.5507   19.8809 N   0  0  0  0  0  0  0  0  0  0  0  0
    4.4741    6.8425   18.4645 C   0  0  0  0  0  0  0  0  0  0  0  0
    3.3571    5.9978   17.8544 C   0  0  0  0  0  0  0  0  0  0  0  0
    3.5165    4.6113   18.1725 N   0  0  0  0  0  0  0  0  0  0  0  0
    3.8816    4.2594   19.5282 C   0  0  0  0  0  0  0  0  0  0  0  0
    3.7842    5.4637   20.4389 C   0  0  0  0  0  0  0  0  0  0  0  0
    3.3375    3.5895   17.2403 C   0  0  0  0  0  0  0  0  0  0  0  0
    3.5120    2.3728   17.6352 O   0  0  0  0  0  0  0  0  0  0  0  0
    2.9778    3.8514   15.9035 N   0  0  0  0  0  0  0  0  0  0  0  0
    2.8316    4.8172   15.5903 H   0  0  0  0  0  0  0  0  0  0  0  0
    6.9297    8.9961   22.2896 C   0  0  0  0  0  0  0  0  0  0  0  0
    7.3986    7.7743   21.8812 C   0  0  0  0  0  0  0  0  0  0  0  0
    6.6128    6.9408   21.0794 C   0  0  0  0  0  0  0  0  0  0  0  0
    5.3665    7.3395   20.6957 C   0  0  0  0  0  0  0  0  0  0  0  0
    4.9125    8.5851   21.1242 C   0  0  0  0  0  0  0  0  0  0  0  0
    5.6706    9.4199   21.9135 C   0  0  0  0  0  0  0  0  0  0  0  0
    7.2083   10.9481   23.6696 O   0  0  0  0  0  0  0  0  0  0  0  0
    7.7220    9.8317   23.0919 N   0  0  0  0  0  0  0  0  0  0  0  0
    8.9186    9.5457   23.2786 O   0  0  0  0  0  0  0  0  0  0  0  0
    2.7596    2.5944   14.7316 S   0  0  0  0  0  0  0  0  0  0  0  0
    1.3534    2.0738   14.7241 O   0  0  0  0  0  0  0  0  0  0  0  0
    3.6708    1.4541   15.1493 O   0  0  0  0  0  0  0  0  0  0  0  0
    3.2432    3.2236   13.1778 C   0  0  0  0  0  0  0  0  0  0  0  0
    2.7831    2.6785   11.9957 C   0  0  0  0  0  0  0  0  0  0  0  0
    3.1496    3.1695   10.7660 C   0  0  0  0  0  0  0  0  0  0  0  0
    4.0090    4.2481   10.6652 C   0  0  0  0  0  0  0  0  0  0  0  0
    4.4778    4.8750    9.0797 Cl  0  0  0  0  0  0  0  0  0  0  0  0
    4.4772    4.8041   11.8275 C   0  0  0  0  0  0  0  0  0  0  0  0
    4.1051    4.3061   13.0481 C   0  0  0  0  0  0  0  0  0  0  0  0
 17 18  1  0  0  0
 18 19  2  0  0  0
 18 11  1  0  0  0
 11 12  2  0  0  0
 12 13  1  0  0  0
 13 14  2  0  0  0
 14 15  1  0  0  0
 15 16  2  0  0  0
 14  1  1  0  0  0
  1  2  1  0  0  0
  2  3  1  0  0  0
  3  4  1  0  0  0
  4  5  1  0  0  0
  5  6  1  0  0  0
  4  7  1  0  0  0
  7  8  2  0  0  0
  7  9  1  0  0  0
  9 20  1  0  0  0
 20 21  2  0  0  0
 20 22  2  0  0  0
 20 23  1  0  0  0
 23 24  2  0  0  0
 24 25  1  0  0  0
 25 26  2  0  0  0
 26 27  1  0  0  0
 26 28  1  0  0  0
 28 29  2  0  0  0
 16 11  1  0  0  0
  6  1  1  0  0  0
 29 23  1  0  0  0
  9 10  1  0  0  0
M  CHG 1  17  -1
M  CHG 1  18   1
M  END
> <minimizedAffinity>
-6.95191

> <CNNscore>
0.2291342616

> <CNNaffinity>
5.2385110855

> <CNN_VS>
1.2003223896

> <CNNaffinity_variance>
0.0595960990

$$$$
[H]c1c([H])c(S(=O)(=O)N([H])C(=O)N2C([H])([H])C([H])([H])N(c3c([H])c([H])c([N+](=O)[O-])c([H])c3[H])C([H])([H])C2([H])[H])c([H])c([H])c1Cl


 29 31  0  0  0  0  0  0  0  0999 V2000
    3.2209    7.3485   12.9111 N   0  0  0  0  0  0  0  0  0  0  0  0
    3.5311    6.0467   13.4632 C   0  0  0  0  0  0  0  0  0  0  0  0
    3.0850    6.0283   14.9241 C   0  0  0  0  0  0  0  0  0  0  0  0
    3.6324    7.1325   15.6521 N   0  0  0  0  0  0  0  0  0  0  0  0
    3.6231    8.4365   15.0238 C   0  0  0  0  0  0  0  0  0  0  0  0
    2.7838    8.4186   13.7651 C   0  0  0  0  0  0  0  0  0  0  0  0
    4.1718    7.0096   16.9322 C   0  0  0  0  0  0  0  0  0  0  0  0
    4.6431    8.0718   17.4949 O   0  0  0  0  0  0  0  0  0  0  0  0
    4.2128    5.7758   17.6113 N   0  0  0  0  0  0  0  0  0  0  0  0
    3.8320    4.9325   17.1685 H   0  0  0  0  0  0  0  0  0  0  0  0
    3.7766    7.9460    8.8094 C   0  0  0  0  0  0  0  0  0  0  0  0
    2.5396    8.1445    9.3660 C   0  0  0  0  0  0  0  0  0  0  0  0
    2.3331    7.9454   10.7344 C   0  0  0  0  0  0  0  0  0  0  0  0
    3.3672    7.5497   11.5305 C   0  0  0  0  0  0  0  0  0  0  0  0
    4.6144    7.3541   10.9411 C   0  0  0  0  0  0  0  0  0  0  0  0
    4.8378    7.5447    9.5963 C   0  0  0  0  0  0  0  0  0  0  0  0
    3.7686    9.3624    6.8637 O   0  0  0  0  0  0  0  0  0  0  0  0
    3.9812    8.1495    7.4360 N   0  0  0  0  0  0  0  0  0  0  0  0
    4.3649    7.2012    6.7274 O   0  0  0  0  0  0  0  0  0  0  0  0
    4.8867    5.6048   19.1980 S   0  0  0  0  0  0  0  0  0  0  0  0
    4.3320    6.6181   20.1541 O   0  0  0  0  0  0  0  0  0  0  0  0
    6.3761    5.8659   19.0630 O   0  0  0  0  0  0  0  0  0  0  0  0
    4.5999    3.9668   19.7259 C   0  0  0  0  0  0  0  0  0  0  0  0
    4.5927    2.9069   18.8412 C   0  0  0  0  0  0  0  0  0  0  0  0
    4.3763    1.6116   19.2449 C   0  0  0  0  0  0  0  0  0  0  0  0
    4.1535    1.3164   20.5773 C   0  0  0  0  0  0  0  0  0  0  0  0
    3.8746   -0.3526   21.0907 Cl  0  0  0  0  0  0  0  0  0  0  0  0
    4.1567    2.3549   21.4721 C   0  0  0  0  0  0  0  0  0  0  0  0
    4.3735    3.6425   21.0581 C   0  0  0  0  0  0  0  0  0  0  0  0
 17 18  1  0  0  0
 18 19  2  0  0  0
 18 11  1  0  0  0
 11 12  2  0  0  0
 12 13  1  0  0  0
 13 14  2  0  0  0
 14 15  1  0  0  0
 15 16  2  0  0  0
 14  1  1  0  0  0
  1  2  1  0  0  0
  2  3  1  0  0  0
  3  4  1  0  0  0
  4  5  1  0  0  0
  5  6  1  0  0  0
  4  7  1  0  0  0
  7  8  2  0  0  0
  7  9  1  0  0  0
  9 20  1  0  0  0
 20 21  2  0  0  0
 20 22  2  0  0  0
 20 23  1  0  0  0
 23 24  2  0  0  0
 24 25  1  0  0  0
 25 26  2  0  0  0
 26 27  1  0  0  0
 26 28  1  0  0  0
 28 29  2  0  0  0
 16 11  1  0  0  0
  6  1  1  0  0  0
 29 23  1  0  0  0
  9 10  1  0  0  0
M  CHG 1  17  -1
M  CHG 1  18   1
M  END
> <minimizedAffinity>
-6.88503

> <CNNscore>
0.2278328985

> <CNNaffinity>
5.0564169884

> <CNN_VS>
1.1520181894

> <CNNaffinity_variance>
0.2738628089

$$$$
[H]c1c([H])c(N([H])c2nc([H])c3c(C(=O)N([H])[H])nn(C([H])([H])[H])c3n2)c([H])c([H])c1Cl


 24 26  0  0  0  0  0  0  0  0999 V2000
    2.7136   -0.5119   20.5241 C   0  0  0  0  0  0  0  0  0  0  0  0
    3.3524    0.6901   21.0121 N   0  0  0  0  0  0  0  0  0  0  0  0
    3.4844    1.0948   22.2600 N   0  0  0  0  0  0  0  0  0  0  0  0
    4.1406    2.2692   22.3175 C   0  0  0  0  0  0  0  0  0  0  0  0
    4.4160    2.5794   21.0039 C   0  0  0  0  0  0  0  0  0  0  0  0
    5.0559    3.6311   20.3776 C   0  0  0  0  0  0  0  0  0  0  0  0
    5.1715    3.6538   19.0401 N   0  0  0  0  0  0  0  0  0  0  0  0
    4.7031    2.7093   18.2224 C   0  0  0  0  0  0  0  0  0  0  0  0
    4.0657    1.6611   18.8402 N   0  0  0  0  0  0  0  0  0  0  0  0
    3.9279    1.5975   20.1671 C   0  0  0  0  0  0  0  0  0  0  0  0
    4.4731    3.0243   23.5198 C   0  0  0  0  0  0  0  0  0  0  0  0
    4.2714    4.4034   23.6843 N   0  0  0  0  0  0  0  0  0  0  0  0
    4.9859    2.3502   24.4801 O   0  0  0  0  0  0  0  0  0  0  0  0
    3.4046    4.7468   24.1529 H   0  0  0  0  0  0  0  0  0  0  0  0
    4.9406    5.1388   23.3652 H   0  0  0  0  0  0  0  0  0  0  0  0
    4.8126    2.7078   16.8115 N   0  0  0  0  0  0  0  0  0  0  0  0
    5.8058    2.5637   16.4264 H   0  0  0  0  0  0  0  0  0  0  0  0
    3.8225    2.8612   15.8428 C   0  0  0  0  0  0  0  0  0  0  0  0
    3.5304    4.0964   15.3165 C   0  0  0  0  0  0  0  0  0  0  0  0
    2.5578    4.2288   14.3320 C   0  0  0  0  0  0  0  0  0  0  0  0
    1.9062    3.1140   13.9054 C   0  0  0  0  0  0  0  0  0  0  0  0
    0.6840    3.2743   12.6691 Cl  0  0  0  0  0  0  0  0  0  0  0  0
    2.1766    1.8664   14.4136 C   0  0  0  0  0  0  0  0  0  0  0  0
    3.1268    1.7299   15.3764 C   0  0  0  0  0  0  0  0  0  0  0  0
  1  2  1  0  0  0
  2  3  1  0  0  0
  3  4  2  0  0  0
  4 11  1  0  0  0
 11 12  1  0  0  0
 11 13  2  0  0  0
  4  5  1  0  0  0
  5  6  2  0  0  0
  6  7  1  0  0  0
  7  8  2  0  0  0
  8 16  1  0  0  0
 16 18  1  0  0  0
 18 19  2  0  0  0
 19 20  1  0  0  0
 20 21  2  0  0  0
 21 22  1  0  0  0
 21 23  1  0  0  0
 23 24  2  0  0  0
  8  9  1  0  0  0
  9 10  2  0  0  0
 10  2  1  0  0  0
 10  5  1  0  0  0
 24 18  1  0  0  0
 12 14  1  0  0  0
 12 15  1  0  0  0
 16 17  1  0  0  0
M  END
> <minimizedAffinity>
-7.56831

> <CNNscore>
0.5500048399

> <CNNaffinity>
6.1533155441

> <CNN_VS>
3.3843533993

> <CNNaffinity_variance>
0.1910516173

$$$$
[H]c1c([H])c(N([H])c2nc([H])c3c(C(=O)N([H])[H])nn(C([H])([H])[H])c3n2)c([H])c([H])c1Cl


 24 26  0  0  0  0  0  0  0  0999 V2000
    5.1234    2.2780   21.0109 C   0  0  0  0  0  0  0  0  0  0  0  0
    4.5939    2.1314   19.6734 N   0  0  0  0  0  0  0  0  0  0  0  0
    3.8529    1.1528   19.1920 N   0  0  0  0  0  0  0  0  0  0  0  0
    3.5533    1.3691   17.8972 C   0  0  0  0  0  0  0  0  0  0  0  0
    4.1640    2.5657   17.5931 C   0  0  0  0  0  0  0  0  0  0  0  0
    4.2475    3.3408   16.4529 C   0  0  0  0  0  0  0  0  0  0  0  0
    4.9366    4.4931   16.4662 N   0  0  0  0  0  0  0  0  0  0  0  0
    5.5780    4.9808   17.5295 C   0  0  0  0  0  0  0  0  0  0  0  0
    5.4982    4.2138   18.6662 N   0  0  0  0  0  0  0  0  0  0  0  0
    4.8241    3.0614   18.6983 C   0  0  0  0  0  0  0  0  0  0  0  0
    2.7556    0.5087   17.0313 C   0  0  0  0  0  0  0  0  0  0  0  0
    2.1345    0.9195   15.8418 N   0  0  0  0  0  0  0  0  0  0  0  0
    2.6311   -0.7075   17.4120 O   0  0  0  0  0  0  0  0  0  0  0  0
    2.6167    0.7701   14.9285 H   0  0  0  0  0  0  0  0  0  0  0  0
    1.1974    1.3779   15.7943 H   0  0  0  0  0  0  0  0  0  0  0  0
    6.3093    6.1917   17.5710 N   0  0  0  0  0  0  0  0  0  0  0  0
    6.5946    6.5910   16.6146 H   0  0  0  0  0  0  0  0  0  0  0  0
    6.7129    6.9493   18.6689 C   0  0  0  0  0  0  0  0  0  0  0  0
    8.0380    7.0374   19.0214 C   0  0  0  0  0  0  0  0  0  0  0  0
    8.4269    7.8184   20.1038 C   0  0  0  0  0  0  0  0  0  0  0  0
    7.4709    8.4883   20.8012 C   0  0  0  0  0  0  0  0  0  0  0  0
    7.9536    9.4707   22.1613 Cl  0  0  0  0  0  0  0  0  0  0  0  0
    6.1386    8.4186   20.4724 C   0  0  0  0  0  0  0  0  0  0  0  0
    5.7515    7.6570   19.4149 C   0  0  0  0  0  0  0  0  0  0  0  0
  1  2  1  0  0  0
  2  3  1  0  0  0
  3  4  2  0  0  0
  4 11  1  0  0  0
 11 12  1  0  0  0
 11 13  2  0  0  0
  4  5  1  0  0  0
  5  6  2  0  0  0
  6  7  1  0  0  0
  7  8  2  0  0  0
  8 16  1  0  0  0
 16 18  1  0  0  0
 18 19  2  0  0  0
 19 20  1  0  0  0
 20 21  2  0  0  0
 21 22  1  0  0  0
 21 23  1  0  0  0
 23 24  2  0  0  0
  8  9  1  0  0  0
  9 10  2  0  0  0
 10  2  1  0  0  0
 10  5  1  0  0  0
 24 18  1  0  0  0
 12 14  1  0  0  0
 12 15  1  0  0  0
 16 17  1  0  0  0
M  END
> <minimizedAffinity>
-6.71023

> <CNNscore>
0.4689485431

> <CNNaffinity>
5.4733362198

> <CNN_VS>
2.5667130947

> <CNNaffinity_variance>
0.4461732507

$$$$
[H]c1c([H])c(N([H])c2nc([H])c3c(C(=O)N([H])[H])nn(C([H])([H])[H])c3n2)c([H])c([H])c1Cl


 24 26  0  0  0  0  0  0  0  0999 V2000
    3.5955   -0.0347   20.6790 C   0  0  0  0  0  0  0  0  0  0  0  0
    3.6072    0.8644   19.5466 N   0  0  0  0  0  0  0  0  0  0  0  0
    3.3642    0.5856   18.2810 N   0  0  0  0  0  0  0  0  0  0  0  0
    3.4714    1.6890   17.5167 C   0  0  0  0  0  0  0  0  0  0  0  0
    3.8025    2.6936   18.3990 C   0  0  0  0  0  0  0  0  0  0  0  0
    4.0528    4.0455   18.2677 C   0  0  0  0  0  0  0  0  0  0  0  0
    4.3598    4.7854   19.3453 N   0  0  0  0  0  0  0  0  0  0  0  0
    4.4493    4.3121   20.5895 C   0  0  0  0  0  0  0  0  0  0  0  0
    4.2014    2.9680   20.7256 N   0  0  0  0  0  0  0  0  0  0  0  0
    3.8926    2.1944   19.6818 C   0  0  0  0  0  0  0  0  0  0  0  0
    3.2747    1.7730   16.0742 C   0  0  0  0  0  0  0  0  0  0  0  0
    3.8461    2.7466   15.2404 N   0  0  0  0  0  0  0  0  0  0  0  0
    2.5186    0.8770   15.5594 O   0  0  0  0  0  0  0  0  0  0  0  0
    4.7356    2.5379   14.7364 H   0  0  0  0  0  0  0  0  0  0  0  0
    3.4401    3.6948   15.0778 H   0  0  0  0  0  0  0  0  0  0  0  0
    4.7692    5.0691   21.7416 N   0  0  0  0  0  0  0  0  0  0  0  0
    3.9758    5.1736   22.4594 H   0  0  0  0  0  0  0  0  0  0  0  0
    5.9633    5.6982   22.0888 C   0  0  0  0  0  0  0  0  0  0  0  0
    5.9924    7.0313   22.4204 C   0  0  0  0  0  0  0  0  0  0  0  0
    7.1877    7.6377   22.7896 C   0  0  0  0  0  0  0  0  0  0  0  0
    8.3201    6.8852   22.8141 C   0  0  0  0  0  0  0  0  0  0  0  0
    9.8239    7.6416   23.2772 Cl  0  0  0  0  0  0  0  0  0  0  0  0
    8.3214    5.5507   22.4871 C   0  0  0  0  0  0  0  0  0  0  0  0
    7.1559    4.9514   22.1254 C   0  0  0  0  0  0  0  0  0  0  0  0
  1  2  1  0  0  0
  2  3  1  0  0  0
  3  4  2  0  0  0
  4 11  1  0  0  0
 11 12  1  0  0  0
 11 13  2  0  0  0
  4  5  1  0  0  0
  5  6  2  0  0  0
  6  7  1  0  0  0
  7  8  2  0  0  0
  8 16  1  0  0  0
 16 18  1  0  0  0
 18 19  2  0  0  0
 19 20  1  0  0  0
 20 21  2  0  0  0
 21 22  1  0  0  0
 21 23  1  0  0  0
 23 24  2  0  0  0
  8  9  1  0  0  0
  9 10  2  0  0  0
 10  2  1  0  0  0
 10  5  1  0  0  0
 24 18  1  0  0  0
 12 14  1  0  0  0
 12 15  1  0  0  0
 16 17  1  0  0  0
M  END
> <minimizedAffinity>
-6.21630

> <CNNscore>
0.2222500145

> <CNNaffinity>
5.2973413467

> <CNN_VS>
1.1773341894

> <CNNaffinity_variance>
0.6197028160

$$$$
[H]c1c([H])c(N([H])c2nc([H])c3c(C(=O)N([H])[H])nn(C([H])([H])[H])c3n2)c([H])c([H])c1Cl


 24 26  0  0  0  0  0  0  0  0999 V2000
    3.8603    7.0900   14.6552 C   0  0  0  0  0  0  0  0  0  0  0  0
    3.6308    5.9094   15.4580 N   0  0  0  0  0  0  0  0  0  0  0  0
    3.3919    4.6787   15.0495 N   0  0  0  0  0  0  0  0  0  0  0  0
    3.2301    3.8477   16.0965 C   0  0  0  0  0  0  0  0  0  0  0  0
    3.3855    4.6497   17.2055 C   0  0  0  0  0  0  0  0  0  0  0  0
    3.3417    4.4266   18.5679 C   0  0  0  0  0  0  0  0  0  0  0  0
    3.5383    5.4397   19.4269 N   0  0  0  0  0  0  0  0  0  0  0  0
    3.7836    6.7011   19.0682 C   0  0  0  0  0  0  0  0  0  0  0  0
    3.8281    6.9285   17.7143 N   0  0  0  0  0  0  0  0  0  0  0  0
    3.6384    5.9510   16.8243 C   0  0  0  0  0  0  0  0  0  0  0  0
    2.9522    2.4174   16.0395 C   0  0  0  0  0  0  0  0  0  0  0  0
    1.8557    1.8371   15.3834 N   0  0  0  0  0  0  0  0  0  0  0  0
    3.7899    1.6600   16.6430 O   0  0  0  0  0  0  0  0  0  0  0  0
    1.9657    1.4807   14.4089 H   0  0  0  0  0  0  0  0  0  0  0  0
    0.9064    1.7291   15.8052 H   0  0  0  0  0  0  0  0  0  0  0  0
    3.9958    7.7860   19.9517 N   0  0  0  0  0  0  0  0  0  0  0  0
    3.1811    8.4830   20.0300 H   0  0  0  0  0  0  0  0  0  0  0  0
    5.1042    8.0857   20.7415 C   0  0  0  0  0  0  0  0  0  0  0  0
    6.2887    7.4063   20.5886 C   0  0  0  0  0  0  0  0  0  0  0  0
    7.3930    7.7349   21.3666 C   0  0  0  0  0  0  0  0  0  0  0  0
    7.2736    8.7378   22.2772 C   0  0  0  0  0  0  0  0  0  0  0  0
    8.6572    9.1548   23.2568 Cl  0  0  0  0  0  0  0  0  0  0  0  0
    6.1020    9.4340   22.4525 C   0  0  0  0  0  0  0  0  0  0  0  0
    5.0185    9.1179   21.6947 C   0  0  0  0  0  0  0  0  0  0  0  0
  1  2  1  0  0  0
  2  3  1  0  0  0
  3  4  2  0  0  0
  4 11  1  0  0  0
 11 12  1  0  0  0
 11 13  2  0  0  0
  4  5  1  0  0  0
  5  6  2  0  0  0
  6  7  1  0  0  0
  7  8  2  0  0  0
  8 16  1  0  0  0
 16 18  1  0  0  0
 18 19  2  0  0  0
 19 20  1  0  0  0
 20 21  2  0  0  0
 21 22  1  0  0  0
 21 23  1  0  0  0
 23 24  2  0  0  0
  8  9  1  0  0  0
  9 10  2  0  0  0
 10  2  1  0  0  0
 10  5  1  0  0  0
 24 18  1  0  0  0
 12 14  1  0  0  0
 12 15  1  0  0  0
 16 17  1  0  0  0
M  END
> <minimizedAffinity>
-6.48144

> <CNNscore>
0.2145428061

> <CNNaffinity>
4.7349824905

> <CNN_VS>
1.0158563852

> <CNNaffinity_variance>
0.4376699328

$$$$
[H]c1c([H])c(N([H])c2nc([H])c3c(C(=O)N([H])[H])nn(C([H])([H])[H])c3n2)c([H])c([H])c1Cl


 24 26  0  0  0  0  0  0  0  0999 V2000
    4.8604    1.4624   20.0486 C   0  0  0  0  0  0  0  0  0  0  0  0
    4.3051    2.1336   18.8945 N   0  0  0  0  0  0  0  0  0  0  0  0
    3.9954    1.6176   17.7212 N   0  0  0  0  0  0  0  0  0  0  0  0
    3.5004    2.5604   16.8972 C   0  0  0  0  0  0  0  0  0  0  0  0
    3.5199    3.7193   17.6415 C   0  0  0  0  0  0  0  0  0  0  0  0
    3.1532    5.0278   17.3943 C   0  0  0  0  0  0  0  0  0  0  0  0
    3.2949    5.9626   18.3476 N   0  0  0  0  0  0  0  0  0  0  0  0
    3.7803    5.7326   19.5689 C   0  0  0  0  0  0  0  0  0  0  0  0
    4.1466    4.4329   19.8200 N   0  0  0  0  0  0  0  0  0  0  0  0
    4.0231    3.4711   18.9017 C   0  0  0  0  0  0  0  0  0  0  0  0
    3.0502    2.3686   15.5235 C   0  0  0  0  0  0  0  0  0  0  0  0
    1.9342    1.6078   15.1422 N   0  0  0  0  0  0  0  0  0  0  0  0
    3.7461    2.9508   14.6201 O   0  0  0  0  0  0  0  0  0  0  0  0
    1.0158    2.0785   14.9883 H   0  0  0  0  0  0  0  0  0  0  0  0
    1.9484    0.5740   14.9950 H   0  0  0  0  0  0  0  0  0  0  0  0
    3.9386    6.6980   20.5915 N   0  0  0  0  0  0  0  0  0  0  0  0
    3.0571    6.9043   21.1712 H   0  0  0  0  0  0  0  0  0  0  0  0
    5.0703    7.4207   20.9644 C   0  0  0  0  0  0  0  0  0  0  0  0
    6.3328    6.9261   20.7421 C   0  0  0  0  0  0  0  0  0  0  0  0
    7.4519    7.6710   21.0963 C   0  0  0  0  0  0  0  0  0  0  0  0
    7.2686    8.8926   21.6649 C   0  0  0  0  0  0  0  0  0  0  0  0
    8.6704    9.8324   22.1116 Cl  0  0  0  0  0  0  0  0  0  0  0  0
    6.0186    9.4124   21.8998 C   0  0  0  0  0  0  0  0  0  0  0  0
    4.9200    8.6893   21.5555 C   0  0  0  0  0  0  0  0  0  0  0  0
  1  2  1  0  0  0
  2  3  1  0  0  0
  3  4  2  0  0  0
  4 11  1  0  0  0
 11 12  1  0  0  0
 11 13  2  0  0  0
  4  5  1  0  0  0
  5  6  2  0  0  0
  6  7  1  0  0  0
  7  8  2  0  0  0
  8 16  1  0  0  0
 16 18  1  0  0  0
 18 19  2  0  0  0
 19 20  1  0  0  0
 20 21  2  0  0  0
 21 22  1  0  0  0
 21 23  1  0  0  0
 23 24  2  0  0  0
  8  9  1  0  0  0
  9 10  2  0  0  0
 10  2  1  0  0  0
 10  5  1  0  0  0
 24 18  1  0  0  0
 12 14  1  0  0  0
 12 15  1  0  0  0
 16 17  1  0  0  0
M  END
> <minimizedAffinity>
-7.19150

> <CNNscore>
0.1858317554

> <CNNaffinity>
4.9326162338

> <CNN_VS>
0.9166367054

> <CNNaffinity_variance>
0.5904141068

$$$$
[H]c1c([H])c(N([H])c2nc([H])c3c(C(=O)N([H])[H])nn(C([H])([H])[H])c3n2)c([H])c([H])c1Cl


 24 26  0  0  0  0  0  0  0  0999 V2000
    3.6833    0.9887   21.6588 C   0  0  0  0  0  0  0  0  0  0  0  0
    4.1069    2.3293   21.3208 N   0  0  0  0  0  0  0  0  0  0  0  0
    4.3897    3.3257   22.1368 N   0  0  0  0  0  0  0  0  0  0  0  0
    4.7493    4.4246   21.4468 C   0  0  0  0  0  0  0  0  0  0  0  0
    4.6725    4.0468   20.1244 C   0  0  0  0  0  0  0  0  0  0  0  0
    4.9070    4.6901   18.9249 C   0  0  0  0  0  0  0  0  0  0  0  0
    4.7411    4.0381   17.7629 N   0  0  0  0  0  0  0  0  0  0  0  0
    4.3522    2.7664   17.6558 C   0  0  0  0  0  0  0  0  0  0  0  0
    4.1175    2.1219   18.8459 N   0  0  0  0  0  0  0  0  0  0  0  0
    4.2699    2.7312   20.0245 C   0  0  0  0  0  0  0  0  0  0  0  0
    5.1312    5.7173   22.0032 C   0  0  0  0  0  0  0  0  0  0  0  0
    4.2902    6.8380   22.0831 N   0  0  0  0  0  0  0  0  0  0  0  0
    6.3302    5.8048   22.4437 O   0  0  0  0  0  0  0  0  0  0  0  0
    3.7642    7.0278   22.9641 H   0  0  0  0  0  0  0  0  0  0  0  0
    4.1429    7.5206   21.3066 H   0  0  0  0  0  0  0  0  0  0  0  0
    4.1713    2.0557   16.4455 N   0  0  0  0  0  0  0  0  0  0  0  0
    4.6674    1.1036   16.3913 H   0  0  0  0  0  0  0  0  0  0  0  0
    3.4405    2.4037   15.3109 C   0  0  0  0  0  0  0  0  0  0  0  0
    3.8078    3.4737   14.5312 C   0  0  0  0  0  0  0  0  0  0  0  0
    3.0834    3.7919   13.3881 C   0  0  0  0  0  0  0  0  0  0  0  0
    2.0092    3.0242   13.0624 C   0  0  0  0  0  0  0  0  0  0  0  0
    1.0959    3.4192   11.6279 Cl  0  0  0  0  0  0  0  0  0  0  0  0
    1.6181    1.9490   13.8232 C   0  0  0  0  0  0  0  0  0  0  0  0
    2.3224    1.6322   14.9421 C   0  0  0  0  0  0  0  0  0  0  0  0
  1  2  1  0  0  0
  2  3  1  0  0  0
  3  4  2  0  0  0
  4 11  1  0  0  0
 11 12  1  0  0  0
 11 13  2  0  0  0
  4  5  1  0  0  0
  5  6  2  0  0  0
  6  7  1  0  0  0
  7  8  2  0  0  0
  8 16  1  0  0  0
 16 18  1  0  0  0
 18 19  2  0  0  0
 19 20  1  0  0  0
 20 21  2  0  0  0
 21 22  1  0  0  0
 21 23  1  0  0  0
 23 24  2  0  0  0
  8  9  1  0  0  0
  9 10  2  0  0  0
 10  2  1  0  0  0
 10  5  1  0  0  0
 24 18  1  0  0  0
 12 14  1  0  0  0
 12 15  1  0  0  0
 16 17  1  0  0  0
M  END
> <minimizedAffinity>
-7.22523

> <CNNscore>
0.1855589896

> <CNNaffinity>
5.5577607155

> <CNN_VS>
1.0312924385

> <CNNaffinity_variance>
0.6912109256

$$$$
[H]c1c([H])c(N([H])c2nc([H])c3c(C(=O)N([H])[H])nn(C([H])([H])[H])c3n2)c([H])c([H])c1Cl


 24 26  0  0  0  0  0  0  0  0999 V2000
    3.4178    0.8443   17.2473 C   0  0  0  0  0  0  0  0  0  0  0  0
    3.1940    2.2476   16.9796 N   0  0  0  0  0  0  0  0  0  0  0  0
    3.5320    3.2838   17.7216 N   0  0  0  0  0  0  0  0  0  0  0  0
    3.1534    4.4367   17.1381 C   0  0  0  0  0  0  0  0  0  0  0  0
    2.5465    4.0501   15.9634 C   0  0  0  0  0  0  0  0  0  0  0  0
    1.9489    4.7301   14.9203 C   0  0  0  0  0  0  0  0  0  0  0  0
    1.4310    4.0561   13.8808 N   0  0  0  0  0  0  0  0  0  0  0  0
    1.4414    2.7277   13.7576 C   0  0  0  0  0  0  0  0  0  0  0  0
    2.0344    2.0466   14.7924 N   0  0  0  0  0  0  0  0  0  0  0  0
    2.5622    2.6758   15.8455 C   0  0  0  0  0  0  0  0  0  0  0  0
    3.3545    5.7841   17.6579 C   0  0  0  0  0  0  0  0  0  0  0  0
    3.6603    6.9095   16.8771 N   0  0  0  0  0  0  0  0  0  0  0  0
    3.2365    5.9183   18.9257 O   0  0  0  0  0  0  0  0  0  0  0  0
    2.8938    7.5428   16.5605 H   0  0  0  0  0  0  0  0  0  0  0  0
    4.6249    7.1739   16.5769 H   0  0  0  0  0  0  0  0  0  0  0  0
    0.9048    1.9932   12.6734 N   0  0  0  0  0  0  0  0  0  0  0  0
   -0.1260    1.7061   12.7763 H   0  0  0  0  0  0  0  0  0  0  0  0
    1.5126    1.5886   11.4863 C   0  0  0  0  0  0  0  0  0  0  0  0
    0.8249    0.8513   10.5528 C   0  0  0  0  0  0  0  0  0  0  0  0
    1.4375    0.4776    9.3621 C   0  0  0  0  0  0  0  0  0  0  0  0
    2.7254    0.8562    9.1449 C   0  0  0  0  0  0  0  0  0  0  0  0
    3.4997    0.3899    7.6512 Cl  0  0  0  0  0  0  0  0  0  0  0  0
    3.4379    1.5929   10.0601 C   0  0  0  0  0  0  0  0  0  0  0  0
    2.8447    1.9619   11.2264 C   0  0  0  0  0  0  0  0  0  0  0  0
  1  2  1  0  0  0
  2  3  1  0  0  0
  3  4  2  0  0  0
  4 11  1  0  0  0
 11 12  1  0  0  0
 11 13  2  0  0  0
  4  5  1  0  0  0
  5  6  2  0  0  0
  6  7  1  0  0  0
  7  8  2  0  0  0
  8 16  1  0  0  0
 16 18  1  0  0  0
 18 19  2  0  0  0
 19 20  1  0  0  0
 20 21  2  0  0  0
 21 22  1  0  0  0
 21 23  1  0  0  0
 23 24  2  0  0  0
  8  9  1  0  0  0
  9 10  2  0  0  0
 10  2  1  0  0  0
 10  5  1  0  0  0
 24 18  1  0  0  0
 12 14  1  0  0  0
 12 15  1  0  0  0
 16 17  1  0  0  0
M  END
> <minimizedAffinity>
-5.27615

> <CNNscore>
0.1465025097

> <CNNaffinity>
4.8922076225

> <CNN_VS>
0.7167207003

> <CNNaffinity_variance>
0.2149383277

$$$$
[H]c1c([H])c(N([H])c2nc([H])c3c(C(=O)N([H])[H])nn(C([H])([H])[H])c3n2)c([H])c([H])c1Cl


 24 26  0  0  0  0  0  0  0  0999 V2000
    4.2522    3.0674    9.6013 C   0  0  0  0  0  0  0  0  0  0  0  0
    3.3668    4.0361   10.2083 N   0  0  0  0  0  0  0  0  0  0  0  0
    2.9879    5.2059    9.7323 N   0  0  0  0  0  0  0  0  0  0  0  0
    2.1542    5.8260   10.5887 C   0  0  0  0  0  0  0  0  0  0  0  0
    2.0329    4.9555   11.6493 C   0  0  0  0  0  0  0  0  0  0  0  0
    1.3367    4.9831   12.8418 C   0  0  0  0  0  0  0  0  0  0  0  0
    1.4201    3.9529   13.6990 N   0  0  0  0  0  0  0  0  0  0  0  0
    2.1480    2.8537   13.4946 C   0  0  0  0  0  0  0  0  0  0  0  0
    2.8425    2.8211   12.3101 N   0  0  0  0  0  0  0  0  0  0  0  0
    2.7888    3.8229   11.4285 C   0  0  0  0  0  0  0  0  0  0  0  0
    1.5313    7.1320   10.4076 C   0  0  0  0  0  0  0  0  0  0  0  0
    2.2116    8.3590   10.4442 N   0  0  0  0  0  0  0  0  0  0  0  0
    0.2677    7.1256   10.2014 O   0  0  0  0  0  0  0  0  0  0  0  0
    2.5335    8.7984    9.5542 H   0  0  0  0  0  0  0  0  0  0  0  0
    2.4294    8.8860   11.3191 H   0  0  0  0  0  0  0  0  0  0  0  0
    2.2522    1.7541   14.3794 N   0  0  0  0  0  0  0  0  0  0  0  0
    1.7685    0.8516   14.0521 H   0  0  0  0  0  0  0  0  0  0  0  0
    2.8933    1.6637   15.6135 C   0  0  0  0  0  0  0  0  0  0  0  0
    3.8246    2.5975   15.9991 C   0  0  0  0  0  0  0  0  0  0  0  0
    4.4363    2.5075   17.2443 C   0  0  0  0  0  0  0  0  0  0  0  0
    4.0935    1.4797   18.0661 C   0  0  0  0  0  0  0  0  0  0  0  0
    4.8583    1.3620   19.6311 Cl  0  0  0  0  0  0  0  0  0  0  0  0
    3.1664    0.5313   17.7074 C   0  0  0  0  0  0  0  0  0  0  0  0
    2.5643    0.6135   16.4912 C   0  0  0  0  0  0  0  0  0  0  0  0
  1  2  1  0  0  0
  2  3  1  0  0  0
  3  4  2  0  0  0
  4 11  1  0  0  0
 11 12  1  0  0  0
 11 13  2  0  0  0
  4  5  1  0  0  0
  5  6  2  0  0  0
  6  7  1  0  0  0
  7  8  2  0  0  0
  8 16  1  0  0  0
 16 18  1  0  0  0
 18 19  2  0  0  0
 19 20  1  0  0  0
 20 21  2  0  0  0
 21 22  1  0  0  0
 21 23  1  0  0  0
 23 24  2  0  0  0
  8  9  1  0  0  0
  9 10  2  0  0  0
 10  2  1  0  0  0
 10  5  1  0  0  0
 24 18  1  0  0  0
 12 14  1  0  0  0
 12 15  1  0  0  0
 16 17  1  0  0  0
M  END
> <minimizedAffinity>
-5.94591

> <CNNscore>
0.1415847540

> <CNNaffinity>
4.7191171646

> <CNN_VS>
0.6681550145

> <CNNaffinity_variance>
0.0777720362

$$$$
[H]c1c([H])c(N([H])c2nc([H])c3c(C(=O)N([H])[H])nn(C([H])([H])[H])c3n2)c([H])c([H])c1Cl


 24 26  0  0  0  0  0  0  0  0999 V2000
    2.5487    2.3506   14.0704 C   0  0  0  0  0  0  0  0  0  0  0  0
    2.9175    3.5731   14.7488 N   0  0  0  0  0  0  0  0  0  0  0  0
    2.8894    4.8058   14.2818 N   0  0  0  0  0  0  0  0  0  0  0  0
    3.3088    5.6826   15.2137 C   0  0  0  0  0  0  0  0  0  0  0  0
    3.6062    4.9074   16.3129 C   0  0  0  0  0  0  0  0  0  0  0  0
    4.0769    5.1791   17.5827 C   0  0  0  0  0  0  0  0  0  0  0  0
    4.2730    4.1818   18.4601 N   0  0  0  0  0  0  0  0  0  0  0  0
    4.0441    2.8922   18.2059 C   0  0  0  0  0  0  0  0  0  0  0  0
    3.5759    2.6166   16.9443 N   0  0  0  0  0  0  0  0  0  0  0  0
    3.3664    3.5767   16.0400 C   0  0  0  0  0  0  0  0  0  0  0  0
    3.4146    7.1292   15.0649 C   0  0  0  0  0  0  0  0  0  0  0  0
    2.3439    7.9875   14.7704 N   0  0  0  0  0  0  0  0  0  0  0  0
    4.5854    7.6237   15.2204 O   0  0  0  0  0  0  0  0  0  0  0  0
    1.8426    8.4735   15.5459 H   0  0  0  0  0  0  0  0  0  0  0  0
    1.9961    8.1861   13.8060 H   0  0  0  0  0  0  0  0  0  0  0  0
    4.2405    1.8229   19.1117 N   0  0  0  0  0  0  0  0  0  0  0  0
    4.1078    0.8390   18.6993 H   0  0  0  0  0  0  0  0  0  0  0  0
    4.5855    1.8532   20.4616 C   0  0  0  0  0  0  0  0  0  0  0  0
    3.6456    1.6320   21.4391 C   0  0  0  0  0  0  0  0  0  0  0  0
    4.0112    1.6400   22.7804 C   0  0  0  0  0  0  0  0  0  0  0  0
    5.3126    1.8710   23.0999 C   0  0  0  0  0  0  0  0  0  0  0  0
    5.7774    1.8819   24.7827 Cl  0  0  0  0  0  0  0  0  0  0  0  0
    6.2740    2.0958   22.1443 C   0  0  0  0  0  0  0  0  0  0  0  0
    5.9232    2.0891   20.8308 C   0  0  0  0  0  0  0  0  0  0  0  0
  1  2  1  0  0  0
  2  3  1  0  0  0
  3  4  2  0  0  0
  4 11  1  0  0  0
 11 12  1  0  0  0
 11 13  2  0  0  0
  4  5  1  0  0  0
  5  6  2  0  0  0
  6  7  1  0  0  0
  7  8  2  0  0  0
  8 16  1  0  0  0
 16 18  1  0  0  0
 18 19  2  0  0  0
 19 20  1  0  0  0
 20 21  2  0  0  0
 21 22  1  0  0  0
 21 23  1  0  0  0
 23 24  2  0  0  0
  8  9  1  0  0  0
  9 10  2  0  0  0
 10  2  1  0  0  0
 10  5  1  0  0  0
 24 18  1  0  0  0
 12 14  1  0  0  0
 12 15  1  0  0  0
 16 17  1  0  0  0
M  END
> <minimizedAffinity>
-6.45493

> <CNNscore>
0.1338720918

> <CNNaffinity>
5.3529748917

> <CNN_VS>
0.7166139483

> <CNNaffinity_variance>
0.3599056005

$$$$
[H]c1nc(OC([H])([H])c2c(-c3c([H])c([H])c([H])c([H])c3[H])noc2C([H])([H])[H])c([H])c([H])c1C(=O)N1C([H])([H])C([H])([H])C([H])([H])C1([H])[H]


 27 30  0  0  0  0  0  0  0  0999 V2000
    4.2111    2.5834   17.4601 O   0  0  0  0  0  0  0  0  0  0  0  0
    3.5287    3.3825   16.6506 C   0  0  0  0  0  0  0  0  0  0  0  0
    3.6568    3.1271   15.2561 C   0  0  0  0  0  0  0  0  0  0  0  0
    3.0065    3.8861   14.3720 C   0  0  0  0  0  0  0  0  0  0  0  0
    2.1710    4.9613   14.7489 C   0  0  0  0  0  0  0  0  0  0  0  0
    2.0730    5.1763   16.1012 C   0  0  0  0  0  0  0  0  0  0  0  0
    2.7382    4.3912   16.9538 N   0  0  0  0  0  0  0  0  0  0  0  0
    1.6531    5.7686   13.6971 C   0  0  0  0  0  0  0  0  0  0  0  0
    2.0074    7.0887   13.7752 O   0  0  0  0  0  0  0  0  0  0  0  0
    0.8749    5.5721   12.5719 N   0  0  0  0  0  0  0  0  0  0  0  0
    0.1957    4.4137   12.0506 C   0  0  0  0  0  0  0  0  0  0  0  0
   -0.6640    4.8906   10.8848 C   0  0  0  0  0  0  0  0  0  0  0  0
   -0.6744    6.3750   11.0518 C   0  0  0  0  0  0  0  0  0  0  0  0
    0.7121    6.6257   11.5375 C   0  0  0  0  0  0  0  0  0  0  0  0
    4.8172    1.7625   18.2535 C   0  0  0  0  0  0  0  0  0  0  0  0
    2.6008    0.0544   16.7967 C   0  0  0  0  0  0  0  0  0  0  0  0
    2.8047    0.1212   18.2467 C   0  0  0  0  0  0  0  0  0  0  0  0
    2.0744   -0.4730   19.1933 O   0  0  0  0  0  0  0  0  0  0  0  0
    2.5235   -0.2000   20.3771 N   0  0  0  0  0  0  0  0  0  0  0  0
    3.6212    0.6208   20.2571 C   0  0  0  0  0  0  0  0  0  0  0  0
    3.7924    0.8068   18.9146 C   0  0  0  0  0  0  0  0  0  0  0  0
    4.1977    1.3896   21.3801 C   0  0  0  0  0  0  0  0  0  0  0  0
    3.6418    2.0418   22.3583 C   0  0  0  0  0  0  0  0  0  0  0  0
    4.4048    2.6144   23.4005 C   0  0  0  0  0  0  0  0  0  0  0  0
    5.7441    2.5006   23.4167 C   0  0  0  0  0  0  0  0  0  0  0  0
    6.3685    1.8127   22.3802 C   0  0  0  0  0  0  0  0  0  0  0  0
    5.6457    1.2685   21.3768 C   0  0  0  0  0  0  0  0  0  0  0  0
 16 17  1  0  0  0
 17 18  1  0  0  0
 18 19  1  0  0  0
 19 20  2  0  0  0
 20 21  1  0  0  0
 21 15  1  0  0  0
 15  1  1  0  0  0
  1  2  1  0  0  0
  2  3  2  0  0  0
  3  4  1  0  0  0
  4  5  2  0  0  0
  5  6  1  0  0  0
  6  7  2  0  0  0
  5  8  1  0  0  0
  8  9  2  0  0  0
  8 10  1  0  0  0
 10 11  1  0  0  0
 11 12  1  0  0  0
 12 13  1  0  0  0
 13 14  1  0  0  0
 20 22  1  0  0  0
 22 23  2  0  0  0
 23 24  1  0  0  0
 24 25  2  0  0  0
 25 26  1  0  0  0
 26 27  2  0  0  0
 21 17  2  0  0  0
  7  2  1  0  0  0
 14 10  1  0  0  0
 27 22  1  0  0  0
M  END
> <minimizedAffinity>
-7.98787

> <CNNscore>
0.8166531920

> <CNNaffinity>
6.2968144417

> <CNN_VS>
5.1423134804

> <CNNaffinity_variance>
0.4361640513

$$$$
[H]c1nc(OC([H])([H])c2c(-c3c([H])c([H])c([H])c([H])c3[H])noc2C([H])([H])[H])c([H])c([H])c1C(=O)N1C([H])([H])C([H])([H])C([H])([H])C1([H])[H]


 27 30  0  0  0  0  0  0  0  0999 V2000
    3.5216    3.5382   13.4474 O   0  0  0  0  0  0  0  0  0  0  0  0
    3.5241    2.9339   14.6283 C   0  0  0  0  0  0  0  0  0  0  0  0
    2.7717    1.7293   14.7226 C   0  0  0  0  0  0  0  0  0  0  0  0
    2.7182    1.0596   15.8756 C   0  0  0  0  0  0  0  0  0  0  0  0
    3.3859    1.4873   17.0449 C   0  0  0  0  0  0  0  0  0  0  0  0
    4.1004    2.6522   16.9146 C   0  0  0  0  0  0  0  0  0  0  0  0
    4.1309    3.2909   15.7413 N   0  0  0  0  0  0  0  0  0  0  0  0
    3.1273    0.7507   18.2353 C   0  0  0  0  0  0  0  0  0  0  0  0
    2.2200   -0.2632   18.0830 O   0  0  0  0  0  0  0  0  0  0  0  0
    3.5695    0.7728   19.5446 N   0  0  0  0  0  0  0  0  0  0  0  0
    4.4624    1.6531   20.2537 C   0  0  0  0  0  0  0  0  0  0  0  0
    4.3835    1.2715   21.7281 C   0  0  0  0  0  0  0  0  0  0  0  0
    3.1648    0.4102   21.7942 C   0  0  0  0  0  0  0  0  0  0  0  0
    3.2511   -0.3208   20.4982 C   0  0  0  0  0  0  0  0  0  0  0  0
    3.4508    4.1044   12.2877 C   0  0  0  0  0  0  0  0  0  0  0  0
    3.7167    2.2140    9.7761 C   0  0  0  0  0  0  0  0  0  0  0  0
    2.4559    2.7069   10.3379 C   0  0  0  0  0  0  0  0  0  0  0  0
    1.2243    2.4931    9.8690 O   0  0  0  0  0  0  0  0  0  0  0  0
    0.3316    3.0800   10.6012 N   0  0  0  0  0  0  0  0  0  0  0  0
    0.9642    3.7337   11.6337 C   0  0  0  0  0  0  0  0  0  0  0  0
    2.2961    3.4835   11.4619 C   0  0  0  0  0  0  0  0  0  0  0  0
    0.3153    4.7618   12.4740 C   0  0  0  0  0  0  0  0  0  0  0  0
    0.7804    5.5326   13.4126 C   0  0  0  0  0  0  0  0  0  0  0  0
   -0.0105    6.5397   14.0097 C   0  0  0  0  0  0  0  0  0  0  0  0
   -1.2821    6.7379   13.6215 C   0  0  0  0  0  0  0  0  0  0  0  0
   -1.8099    5.9251   12.6225 C   0  0  0  0  0  0  0  0  0  0  0  0
   -1.0616    4.9556   12.0520 C   0  0  0  0  0  0  0  0  0  0  0  0
 16 17  1  0  0  0
 17 18  1  0  0  0
 18 19  1  0  0  0
 19 20  2  0  0  0
 20 21  1  0  0  0
 21 15  1  0  0  0
 15  1  1  0  0  0
  1  2  1  0  0  0
  2  3  2  0  0  0
  3  4  1  0  0  0
  4  5  2  0  0  0
  5  6  1  0  0  0
  6  7  2  0  0  0
  5  8  1  0  0  0
  8  9  2  0  0  0
  8 10  1  0  0  0
 10 11  1  0  0  0
 11 12  1  0  0  0
 12 13  1  0  0  0
 13 14  1  0  0  0
 20 22  1  0  0  0
 22 23  2  0  0  0
 23 24  1  0  0  0
 24 25  2  0  0  0
 25 26  1  0  0  0
 26 27  2  0  0  0
 21 17  2  0  0  0
  7  2  1  0  0  0
 14 10  1  0  0  0
 27 22  1  0  0  0
M  END
> <minimizedAffinity>
-7.78905

> <CNNscore>
0.7559611797

> <CNNaffinity>
6.1291594505

> <CNN_VS>
4.6334066391

> <CNNaffinity_variance>
0.2675645649

$$$$
[H]c1nc(OC([H])([H])c2c(-c3c([H])c([H])c([H])c([H])c3[H])noc2C([H])([H])[H])c([H])c([H])c1C(=O)N1C([H])([H])C([H])([H])C([H])([H])C1([H])[H]


 27 30  0  0  0  0  0  0  0  0999 V2000
    4.7454    3.0143   18.3695 O   0  0  0  0  0  0  0  0  0  0  0  0
    4.7700    4.1394   19.0717 C   0  0  0  0  0  0  0  0  0  0  0  0
    5.6932    5.1331   18.6399 C   0  0  0  0  0  0  0  0  0  0  0  0
    5.7847    6.2935   19.2923 C   0  0  0  0  0  0  0  0  0  0  0  0
    4.9942    6.6054   20.4210 C   0  0  0  0  0  0  0  0  0  0  0  0
    4.1166    5.6229   20.8070 C   0  0  0  0  0  0  0  0  0  0  0  0
    4.0536    4.4758   20.1244 N   0  0  0  0  0  0  0  0  0  0  0  0
    5.2963    7.8207   21.0979 C   0  0  0  0  0  0  0  0  0  0  0  0
    4.5968    8.9062   20.6433 O   0  0  0  0  0  0  0  0  0  0  0  0
    6.1218    8.2130   22.1347 N   0  0  0  0  0  0  0  0  0  0  0  0
    7.0995    7.5038   22.9197 C   0  0  0  0  0  0  0  0  0  0  0  0
    7.8222    8.5419   23.7716 C   0  0  0  0  0  0  0  0  0  0  0  0
    7.4275    9.8372   23.1411 C   0  0  0  0  0  0  0  0  0  0  0  0
    6.0150    9.5582   22.7559 C   0  0  0  0  0  0  0  0  0  0  0  0
    4.7833    1.8987   17.7179 C   0  0  0  0  0  0  0  0  0  0  0  0
    2.2775    0.6485   16.2651 C   0  0  0  0  0  0  0  0  0  0  0  0
    2.6499    0.4188   17.6640 C   0  0  0  0  0  0  0  0  0  0  0  0
    1.9838   -0.3016   18.5694 O   0  0  0  0  0  0  0  0  0  0  0  0
    2.5862   -0.2929   19.7160 N   0  0  0  0  0  0  0  0  0  0  0  0
    3.7295    0.4655   19.6110 C   0  0  0  0  0  0  0  0  0  0  0  0
    3.7622    0.8983   18.3157 C   0  0  0  0  0  0  0  0  0  0  0  0
    4.4937    0.9634   20.7740 C   0  0  0  0  0  0  0  0  0  0  0  0
    5.7710    1.1016   20.9756 C   0  0  0  0  0  0  0  0  0  0  0  0
    6.2788    1.7180   22.1411 C   0  0  0  0  0  0  0  0  0  0  0  0
    5.4497    2.1888   23.0887 C   0  0  0  0  0  0  0  0  0  0  0  0
    4.0770    2.0507   22.9037 C   0  0  0  0  0  0  0  0  0  0  0  0
    3.5847    1.4562   21.7949 C   0  0  0  0  0  0  0  0  0  0  0  0
 16 17  1  0  0  0
 17 18  1  0  0  0
 18 19  1  0  0  0
 19 20  2  0  0  0
 20 21  1  0  0  0
 21 15  1  0  0  0
 15  1  1  0  0  0
  1  2  1  0  0  0
  2  3  2  0  0  0
  3  4  1  0  0  0
  4  5  2  0  0  0
  5  6  1  0  0  0
  6  7  2  0  0  0
  5  8  1  0  0  0
  8  9  2  0  0  0
  8 10  1  0  0  0
 10 11  1  0  0  0
 11 12  1  0  0  0
 12 13  1  0  0  0
 13 14  1  0  0  0
 20 22  1  0  0  0
 22 23  2  0  0  0
 23 24  1  0  0  0
 24 25  2  0  0  0
 25 26  1  0  0  0
 26 27  2  0  0  0
 21 17  2  0  0  0
  7  2  1  0  0  0
 14 10  1  0  0  0
 27 22  1  0  0  0
M  END
> <minimizedAffinity>
-8.73968

> <CNNscore>
0.7088176012

> <CNNaffinity>
6.4775710106

> <CNN_VS>
4.5914163589

> <CNNaffinity_variance>
0.2878078818

$$$$
[H]c1nc(OC([H])([H])c2c(-c3c([H])c([H])c([H])c([H])c3[H])noc2C([H])([H])[H])c([H])c([H])c1C(=O)N1C([H])([H])C([H])([H])C([H])([H])C1([H])[H]


 27 30  0  0  0  0  0  0  0  0999 V2000
    3.1034    3.7902   13.3512 O   0  0  0  0  0  0  0  0  0  0  0  0
    3.2158    3.1475   14.5061 C   0  0  0  0  0  0  0  0  0  0  0  0
    2.5783    1.8773   14.5864 C   0  0  0  0  0  0  0  0  0  0  0  0
    2.6395    1.1653   15.7133 C   0  0  0  0  0  0  0  0  0  0  0  0
    3.3219    1.6101   16.8678 C   0  0  0  0  0  0  0  0  0  0  0  0
    3.9234    2.8386   16.7517 C   0  0  0  0  0  0  0  0  0  0  0  0
    3.8412    3.5184   15.6042 N   0  0  0  0  0  0  0  0  0  0  0  0
    3.1866    0.8118   18.0386 C   0  0  0  0  0  0  0  0  0  0  0  0
    2.5314   -0.3734   17.8382 O   0  0  0  0  0  0  0  0  0  0  0  0
    3.5630    0.9051   19.3652 N   0  0  0  0  0  0  0  0  0  0  0  0
    4.2125    1.9460   20.1199 C   0  0  0  0  0  0  0  0  0  0  0  0
    4.1635    1.5279   21.5857 C   0  0  0  0  0  0  0  0  0  0  0  0
    3.1628    0.4190   21.5921 C   0  0  0  0  0  0  0  0  0  0  0  0
    3.4571   -0.2500   20.2933 C   0  0  0  0  0  0  0  0  0  0  0  0
    2.9249    4.3940   12.2224 C   0  0  0  0  0  0  0  0  0  0  0  0
    3.5202    7.3570   13.1271 C   0  0  0  0  0  0  0  0  0  0  0  0
    4.3672    6.5536   12.2409 C   0  0  0  0  0  0  0  0  0  0  0  0
    5.4898    6.9382   11.6290 O   0  0  0  0  0  0  0  0  0  0  0  0
    5.9874    5.9823   10.9106 N   0  0  0  0  0  0  0  0  0  0  0  0
    5.1797    4.8743   11.0251 C   0  0  0  0  0  0  0  0  0  0  0  0
    4.1719    5.2435   11.8702 C   0  0  0  0  0  0  0  0  0  0  0  0
    5.2458    3.7128   10.1135 C   0  0  0  0  0  0  0  0  0  0  0  0
    4.3150    2.9948    9.5574 C   0  0  0  0  0  0  0  0  0  0  0  0
    4.6153    1.9877    8.6129 C   0  0  0  0  0  0  0  0  0  0  0  0
    5.8860    1.7378    8.2526 C   0  0  0  0  0  0  0  0  0  0  0  0
    6.9048    2.4865    8.8347 C   0  0  0  0  0  0  0  0  0  0  0  0
    6.6255    3.4462    9.7436 C   0  0  0  0  0  0  0  0  0  0  0  0
 16 17  1  0  0  0
 17 18  1  0  0  0
 18 19  1  0  0  0
 19 20  2  0  0  0
 20 21  1  0  0  0
 21 15  1  0  0  0
 15  1  1  0  0  0
  1  2  1  0  0  0
  2  3  2  0  0  0
  3  4  1  0  0  0
  4  5  2  0  0  0
  5  6  1  0  0  0
  6  7  2  0  0  0
  5  8  1  0  0  0
  8  9  2  0  0  0
  8 10  1  0  0  0
 10 11  1  0  0  0
 11 12  1  0  0  0
 12 13  1  0  0  0
 13 14  1  0  0  0
 20 22  1  0  0  0
 22 23  2  0  0  0
 23 24  1  0  0  0
 24 25  2  0  0  0
 25 26  1  0  0  0
 26 27  2  0  0  0
 21 17  2  0  0  0
  7  2  1  0  0  0
 14 10  1  0  0  0
 27 22  1  0  0  0
M  END
> <minimizedAffinity>
-7.06880

> <CNNscore>
0.6351617575

> <CNNaffinity>
5.9079313278

> <CNN_VS>
3.7524919510

> <CNNaffinity_variance>
0.2188708037

$$$$
[H]c1nc(OC([H])([H])c2c(-c3c([H])c([H])c([H])c([H])c3[H])noc2C([H])([H])[H])c([H])c([H])c1C(=O)N1C([H])([H])C([H])([H])C([H])([H])C1([H])[H]


 27 30  0  0  0  0  0  0  0  0999 V2000
    3.3827    3.5706   13.3907 O   0  0  0  0  0  0  0  0  0  0  0  0
    3.4367    2.9452   14.5593 C   0  0  0  0  0  0  0  0  0  0  0  0
    2.6679    1.7526   14.6732 C   0  0  0  0  0  0  0  0  0  0  0  0
    2.6632    1.0632   15.8157 C   0  0  0  0  0  0  0  0  0  0  0  0
    3.4000    1.4578   16.9549 C   0  0  0  0  0  0  0  0  0  0  0  0
    4.1282    2.6120   16.8064 C   0  0  0  0  0  0  0  0  0  0  0  0
    4.1084    3.2712   15.6442 N   0  0  0  0  0  0  0  0  0  0  0  0
    3.1913    0.7046   18.1446 C   0  0  0  0  0  0  0  0  0  0  0  0
    2.5122   -0.4689   17.9550 O   0  0  0  0  0  0  0  0  0  0  0  0
    3.5118    0.8339   19.4828 N   0  0  0  0  0  0  0  0  0  0  0  0
    4.1568    1.8827   20.2304 C   0  0  0  0  0  0  0  0  0  0  0  0
    4.0320    1.5173   21.7057 C   0  0  0  0  0  0  0  0  0  0  0  0
    3.0010    0.4363   21.7047 C   0  0  0  0  0  0  0  0  0  0  0  0
    3.3329   -0.2850   20.4435 C   0  0  0  0  0  0  0  0  0  0  0  0
    3.3907    4.2153   12.2705 C   0  0  0  0  0  0  0  0  0  0  0  0
    1.6049    6.0552   14.1085 C   0  0  0  0  0  0  0  0  0  0  0  0
    2.7382    6.5096   13.2977 C   0  0  0  0  0  0  0  0  0  0  0  0
    3.1770    7.7621   13.1526 O   0  0  0  0  0  0  0  0  0  0  0  0
    4.1975    7.8159   12.3568 N   0  0  0  0  0  0  0  0  0  0  0  0
    4.4914    6.5429   11.9252 C   0  0  0  0  0  0  0  0  0  0  0  0
    3.5739    5.7318   12.5306 C   0  0  0  0  0  0  0  0  0  0  0  0
    5.3720    6.2492   10.7752 C   0  0  0  0  0  0  0  0  0  0  0  0
    6.4990    5.6057   10.6900 C   0  0  0  0  0  0  0  0  0  0  0  0
    7.1154    5.3442    9.4458 C   0  0  0  0  0  0  0  0  0  0  0  0
    6.5500    5.7539    8.2972 C   0  0  0  0  0  0  0  0  0  0  0  0
    5.3460    6.4498    8.3564 C   0  0  0  0  0  0  0  0  0  0  0  0
    4.7545    6.7094    9.5430 C   0  0  0  0  0  0  0  0  0  0  0  0
 16 17  1  0  0  0
 17 18  1  0  0  0
 18 19  1  0  0  0
 19 20  2  0  0  0
 20 21  1  0  0  0
 21 15  1  0  0  0
 15  1  1  0  0  0
  1  2  1  0  0  0
  2  3  2  0  0  0
  3  4  1  0  0  0
  4  5  2  0  0  0
  5  6  1  0  0  0
  6  7  2  0  0  0
  5  8  1  0  0  0
  8  9  2  0  0  0
  8 10  1  0  0  0
 10 11  1  0  0  0
 11 12  1  0  0  0
 12 13  1  0  0  0
 13 14  1  0  0  0
 20 22  1  0  0  0
 22 23  2  0  0  0
 23 24  1  0  0  0
 24 25  2  0  0  0
 25 26  1  0  0  0
 26 27  2  0  0  0
 21 17  2  0  0  0
  7  2  1  0  0  0
 14 10  1  0  0  0
 27 22  1  0  0  0
M  END
> <minimizedAffinity>
-7.11744

> <CNNscore>
0.5068029165

> <CNNaffinity>
5.5465779305

> <CNN_VS>
2.8110218048

> <CNNaffinity_variance>
0.2881919742

$$$$
[H]c1nc(OC([H])([H])c2c(-c3c([H])c([H])c([H])c([H])c3[H])noc2C([H])([H])[H])c([H])c([H])c1C(=O)N1C([H])([H])C([H])([H])C([H])([H])C1([H])[H]


 27 30  0  0  0  0  0  0  0  0999 V2000
    2.7204    3.2641   12.8672 O   0  0  0  0  0  0  0  0  0  0  0  0
    3.0498    2.9110   14.1027 C   0  0  0  0  0  0  0  0  0  0  0  0
    2.4884    1.6942   14.5825 C   0  0  0  0  0  0  0  0  0  0  0  0
    2.7655    1.2672   15.8160 C   0  0  0  0  0  0  0  0  0  0  0  0
    3.6107    1.9721   16.7020 C   0  0  0  0  0  0  0  0  0  0  0  0
    4.1325    3.1400   16.2037 C   0  0  0  0  0  0  0  0  0  0  0  0
    3.8326    3.5308   14.9615 N   0  0  0  0  0  0  0  0  0  0  0  0
    3.7052    1.4712   18.0310 C   0  0  0  0  0  0  0  0  0  0  0  0
    3.0460    0.2887   18.2343 O   0  0  0  0  0  0  0  0  0  0  0  0
    4.3149    1.8605   19.2088 N   0  0  0  0  0  0  0  0  0  0  0  0
    5.0720    3.0316   19.5698 C   0  0  0  0  0  0  0  0  0  0  0  0
    5.2980    2.9667   21.0766 C   0  0  0  0  0  0  0  0  0  0  0  0
    4.3354    1.9150   21.5223 C   0  0  0  0  0  0  0  0  0  0  0  0
    4.4006    0.9555   20.3837 C   0  0  0  0  0  0  0  0  0  0  0  0
    2.4617    3.6452   11.6596 C   0  0  0  0  0  0  0  0  0  0  0  0
    5.4203    4.5948   11.1146 C   0  0  0  0  0  0  0  0  0  0  0  0
    4.2595    5.4770   11.2640 C   0  0  0  0  0  0  0  0  0  0  0  0
    4.2522    6.8120   11.2489 O   0  0  0  0  0  0  0  0  0  0  0  0
    3.0560    7.2798   11.4160 N   0  0  0  0  0  0  0  0  0  0  0  0
    2.1821    6.2256   11.5515 C   0  0  0  0  0  0  0  0  0  0  0  0
    2.9491    5.1002   11.4447 C   0  0  0  0  0  0  0  0  0  0  0  0
    0.8051    6.3628   12.0704 C   0  0  0  0  0  0  0  0  0  0  0  0
   -0.3536    6.1711   11.5117 C   0  0  0  0  0  0  0  0  0  0  0  0
   -1.5576    6.2524   12.2467 C   0  0  0  0  0  0  0  0  0  0  0  0
   -1.5447    6.5310   13.5616 C   0  0  0  0  0  0  0  0  0  0  0  0
   -0.3198    6.7464   14.1867 C   0  0  0  0  0  0  0  0  0  0  0  0
    0.8349    6.6771   13.4887 C   0  0  0  0  0  0  0  0  0  0  0  0
 16 17  1  0  0  0
 17 18  1  0  0  0
 18 19  1  0  0  0
 19 20  2  0  0  0
 20 21  1  0  0  0
 21 15  1  0  0  0
 15  1  1  0  0  0
  1  2  1  0  0  0
  2  3  2  0  0  0
  3  4  1  0  0  0
  4  5  2  0  0  0
  5  6  1  0  0  0
  6  7  2  0  0  0
  5  8  1  0  0  0
  8  9  2  0  0  0
  8 10  1  0  0  0
 10 11  1  0  0  0
 11 12  1  0  0  0
 12 13  1  0  0  0
 13 14  1  0  0  0
 20 22  1  0  0  0
 22 23  2  0  0  0
 23 24  1  0  0  0
 24 25  2  0  0  0
 25 26  1  0  0  0
 26 27  2  0  0  0
 21 17  2  0  0  0
  7  2  1  0  0  0
 14 10  1  0  0  0
 27 22  1  0  0  0
M  END
> <minimizedAffinity>
-7.39227

> <CNNscore>
0.4990771115

> <CNNaffinity>
5.7364177704

> <CNN_VS>
2.8629148006

> <CNNaffinity_variance>
0.2221679240

$$$$
[H]c1nc(OC([H])([H])c2c(-c3c([H])c([H])c([H])c([H])c3[H])noc2C([H])([H])[H])c([H])c([H])c1C(=O)N1C([H])([H])C([H])([H])C([H])([H])C1([H])[H]


 27 30  0  0  0  0  0  0  0  0999 V2000
    3.8800    5.2793   20.2797 O   0  0  0  0  0  0  0  0  0  0  0  0
    3.5711    4.7868   19.0873 C   0  0  0  0  0  0  0  0  0  0  0  0
    4.2691    3.6118   18.6895 C   0  0  0  0  0  0  0  0  0  0  0  0
    4.0212    3.0527   17.5035 C   0  0  0  0  0  0  0  0  0  0  0  0
    3.0766    3.5728   16.5906 C   0  0  0  0  0  0  0  0  0  0  0  0
    2.4244    4.7058   17.0095 C   0  0  0  0  0  0  0  0  0  0  0  0
    2.6995    5.2326   18.2064 N   0  0  0  0  0  0  0  0  0  0  0  0
    3.0171    2.9549   15.3096 C   0  0  0  0  0  0  0  0  0  0  0  0
    3.2647    1.6085   15.3229 O   0  0  0  0  0  0  0  0  0  0  0  0
    2.7538    3.3563   14.0135 N   0  0  0  0  0  0  0  0  0  0  0  0
    2.4945    4.6476   13.4301 C   0  0  0  0  0  0  0  0  0  0  0  0
    2.4848    4.4571   11.9171 C   0  0  0  0  0  0  0  0  0  0  0  0
    3.0944    3.1051   11.7383 C   0  0  0  0  0  0  0  0  0  0  0  0
    2.5445    2.3767   12.9165 C   0  0  0  0  0  0  0  0  0  0  0  0
    4.1208    5.7283   21.4675 C   0  0  0  0  0  0  0  0  0  0  0  0
    6.7015    7.5392   21.5804 C   0  0  0  0  0  0  0  0  0  0  0  0
    6.6524    6.1101   21.9023 C   0  0  0  0  0  0  0  0  0  0  0  0
    7.6758    5.3232   22.2429 O   0  0  0  0  0  0  0  0  0  0  0  0
    7.2858    4.1064   22.4548 N   0  0  0  0  0  0  0  0  0  0  0  0
    5.9259    4.0354   22.2573 C   0  0  0  0  0  0  0  0  0  0  0  0
    5.5398    5.3018   21.9203 C   0  0  0  0  0  0  0  0  0  0  0  0
    5.1855    2.7667   22.0947 C   0  0  0  0  0  0  0  0  0  0  0  0
    3.9790    2.4189   22.4339 C   0  0  0  0  0  0  0  0  0  0  0  0
    3.4337    1.1679   22.0679 C   0  0  0  0  0  0  0  0  0  0  0  0
    4.1505    0.2880   21.3475 C   0  0  0  0  0  0  0  0  0  0  0  0
    5.4471    0.6297   20.9740 C   0  0  0  0  0  0  0  0  0  0  0  0
    5.9774    1.8213   21.3263 C   0  0  0  0  0  0  0  0  0  0  0  0
 16 17  1  0  0  0
 17 18  1  0  0  0
 18 19  1  0  0  0
 19 20  2  0  0  0
 20 21  1  0  0  0
 21 15  1  0  0  0
 15  1  1  0  0  0
  1  2  1  0  0  0
  2  3  2  0  0  0
  3  4  1  0  0  0
  4  5  2  0  0  0
  5  6  1  0  0  0
  6  7  2  0  0  0
  5  8  1  0  0  0
  8  9  2  0  0  0
  8 10  1  0  0  0
 10 11  1  0  0  0
 11 12  1  0  0  0
 12 13  1  0  0  0
 13 14  1  0  0  0
 20 22  1  0  0  0
 22 23  2  0  0  0
 23 24  1  0  0  0
 24 25  2  0  0  0
 25 26  1  0  0  0
 26 27  2  0  0  0
 21 17  2  0  0  0
  7  2  1  0  0  0
 14 10  1  0  0  0
 27 22  1  0  0  0
M  END
> <minimizedAffinity>
-7.93860

> <CNNscore>
0.3311030567

> <CNNaffinity>
5.8777837753

> <CNN_VS>
1.9461522102

> <CNNaffinity_variance>
0.1607035100

$$$$
[H]c1nc(OC([H])([H])c2c(-c3c([H])c([H])c([H])c([H])c3[H])noc2C([H])([H])[H])c([H])c([H])c1C(=O)N1C([H])([H])C([H])([H])C([H])([H])C1([H])[H]


 27 30  0  0  0  0  0  0  0  0999 V2000
    4.4196    2.0308   17.8977 O   0  0  0  0  0  0  0  0  0  0  0  0
    3.6792    2.5761   16.9417 C   0  0  0  0  0  0  0  0  0  0  0  0
    3.4269    1.7657   15.7990 C   0  0  0  0  0  0  0  0  0  0  0  0
    2.6935    2.2383   14.7893 C   0  0  0  0  0  0  0  0  0  0  0  0
    2.1335    3.5354   14.7870 C   0  0  0  0  0  0  0  0  0  0  0  0
    2.3986    4.2863   15.9052 C   0  0  0  0  0  0  0  0  0  0  0  0
    3.1350    3.7745   16.8960 N   0  0  0  0  0  0  0  0  0  0  0  0
    1.4930    3.9540   13.5866 C   0  0  0  0  0  0  0  0  0  0  0  0
    1.6379    3.0840   12.5395 O   0  0  0  0  0  0  0  0  0  0  0  0
    0.7261    5.0300   13.1814 N   0  0  0  0  0  0  0  0  0  0  0  0
    0.3233    6.2418   13.8481 C   0  0  0  0  0  0  0  0  0  0  0  0
   -0.3448    7.1243   12.7991 C   0  0  0  0  0  0  0  0  0  0  0  0
    0.0438    6.4777   11.5098 C   0  0  0  0  0  0  0  0  0  0  0  0
    0.0067    5.0350   11.8817 C   0  0  0  0  0  0  0  0  0  0  0  0
    5.0815    1.4660   18.8535 C   0  0  0  0  0  0  0  0  0  0  0  0
    2.6165   -0.5018   18.7938 C   0  0  0  0  0  0  0  0  0  0  0  0
    3.0334    0.3020   19.9464 C   0  0  0  0  0  0  0  0  0  0  0  0
    2.4297    0.3848   21.1343 O   0  0  0  0  0  0  0  0  0  0  0  0
    3.0571    1.1939   21.9276 N   0  0  0  0  0  0  0  0  0  0  0  0
    4.1535    1.7005   21.2684 C   0  0  0  0  0  0  0  0  0  0  0  0
    4.1320    1.1254   20.0295 C   0  0  0  0  0  0  0  0  0  0  0  0
    4.9154    2.8801   21.7294 C   0  0  0  0  0  0  0  0  0  0  0  0
    6.1838    3.0569   21.9559 C   0  0  0  0  0  0  0  0  0  0  0  0
    6.7119    4.3252   22.2857 C   0  0  0  0  0  0  0  0  0  0  0  0
    5.9128    5.4024   22.3747 C   0  0  0  0  0  0  0  0  0  0  0  0
    4.5495    5.2437   22.1428 C   0  0  0  0  0  0  0  0  0  0  0  0
    4.0367    4.0326   21.8339 C   0  0  0  0  0  0  0  0  0  0  0  0
 16 17  1  0  0  0
 17 18  1  0  0  0
 18 19  1  0  0  0
 19 20  2  0  0  0
 20 21  1  0  0  0
 21 15  1  0  0  0
 15  1  1  0  0  0
  1  2  1  0  0  0
  2  3  2  0  0  0
  3  4  1  0  0  0
  4  5  2  0  0  0
  5  6  1  0  0  0
  6  7  2  0  0  0
  5  8  1  0  0  0
  8  9  2  0  0  0
  8 10  1  0  0  0
 10 11  1  0  0  0
 11 12  1  0  0  0
 12 13  1  0  0  0
 13 14  1  0  0  0
 20 22  1  0  0  0
 22 23  2  0  0  0
 23 24  1  0  0  0
 24 25  2  0  0  0
 25 26  1  0  0  0
 26 27  2  0  0  0
 21 17  2  0  0  0
  7  2  1  0  0  0
 14 10  1  0  0  0
 27 22  1  0  0  0
M  END
> <minimizedAffinity>
-7.60700

> <CNNscore>
0.3251654506

> <CNNaffinity>
5.8358163834

> <CNN_VS>
1.8976058960

> <CNNaffinity_variance>
0.2345561087

$$$$
[H]c1nc(OC([H])([H])c2c(-c3c([H])c([H])c([H])c([H])c3[H])noc2C([H])([H])[H])c([H])c([H])c1C(=O)N1C([H])([H])C([H])([H])C([H])([H])C1([H])[H]


 27 30  0  0  0  0  0  0  0  0999 V2000
    3.6108    3.5916   13.5173 O   0  0  0  0  0  0  0  0  0  0  0  0
    3.6102    2.9638   14.6859 C   0  0  0  0  0  0  0  0  0  0  0  0
    2.8431    1.7670   14.7592 C   0  0  0  0  0  0  0  0  0  0  0  0
    2.7855    1.0750   15.8987 C   0  0  0  0  0  0  0  0  0  0  0  0
    3.4629    1.4708   17.0737 C   0  0  0  0  0  0  0  0  0  0  0  0
    4.1913    2.6292   16.9638 C   0  0  0  0  0  0  0  0  0  0  0  0
    4.2255    3.2909   15.8034 N   0  0  0  0  0  0  0  0  0  0  0  0
    3.1995    0.7139   18.2501 C   0  0  0  0  0  0  0  0  0  0  0  0
    2.4726   -0.4260   18.0341 O   0  0  0  0  0  0  0  0  0  0  0  0
    3.5011    0.8131   19.5953 N   0  0  0  0  0  0  0  0  0  0  0  0
    4.1784    1.8234   20.3671 C   0  0  0  0  0  0  0  0  0  0  0  0
    4.0109    1.4467   21.8353 C   0  0  0  0  0  0  0  0  0  0  0  0
    2.9332    0.4128   21.8027 C   0  0  0  0  0  0  0  0  0  0  0  0
    3.2555   -0.3078   20.5386 C   0  0  0  0  0  0  0  0  0  0  0  0
    3.5405    4.1887   12.3732 C   0  0  0  0  0  0  0  0  0  0  0  0
    0.7411    3.8956   10.9485 C   0  0  0  0  0  0  0  0  0  0  0  0
    1.1934    5.0713   11.6977 C   0  0  0  0  0  0  0  0  0  0  0  0
    0.5396    6.2233   11.8648 O   0  0  0  0  0  0  0  0  0  0  0  0
    1.2278    7.0580   12.5770 N   0  0  0  0  0  0  0  0  0  0  0  0
    2.4183    6.4647   12.9292 C   0  0  0  0  0  0  0  0  0  0  0  0
    2.3796    5.2149   12.3789 C   0  0  0  0  0  0  0  0  0  0  0  0
    3.5803    7.2080   13.4598 C   0  0  0  0  0  0  0  0  0  0  0  0
    4.4363    8.0010   12.8854 C   0  0  0  0  0  0  0  0  0  0  0  0
    5.4131    8.7043   13.6254 C   0  0  0  0  0  0  0  0  0  0  0  0
    5.4889    8.5775   14.9614 C   0  0  0  0  0  0  0  0  0  0  0  0
    4.5895    7.7318   15.6042 C   0  0  0  0  0  0  0  0  0  0  0  0
    3.6574    7.0509   14.9023 C   0  0  0  0  0  0  0  0  0  0  0  0
 16 17  1  0  0  0
 17 18  1  0  0  0
 18 19  1  0  0  0
 19 20  2  0  0  0
 20 21  1  0  0  0
 21 15  1  0  0  0
 15  1  1  0  0  0
  1  2  1  0  0  0
  2  3  2  0  0  0
  3  4  1  0  0  0
  4  5  2  0  0  0
  5  6  1  0  0  0
  6  7  2  0  0  0
  5  8  1  0  0  0
  8  9  2  0  0  0
  8 10  1  0  0  0
 10 11  1  0  0  0
 11 12  1  0  0  0
 12 13  1  0  0  0
 13 14  1  0  0  0
 20 22  1  0  0  0
 22 23  2  0  0  0
 23 24  1  0  0  0
 24 25  2  0  0  0
 25 26  1  0  0  0
 26 27  2  0  0  0
 21 17  2  0  0  0
  7  2  1  0  0  0
 14 10  1  0  0  0
 27 22  1  0  0  0
M  END
> <minimizedAffinity>
-7.40001

> <CNNscore>
0.3247119188

> <CNNaffinity>
5.6567950249

> <CNN_VS>
1.8368287086

> <CNNaffinity_variance>
0.3052629828

$$$$
[H]Oc1c([H])c([H])c(C([H])([H])[C@@]2([H])C(=O)N([H])[C@@]([H])(C([H])([H])c3c([H])c([H])c(O[H])c([H])c3[H])C(=O)N3C([H])([H])C([H])([H])C([H])([H])[C@@]3([H])C(=O)N([H])[C@@]([H])(C([H])([H])c3c([H])n([H])c4c([H])c([H])c([H])c([H])c34)C(=O)N([H])[C@@]([H])(C([H])(C([H])([H])[H])C([H])([H])[H])C(=O)N([H])[C@@]([H])(C([H])([H])c3c([H])nc([H])n3[H])C(=O)N2[H])c([H])c1[H]


 71 77  0  0  0  0  0  0  0  0999 V2000
   -0.3189    5.1971   10.8234 C   0  0  0  0  0  0  0  0  0  0  0  0
   -0.1152    6.5979   11.0060 N   0  0  0  0  0  0  0  0  0  0  0  0
    1.0786    7.2954   11.1976 C   0  0  0  0  0  0  0  0  0  0  0  0
    1.0105    8.4804   11.6781 O   0  0  0  0  0  0  0  0  0  0  0  0
    2.4548    6.7859   10.8914 C   0  0  0  0  0  0  0  0  0  0  0  0
    2.6536    6.4558    9.5247 N   0  0  0  0  0  0  0  0  0  0  0  0
    3.7476    6.3916    8.6674 C   0  0  0  0  0  0  0  0  0  0  0  0
    4.1320    5.1743    8.3284 O   0  0  0  0  0  0  0  0  0  0  0  0
    4.5938    7.3750    8.0372 C   0  0  0  0  0  0  0  0  0  0  0  0
    4.6026    8.7652    8.6257 C   0  0  0  0  0  0  0  0  0  0  0  0
    5.1377    9.6713    7.5192 C   0  0  0  0  0  0  0  0  0  0  0  0
    5.5874    8.6187    6.4946 C   0  0  0  0  0  0  0  0  0  0  0  0
    4.4331    7.6840    6.6448 N   0  0  0  0  0  0  0  0  0  0  0  0
    3.5283    7.3172    5.6740 C   0  0  0  0  0  0  0  0  0  0  0  0
    3.0167    8.2990    4.9813 O   0  0  0  0  0  0  0  0  0  0  0  0
    3.0137    5.9960    5.2560 C   0  0  0  0  0  0  0  0  0  0  0  0
    2.0192    6.1384    4.1747 N   0  0  0  0  0  0  0  0  0  0  0  0
    0.7161    5.6107    4.1977 C   0  0  0  0  0  0  0  0  0  0  0  0
   -0.2223    6.1999    3.5938 O   0  0  0  0  0  0  0  0  0  0  0  0
    0.3054    4.3573    4.9008 C   0  0  0  0  0  0  0  0  0  0  0  0
   -1.0639    4.4709    5.3818 N   0  0  0  0  0  0  0  0  0  0  0  0
   -1.5590    3.9393    6.5894 C   0  0  0  0  0  0  0  0  0  0  0  0
   -2.7814    3.5606    6.6563 O   0  0  0  0  0  0  0  0  0  0  0  0
   -0.7760    3.7664    7.8458 C   0  0  0  0  0  0  0  0  0  0  0  0
   -1.6567    4.0009    8.9677 N   0  0  0  0  0  0  0  0  0  0  0  0
   -1.5189    5.0046    9.9501 C   0  0  0  0  0  0  0  0  0  0  0  0
   -2.4597    5.8517   10.1643 O   0  0  0  0  0  0  0  0  0  0  0  0
   -1.0049    7.1877   10.9942 H   0  0  0  0  0  0  0  0  0  0  0  0
    1.7183    6.1741    9.0473 H   0  0  0  0  0  0  0  0  0  0  0  0
    2.3477    6.6783    3.3541 H   0  0  0  0  0  0  0  0  0  0  0  0
   -1.7101    5.0095    4.7311 H   0  0  0  0  0  0  0  0  0  0  0  0
   -2.4832    3.3698    9.0566 H   0  0  0  0  0  0  0  0  0  0  0  0
   -1.0523    5.6961   13.1749 C   0  0  0  0  0  0  0  0  0  0  0  0
   -0.6327    4.5915   12.1974 C   0  0  0  0  0  0  0  0  0  0  0  0
    0.5409    3.8683   12.7636 C   0  0  0  0  0  0  0  0  0  0  0  0
    3.4781    7.5944   11.5891 C   0  0  0  0  0  0  0  0  0  0  0  0
    3.7019    7.1861   12.9994 C   0  0  0  0  0  0  0  0  0  0  0  0
    3.8769    5.9906   13.6041 C   0  0  0  0  0  0  0  0  0  0  0  0
    4.0502    6.1396   14.9301 N   0  0  0  0  0  0  0  0  0  0  0  0
    3.9890    7.4460   15.2067 C   0  0  0  0  0  0  0  0  0  0  0  0
    4.1085    8.0899   16.4233 C   0  0  0  0  0  0  0  0  0  0  0  0
    4.0119    9.4593   16.4895 C   0  0  0  0  0  0  0  0  0  0  0  0
    3.7948   10.1424   15.3070 C   0  0  0  0  0  0  0  0  0  0  0  0
    3.6754    9.4993   14.0892 C   0  0  0  0  0  0  0  0  0  0  0  0
    3.7729    8.1317   14.0302 C   0  0  0  0  0  0  0  0  0  0  0  0
    4.2073    5.3722   15.6330 H   0  0  0  0  0  0  0  0  0  0  0  0
    4.0381    5.0529    4.7091 C   0  0  0  0  0  0  0  0  0  0  0  0
    5.2276    5.6102    4.1143 C   0  0  0  0  0  0  0  0  0  0  0  0
    5.1617    6.2701    2.9075 C   0  0  0  0  0  0  0  0  0  0  0  0
    6.2994    6.8087    2.3066 C   0  0  0  0  0  0  0  0  0  0  0  0
    7.5170    6.6897    2.9123 C   0  0  0  0  0  0  0  0  0  0  0  0
    8.6461    7.2336    2.2993 O   0  0  0  0  0  0  0  0  0  0  0  0
    7.5930    6.0293    4.1224 C   0  0  0  0  0  0  0  0  0  0  0  0
    6.4572    5.5038    4.7004 C   0  0  0  0  0  0  0  0  0  0  0  0
    9.5271    7.1318    2.7661 H   0  0  0  0  0  0  0  0  0  0  0  0
    0.4537    3.1631    3.9765 C   0  0  0  0  0  0  0  0  0  0  0  0
    1.7629    2.4700    4.1325 C   0  0  0  0  0  0  0  0  0  0  0  0
    2.1568    2.0712    5.3850 C   0  0  0  0  0  0  0  0  0  0  0  0
    3.3620    1.4313    5.5524 C   0  0  0  0  0  0  0  0  0  0  0  0
    4.2233    1.1588    4.5055 C   0  0  0  0  0  0  0  0  0  0  0  0
    5.4472    0.5060    4.6930 O   0  0  0  0  0  0  0  0  0  0  0  0
    3.7883    1.5771    3.2627 C   0  0  0  0  0  0  0  0  0  0  0  0
    2.5897    2.2167    3.0767 C   0  0  0  0  0  0  0  0  0  0  0  0
    6.3084    0.9755    4.8835 H   0  0  0  0  0  0  0  0  0  0  0  0
   -0.2342    2.3567    7.8846 C   0  0  0  0  0  0  0  0  0  0  0  0
    0.8438    2.1711    8.8792 C   0  0  0  0  0  0  0  0  0  0  0  0
    0.9241    1.2222    9.8684 C   0  0  0  0  0  0  0  0  0  0  0  0
    2.0519    1.4020   10.5565 N   0  0  0  0  0  0  0  0  0  0  0  0
    2.6934    2.4430   10.0303 C   0  0  0  0  0  0  0  0  0  0  0  0
    1.9605    2.9074    9.0149 N   0  0  0  0  0  0  0  0  0  0  0  0
    2.2512    3.7259    8.4377 H   0  0  0  0  0  0  0  0  0  0  0  0
 33 34  1  0  0  0
 34 35  1  0  0  0
 34  1  1  0  0  0
  1  2  1  0  0  0
  2  3  1  0  0  0
  3  4  2  0  0  0
  3  5  1  0  0  0
  5 36  1  0  0  0
 36 37  1  0  0  0
 37 38  2  0  0  0
 38 39  1  0  0  0
 39 40  1  0  0  0
 40 41  2  0  0  0
 41 42  1  0  0  0
 42 43  2  0  0  0
 43 44  1  0  0  0
 44 45  2  0  0  0
  5  6  1  0  0  0
  6  7  1  0  0  0
  7  8  2  0  0  0
  7  9  1  0  0  0
  9 10  1  0  0  0
 10 11  1  0  0  0
 11 12  1  0  0  0
 12 13  1  0  0  0
 13 14  1  0  0  0
 14 15  2  0  0  0
 14 16  1  0  0  0
 16 47  1  0  0  0
 47 48  1  0  0  0
 48 49  2  0  0  0
 49 50  1  0  0  0
 50 51  2  0  0  0
 51 52  1  0  0  0
 51 53  1  0  0  0
 53 54  2  0  0  0
 16 17  1  0  0  0
 17 18  1  0  0  0
 18 19  2  0  0  0
 18 20  1  0  0  0
 20 56  1  0  0  0
 56 57  1  0  0  0
 57 58  2  0  0  0
 58 59  1  0  0  0
 59 60  2  0  0  0
 60 61  1  0  0  0
 60 62  1  0  0  0
 62 63  2  0  0  0
 20 21  1  0  0  0
 21 22  1  0  0  0
 22 23  2  0  0  0
 22 24  1  0  0  0
 24 65  1  0  0  0
 65 66  1  0  0  0
 66 67  2  0  0  0
 67 68  1  0  0  0
 68 69  2  0  0  0
 69 70  1  0  0  0
 24 25  1  0  0  0
 25 26  1  0  0  0
 26 27  2  0  0  0
 26  1  1  0  0  0
 45 37  1  0  0  0
 13  9  1  0  0  0
 54 48  1  0  0  0
 63 57  1  0  0  0
 70 66  1  0  0  0
 45 40  1  0  0  0
  2 28  1  0  0  0
 39 46  1  0  0  0
  6 29  1  0  0  0
 52 55  1  0  0  0
 17 30  1  0  0  0
 61 64  1  0  0  0
 21 31  1  0  0  0
 70 71  1  0  0  0
 25 32  1  0  0  0
M  END
> <minimizedAffinity>
-6.14050

> <CNNscore>
0.3586117327

> <CNNaffinity>
6.9984107018

> <CNN_VS>
2.5097122192

> <CNNaffinity_variance>
1.3010895252

$$$$
[H]Oc1c([H])c([H])c(C([H])([H])[C@@]2([H])C(=O)N([H])[C@@]([H])(C([H])([H])c3c([H])c([H])c(O[H])c([H])c3[H])C(=O)N3C([H])([H])C([H])([H])C([H])([H])[C@@]3([H])C(=O)N([H])[C@@]([H])(C([H])([H])c3c([H])n([H])c4c([H])c([H])c([H])c([H])c34)C(=O)N([H])[C@@]([H])(C([H])(C([H])([H])[H])C([H])([H])[H])C(=O)N([H])[C@@]([H])(C([H])([H])c3c([H])nc([H])n3[H])C(=O)N2[H])c([H])c1[H]


 71 77  0  0  0  0  0  0  0  0999 V2000
    5.4517    8.0711   17.4868 C   0  0  0  0  0  0  0  0  0  0  0  0
    6.0962    6.8278   17.7624 N   0  0  0  0  0  0  0  0  0  0  0  0
    5.5431    5.6360   18.2337 C   0  0  0  0  0  0  0  0  0  0  0  0
    6.3359    4.7630   18.7330 O   0  0  0  0  0  0  0  0  0  0  0  0
    4.0893    5.2712   18.2125 C   0  0  0  0  0  0  0  0  0  0  0  0
    3.5267    5.2307   16.9094 N   0  0  0  0  0  0  0  0  0  0  0  0
    2.4638    4.5652   16.3067 C   0  0  0  0  0  0  0  0  0  0  0  0
    1.4179    5.3161   16.0124 O   0  0  0  0  0  0  0  0  0  0  0  0
    2.2233    3.1989   15.9119 C   0  0  0  0  0  0  0  0  0  0  0  0
    3.0849    2.1308   16.5411 C   0  0  0  0  0  0  0  0  0  0  0  0
    2.9793    0.9239   15.6116 C   0  0  0  0  0  0  0  0  0  0  0  0
    1.8633    1.3992   14.6688 C   0  0  0  0  0  0  0  0  0  0  0  0
    2.3060    2.8182   14.5305 N   0  0  0  0  0  0  0  0  0  0  0  0
    2.6847    3.4623   13.3741 C   0  0  0  0  0  0  0  0  0  0  0  0
    3.5395    2.8188   12.6252 O   0  0  0  0  0  0  0  0  0  0  0  0
    2.3007    4.7712   12.8047 C   0  0  0  0  0  0  0  0  0  0  0  0
    3.0190    5.0246   11.5404 N   0  0  0  0  0  0  0  0  0  0  0  0
    3.7898    6.1671   11.2615 C   0  0  0  0  0  0  0  0  0  0  0  0
    4.7873    6.0922   10.4922 O   0  0  0  0  0  0  0  0  0  0  0  0
    3.5364    7.5338   11.8109 C   0  0  0  0  0  0  0  0  0  0  0  0
    4.7915    8.2496   11.9890 N   0  0  0  0  0  0  0  0  0  0  0  0
    5.0896    9.1397   13.0401 C   0  0  0  0  0  0  0  0  0  0  0  0
    5.8847   10.1218   12.8270 O   0  0  0  0  0  0  0  0  0  0  0  0
    4.5543    9.0520   14.4283 C   0  0  0  0  0  0  0  0  0  0  0  0
    5.5803    9.5017   15.3418 N   0  0  0  0  0  0  0  0  0  0  0  0
    6.1836    8.7442   16.3683 C   0  0  0  0  0  0  0  0  0  0  0  0
    7.4565    8.5808   16.4066 O   0  0  0  0  0  0  0  0  0  0  0  0
    7.1481    6.8159   17.5813 H   0  0  0  0  0  0  0  0  0  0  0  0
    4.0559    5.8954   16.2309 H   0  0  0  0  0  0  0  0  0  0  0  0
    2.9226    4.2759   10.8313 H   0  0  0  0  0  0  0  0  0  0  0  0
    5.5154    8.0523   11.2352 H   0  0  0  0  0  0  0  0  0  0  0  0
    5.9156   10.4832   15.2260 H   0  0  0  0  0  0  0  0  0  0  0  0
    6.7938    8.4986   19.5682 C   0  0  0  0  0  0  0  0  0  0  0  0
    5.5872    8.9503   18.7365 C   0  0  0  0  0  0  0  0  0  0  0  0
    4.3661    8.8910   19.5888 C   0  0  0  0  0  0  0  0  0  0  0  0
    3.8173    4.1558   19.1450 C   0  0  0  0  0  0  0  0  0  0  0  0
    3.9957    4.5160   20.5747 C   0  0  0  0  0  0  0  0  0  0  0  0
    4.0382    5.6922   21.2384 C   0  0  0  0  0  0  0  0  0  0  0  0
    4.2197    5.4975   22.5574 N   0  0  0  0  0  0  0  0  0  0  0  0
    4.2987    4.1801   22.7696 C   0  0  0  0  0  0  0  0  0  0  0  0
    4.4825    3.4936   23.9545 C   0  0  0  0  0  0  0  0  0  0  0  0
    4.5367    2.1204   23.9529 C   0  0  0  0  0  0  0  0  0  0  0  0
    4.4014    1.4769   22.7364 C   0  0  0  0  0  0  0  0  0  0  0  0
    4.2172    2.1627   21.5503 C   0  0  0  0  0  0  0  0  0  0  0  0
    4.1640    3.5340   21.5591 C   0  0  0  0  0  0  0  0  0  0  0  0
    4.2881    6.2417   23.2983 H   0  0  0  0  0  0  0  0  0  0  0  0
    0.8533    4.9188   12.4562 C   0  0  0  0  0  0  0  0  0  0  0  0
    0.3951    4.3689   11.2044 C   0  0  0  0  0  0  0  0  0  0  0  0
   -0.2743    5.1599   10.2975 C   0  0  0  0  0  0  0  0  0  0  0  0
   -0.7368    4.6492    9.0847 C   0  0  0  0  0  0  0  0  0  0  0  0
   -0.5316    3.3369    8.7697 C   0  0  0  0  0  0  0  0  0  0  0  0
   -0.9998    2.8403    7.5529 O   0  0  0  0  0  0  0  0  0  0  0  0
    0.1383    2.5359    9.6731 C   0  0  0  0  0  0  0  0  0  0  0  0
    0.5877    3.0592   10.8666 C   0  0  0  0  0  0  0  0  0  0  0  0
   -0.8352    1.8733    7.3474 H   0  0  0  0  0  0  0  0  0  0  0  0
    2.6030    8.3039   10.8956 C   0  0  0  0  0  0  0  0  0  0  0  0
    2.8484    8.0262    9.4529 C   0  0  0  0  0  0  0  0  0  0  0  0
    2.0106    7.1636    8.7919 C   0  0  0  0  0  0  0  0  0  0  0  0
    2.2195    6.8915    7.4607 C   0  0  0  0  0  0  0  0  0  0  0  0
    3.2513    7.4505    6.7293 C   0  0  0  0  0  0  0  0  0  0  0  0
    3.4501    7.1629    5.3739 O   0  0  0  0  0  0  0  0  0  0  0  0
    4.0705    8.3124    7.4328 C   0  0  0  0  0  0  0  0  0  0  0  0
    3.8775    8.5955    8.7605 C   0  0  0  0  0  0  0  0  0  0  0  0
    4.0198    6.4137    5.0385 H   0  0  0  0  0  0  0  0  0  0  0  0
    3.3326    9.9350   14.5293 C   0  0  0  0  0  0  0  0  0  0  0  0
    3.3347   10.8024   15.7265 C   0  0  0  0  0  0  0  0  0  0  0  0
    3.9749   12.0054   15.8949 C   0  0  0  0  0  0  0  0  0  0  0  0
    3.7311   12.4624   17.1235 N   0  0  0  0  0  0  0  0  0  0  0  0
    2.9507   11.5800   17.7434 C   0  0  0  0  0  0  0  0  0  0  0  0
    2.7117   10.5756   16.8962 N   0  0  0  0  0  0  0  0  0  0  0  0
    2.1212    9.7537   17.1480 H   0  0  0  0  0  0  0  0  0  0  0  0
 33 34  1  0  0  0
 34 35  1  0  0  0
 34  1  1  0  0  0
  1  2  1  0  0  0
  2  3  1  0  0  0
  3  4  2  0  0  0
  3  5  1  0  0  0
  5 36  1  0  0  0
 36 37  1  0  0  0
 37 38  2  0  0  0
 38 39  1  0  0  0
 39 40  1  0  0  0
 40 41  2  0  0  0
 41 42  1  0  0  0
 42 43  2  0  0  0
 43 44  1  0  0  0
 44 45  2  0  0  0
  5  6  1  0  0  0
  6  7  1  0  0  0
  7  8  2  0  0  0
  7  9  1  0  0  0
  9 10  1  0  0  0
 10 11  1  0  0  0
 11 12  1  0  0  0
 12 13  1  0  0  0
 13 14  1  0  0  0
 14 15  2  0  0  0
 14 16  1  0  0  0
 16 47  1  0  0  0
 47 48  1  0  0  0
 48 49  2  0  0  0
 49 50  1  0  0  0
 50 51  2  0  0  0
 51 52  1  0  0  0
 51 53  1  0  0  0
 53 54  2  0  0  0
 16 17  1  0  0  0
 17 18  1  0  0  0
 18 19  2  0  0  0
 18 20  1  0  0  0
 20 56  1  0  0  0
 56 57  1  0  0  0
 57 58  2  0  0  0
 58 59  1  0  0  0
 59 60  2  0  0  0
 60 61  1  0  0  0
 60 62  1  0  0  0
 62 63  2  0  0  0
 20 21  1  0  0  0
 21 22  1  0  0  0
 22 23  2  0  0  0
 22 24  1  0  0  0
 24 65  1  0  0  0
 65 66  1  0  0  0
 66 67  2  0  0  0
 67 68  1  0  0  0
 68 69  2  0  0  0
 69 70  1  0  0  0
 24 25  1  0  0  0
 25 26  1  0  0  0
 26 27  2  0  0  0
 26  1  1  0  0  0
 45 37  1  0  0  0
 13  9  1  0  0  0
 54 48  1  0  0  0
 63 57  1  0  0  0
 70 66  1  0  0  0
 45 40  1  0  0  0
  2 28  1  0  0  0
 39 46  1  0  0  0
  6 29  1  0  0  0
 52 55  1  0  0  0
 17 30  1  0  0  0
 61 64  1  0  0  0
 21 31  1  0  0  0
 70 71  1  0  0  0
 25 32  1  0  0  0
M  END
> <minimizedAffinity>
-9.86735

> <CNNscore>
0.2915812433

> <CNNaffinity>
7.5474228859

> <CNN_VS>
2.2006869316

> <CNNaffinity_variance>
1.0000597239

$$$$
[H]Oc1c([H])c([H])c(C([H])([H])[C@@]2([H])C(=O)N([H])[C@@]([H])(C([H])([H])c3c([H])c([H])c(O[H])c([H])c3[H])C(=O)N3C([H])([H])C([H])([H])C([H])([H])[C@@]3([H])C(=O)N([H])[C@@]([H])(C([H])([H])c3c([H])n([H])c4c([H])c([H])c([H])c([H])c34)C(=O)N([H])[C@@]([H])(C([H])(C([H])([H])[H])C([H])([H])[H])C(=O)N([H])[C@@]([H])(C([H])([H])c3c([H])nc([H])n3[H])C(=O)N2[H])c([H])c1[H]


 71 77  0  0  0  0  0  0  0  0999 V2000
    3.3067    2.9506   16.3196 C   0  0  0  0  0  0  0  0  0  0  0  0
    3.9599    2.9198   15.0510 N   0  0  0  0  0  0  0  0  0  0  0  0
    3.7677    3.7463   13.9426 C   0  0  0  0  0  0  0  0  0  0  0  0
    4.1996    3.3384   12.8082 O   0  0  0  0  0  0  0  0  0  0  0  0
    3.0948    5.0858   13.9494 C   0  0  0  0  0  0  0  0  0  0  0  0
    3.7309    6.0433   14.7829 N   0  0  0  0  0  0  0  0  0  0  0  0
    3.8186    7.4316   14.8131 C   0  0  0  0  0  0  0  0  0  0  0  0
    3.1415    8.0219   15.7813 O   0  0  0  0  0  0  0  0  0  0  0  0
    4.4986    8.4167   14.0083 C   0  0  0  0  0  0  0  0  0  0  0  0
    4.9521    7.9971   12.6308 C   0  0  0  0  0  0  0  0  0  0  0  0
    6.0335    9.0004   12.2361 C   0  0  0  0  0  0  0  0  0  0  0  0
    5.8923   10.0204   13.3762 C   0  0  0  0  0  0  0  0  0  0  0  0
    5.6924    9.0496   14.4925 N   0  0  0  0  0  0  0  0  0  0  0  0
    6.4935    8.8782   15.5991 C   0  0  0  0  0  0  0  0  0  0  0  0
    7.7734    8.7818   15.3582 O   0  0  0  0  0  0  0  0  0  0  0  0
    6.1758    8.7808   17.0395 C   0  0  0  0  0  0  0  0  0  0  0  0
    7.4008    8.5635   17.8335 N   0  0  0  0  0  0  0  0  0  0  0  0
    7.5976    7.5145   18.7489 C   0  0  0  0  0  0  0  0  0  0  0  0
    8.7524    7.0435   18.9418 O   0  0  0  0  0  0  0  0  0  0  0  0
    6.5235    6.8649   19.5604 C   0  0  0  0  0  0  0  0  0  0  0  0
    6.8329    5.4592   19.7788 N   0  0  0  0  0  0  0  0  0  0  0  0
    5.8969    4.4064   19.8151 C   0  0  0  0  0  0  0  0  0  0  0  0
    6.1225    3.3889   20.5607 O   0  0  0  0  0  0  0  0  0  0  0  0
    4.6222    4.3528   19.0445 C   0  0  0  0  0  0  0  0  0  0  0  0
    4.3730    2.9791   18.6705 N   0  0  0  0  0  0  0  0  0  0  0  0
    4.2707    2.4696   17.3584 C   0  0  0  0  0  0  0  0  0  0  0  0
    5.0337    1.5172   16.9592 O   0  0  0  0  0  0  0  0  0  0  0  0
    4.6961    2.1546   14.9419 H   0  0  0  0  0  0  0  0  0  0  0  0
    4.2645    5.5626   15.5992 H   0  0  0  0  0  0  0  0  0  0  0  0
    8.1498    9.2603   17.6715 H   0  0  0  0  0  0  0  0  0  0  0  0
    7.8678    5.2584   19.9193 H   0  0  0  0  0  0  0  0  0  0  0  0
    4.2658    2.2919   19.4487 H   0  0  0  0  0  0  0  0  0  0  0  0
    2.4921    0.6863   17.0446 C   0  0  0  0  0  0  0  0  0  0  0  0
    2.1386    1.9579   16.2636 C   0  0  0  0  0  0  0  0  0  0  0  0
    1.7990    1.5828   14.8619 C   0  0  0  0  0  0  0  0  0  0  0  0
    2.7001    5.4787   12.5792 C   0  0  0  0  0  0  0  0  0  0  0  0
    1.4088    4.8919   12.1386 C   0  0  0  0  0  0  0  0  0  0  0  0
    1.0822    3.7782   11.4466 C   0  0  0  0  0  0  0  0  0  0  0  0
   -0.2511    3.6741   11.2983 N   0  0  0  0  0  0  0  0  0  0  0  0
   -0.8131    4.7288   11.8972 C   0  0  0  0  0  0  0  0  0  0  0  0
   -2.1492    5.0619   12.0109 C   0  0  0  0  0  0  0  0  0  0  0  0
   -2.5188    6.2070   12.6750 C   0  0  0  0  0  0  0  0  0  0  0  0
   -1.5115    6.9887   13.2101 C   0  0  0  0  0  0  0  0  0  0  0  0
   -0.1744    6.6563   13.0972 C   0  0  0  0  0  0  0  0  0  0  0  0
    0.1876    5.5115   12.4327 C   0  0  0  0  0  0  0  0  0  0  0  0
   -0.7695    2.9042   10.8022 H   0  0  0  0  0  0  0  0  0  0  0  0
    5.5435    9.9963   17.6401 C   0  0  0  0  0  0  0  0  0  0  0  0
    6.2076   10.6300   18.7522 C   0  0  0  0  0  0  0  0  0  0  0  0
    7.4718   11.1553   18.6035 C   0  0  0  0  0  0  0  0  0  0  0  0
    8.1395   11.7637   19.6663 C   0  0  0  0  0  0  0  0  0  0  0  0
    7.5436   11.8508   20.8914 C   0  0  0  0  0  0  0  0  0  0  0  0
    8.2236   12.4623   21.9451 O   0  0  0  0  0  0  0  0  0  0  0  0
    6.2761   11.3265   21.0502 C   0  0  0  0  0  0  0  0  0  0  0  0
    5.6326   10.7291   19.9876 C   0  0  0  0  0  0  0  0  0  0  0  0
    7.7625   12.5126   22.8334 H   0  0  0  0  0  0  0  0  0  0  0  0
    6.3520    7.5899   20.8822 C   0  0  0  0  0  0  0  0  0  0  0  0
    7.5565    7.4970   21.7535 C   0  0  0  0  0  0  0  0  0  0  0  0
    7.8574    6.2949   22.3429 C   0  0  0  0  0  0  0  0  0  0  0  0
    8.9634    6.1869   23.1522 C   0  0  0  0  0  0  0  0  0  0  0  0
    9.8129    7.2461   23.4142 C   0  0  0  0  0  0  0  0  0  0  0  0
   10.9353    7.1192   24.2407 O   0  0  0  0  0  0  0  0  0  0  0  0
    9.4735    8.4369   22.8014 C   0  0  0  0  0  0  0  0  0  0  0  0
    8.3744    8.5634   21.9913 C   0  0  0  0  0  0  0  0  0  0  0  0
   10.9241    7.2753   25.2276 H   0  0  0  0  0  0  0  0  0  0  0  0
    3.5076    4.8724   19.9221 C   0  0  0  0  0  0  0  0  0  0  0  0
    3.6763    4.5254   21.3493 C   0  0  0  0  0  0  0  0  0  0  0  0
    3.9566    5.3700   22.3949 C   0  0  0  0  0  0  0  0  0  0  0  0
    4.0362    4.6606   23.5211 N   0  0  0  0  0  0  0  0  0  0  0  0
    3.8135    3.3834   23.2193 C   0  0  0  0  0  0  0  0  0  0  0  0
    3.5958    3.3033   21.9040 N   0  0  0  0  0  0  0  0  0  0  0  0
    3.3961    2.4018   21.4193 H   0  0  0  0  0  0  0  0  0  0  0  0
 33 34  1  0  0  0
 34 35  1  0  0  0
 34  1  1  0  0  0
  1  2  1  0  0  0
  2  3  1  0  0  0
  3  4  2  0  0  0
  3  5  1  0  0  0
  5 36  1  0  0  0
 36 37  1  0  0  0
 37 38  2  0  0  0
 38 39  1  0  0  0
 39 40  1  0  0  0
 40 41  2  0  0  0
 41 42  1  0  0  0
 42 43  2  0  0  0
 43 44  1  0  0  0
 44 45  2  0  0  0
  5  6  1  0  0  0
  6  7  1  0  0  0
  7  8  2  0  0  0
  7  9  1  0  0  0
  9 10  1  0  0  0
 10 11  1  0  0  0
 11 12  1  0  0  0
 12 13  1  0  0  0
 13 14  1  0  0  0
 14 15  2  0  0  0
 14 16  1  0  0  0
 16 47  1  0  0  0
 47 48  1  0  0  0
 48 49  2  0  0  0
 49 50  1  0  0  0
 50 51  2  0  0  0
 51 52  1  0  0  0
 51 53  1  0  0  0
 53 54  2  0  0  0
 16 17  1  0  0  0
 17 18  1  0  0  0
 18 19  2  0  0  0
 18 20  1  0  0  0
 20 56  1  0  0  0
 56 57  1  0  0  0
 57 58  2  0  0  0
 58 59  1  0  0  0
 59 60  2  0  0  0
 60 61  1  0  0  0
 60 62  1  0  0  0
 62 63  2  0  0  0
 20 21  1  0  0  0
 21 22  1  0  0  0
 22 23  2  0  0  0
 22 24  1  0  0  0
 24 65  1  0  0  0
 65 66  1  0  0  0
 66 67  2  0  0  0
 67 68  1  0  0  0
 68 69  2  0  0  0
 69 70  1  0  0  0
 24 25  1  0  0  0
 25 26  1  0  0  0
 26 27  2  0  0  0
 26  1  1  0  0  0
 45 37  1  0  0  0
 13  9  1  0  0  0
 54 48  1  0  0  0
 63 57  1  0  0  0
 70 66  1  0  0  0
 45 40  1  0  0  0
  2 28  1  0  0  0
 39 46  1  0  0  0
  6 29  1  0  0  0
 52 55  1  0  0  0
 17 30  1  0  0  0
 61 64  1  0  0  0
 21 31  1  0  0  0
 70 71  1  0  0  0
 25 32  1  0  0  0
M  END
> <minimizedAffinity>
-9.16001

> <CNNscore>
0.2395583391

> <CNNaffinity>
7.4504342079

> <CNN_VS>
1.7848136425

> <CNNaffinity_variance>
0.6539947987

$$$$
[H]Oc1c([H])c([H])c(C([H])([H])[C@@]2([H])C(=O)N([H])[C@@]([H])(C([H])([H])c3c([H])c([H])c(O[H])c([H])c3[H])C(=O)N3C([H])([H])C([H])([H])C([H])([H])[C@@]3([H])C(=O)N([H])[C@@]([H])(C([H])([H])c3c([H])n([H])c4c([H])c([H])c([H])c([H])c34)C(=O)N([H])[C@@]([H])(C([H])(C([H])([H])[H])C([H])([H])[H])C(=O)N([H])[C@@]([H])(C([H])([H])c3c([H])nc([H])n3[H])C(=O)N2[H])c([H])c1[H]


 71 77  0  0  0  0  0  0  0  0999 V2000
    5.1027    8.6922   14.8735 C   0  0  0  0  0  0  0  0  0  0  0  0
    5.9021    7.8609   15.7143 N   0  0  0  0  0  0  0  0  0  0  0  0
    5.5101    7.0607   16.7888 C   0  0  0  0  0  0  0  0  0  0  0  0
    6.4136    6.6744   17.6099 O   0  0  0  0  0  0  0  0  0  0  0  0
    4.1134    6.6016   17.0809 C   0  0  0  0  0  0  0  0  0  0  0  0
    3.5405    5.8134   16.0479 N   0  0  0  0  0  0  0  0  0  0  0  0
    2.5604    4.8283   15.9777 C   0  0  0  0  0  0  0  0  0  0  0  0
    1.4242    5.1976   15.4146 O   0  0  0  0  0  0  0  0  0  0  0  0
    2.4871    3.4478   16.3890 C   0  0  0  0  0  0  0  0  0  0  0  0
    3.4854    2.9743   17.4179 C   0  0  0  0  0  0  0  0  0  0  0  0
    3.5178    1.4537   17.2825 C   0  0  0  0  0  0  0  0  0  0  0  0
    2.3368    1.2372   16.3242 C   0  0  0  0  0  0  0  0  0  0  0  0
    2.5959    2.3956   15.4189 N   0  0  0  0  0  0  0  0  0  0  0  0
    2.8732    2.3520   14.0710 C   0  0  0  0  0  0  0  0  0  0  0  0
    3.7904    1.4944   13.7123 O   0  0  0  0  0  0  0  0  0  0  0  0
    2.3194    3.1061   12.9266 C   0  0  0  0  0  0  0  0  0  0  0  0
    2.9809    2.7105   11.6679 N   0  0  0  0  0  0  0  0  0  0  0  0
    3.5980    3.5937   10.7645 C   0  0  0  0  0  0  0  0  0  0  0  0
    4.5852    3.2157   10.0753 O   0  0  0  0  0  0  0  0  0  0  0  0
    3.1836    5.0093   10.5230 C   0  0  0  0  0  0  0  0  0  0  0  0
    4.3416    5.8275   10.1929 N   0  0  0  0  0  0  0  0  0  0  0  0
    4.5417    7.1667   10.5834 C   0  0  0  0  0  0  0  0  0  0  0  0
    5.2040    7.9532    9.8187 O   0  0  0  0  0  0  0  0  0  0  0  0
    4.0428    7.7857   11.8441 C   0  0  0  0  0  0  0  0  0  0  0  0
    5.0181    8.7530   12.2940 N   0  0  0  0  0  0  0  0  0  0  0  0
    5.7272    8.7278   13.5139 C   0  0  0  0  0  0  0  0  0  0  0  0
    7.0110    8.7358   13.5310 O   0  0  0  0  0  0  0  0  0  0  0  0
    6.9443    7.8566   15.4836 H   0  0  0  0  0  0  0  0  0  0  0  0
    3.9717    6.0583   15.0803 H   0  0  0  0  0  0  0  0  0  0  0  0
    2.9684    1.6930   11.4748 H   0  0  0  0  0  0  0  0  0  0  0  0
    5.0729    5.3285    9.6036 H   0  0  0  0  0  0  0  0  0  0  0  0
    5.2259    9.5464   11.6486 H   0  0  0  0  0  0  0  0  0  0  0  0
    5.8638   10.1079   16.8055 C   0  0  0  0  0  0  0  0  0  0  0  0
    5.1458   10.1129   15.4504 C   0  0  0  0  0  0  0  0  0  0  0  0
    3.7785   10.6770   15.6325 C   0  0  0  0  0  0  0  0  0  0  0  0
    3.9976    6.1403   18.4814 C   0  0  0  0  0  0  0  0  0  0  0  0
    4.2896    7.1967   19.4838 C   0  0  0  0  0  0  0  0  0  0  0  0
    3.8667    8.4702   19.6417 C   0  0  0  0  0  0  0  0  0  0  0  0
    4.4242    9.0341   20.7288 N   0  0  0  0  0  0  0  0  0  0  0  0
    5.2242    8.1258   21.2962 C   0  0  0  0  0  0  0  0  0  0  0  0
    6.0084    8.2354   22.4286 C   0  0  0  0  0  0  0  0  0  0  0  0
    6.7673    7.1683   22.8458 C   0  0  0  0  0  0  0  0  0  0  0  0
    6.7079    6.0091   22.0943 C   0  0  0  0  0  0  0  0  0  0  0  0
    5.9235    5.8983   20.9614 C   0  0  0  0  0  0  0  0  0  0  0  0
    5.1681    6.9677   20.5503 C   0  0  0  0  0  0  0  0  0  0  0  0
    4.2655   10.0137   21.0793 H   0  0  0  0  0  0  0  0  0  0  0  0
    0.8598    2.9014   12.6701 C   0  0  0  0  0  0  0  0  0  0  0  0
    0.4635    2.3419   11.4016 C   0  0  0  0  0  0  0  0  0  0  0  0
   -0.2375    3.1015   10.4917 C   0  0  0  0  0  0  0  0  0  0  0  0
   -0.6413    2.5803    9.2625 C   0  0  0  0  0  0  0  0  0  0  0  0
   -0.3450    1.2888    8.9340 C   0  0  0  0  0  0  0  0  0  0  0  0
   -0.7553    0.7814    7.7009 O   0  0  0  0  0  0  0  0  0  0  0  0
    0.3574    0.5194    9.8402 C   0  0  0  0  0  0  0  0  0  0  0  0
    0.7477    1.0526   11.0500 C   0  0  0  0  0  0  0  0  0  0  0  0
   -0.5241   -0.1697    7.4856 H   0  0  0  0  0  0  0  0  0  0  0  0
    2.1472    5.0725    9.4167 C   0  0  0  0  0  0  0  0  0  0  0  0
    2.5577    5.9550    8.2892 C   0  0  0  0  0  0  0  0  0  0  0  0
    1.9895    7.1992    8.1802 C   0  0  0  0  0  0  0  0  0  0  0  0
    2.3524    8.0296    7.1464 C   0  0  0  0  0  0  0  0  0  0  0  0
    3.2807    7.6756    6.1846 C   0  0  0  0  0  0  0  0  0  0  0  0
    3.6393    8.5333    5.1382 O   0  0  0  0  0  0  0  0  0  0  0  0
    3.8277    6.4155    6.3318 C   0  0  0  0  0  0  0  0  0  0  0  0
    3.4779    5.5737    7.3561 C   0  0  0  0  0  0  0  0  0  0  0  0
    3.1777    8.5588    4.2524 H   0  0  0  0  0  0  0  0  0  0  0  0
    2.7217    8.4606   11.5585 C   0  0  0  0  0  0  0  0  0  0  0  0
    1.5788    7.8256   12.2489 C   0  0  0  0  0  0  0  0  0  0  0  0
    0.4779    7.2302   11.6843 C   0  0  0  0  0  0  0  0  0  0  0  0
   -0.3248    6.7875   12.6525 N   0  0  0  0  0  0  0  0  0  0  0  0
    0.2375    7.0861   13.8217 C   0  0  0  0  0  0  0  0  0  0  0  0
    1.3899    7.7146   13.5754 N   0  0  0  0  0  0  0  0  0  0  0  0
    2.0208    8.0533   14.3335 H   0  0  0  0  0  0  0  0  0  0  0  0
 33 34  1  0  0  0
 34 35  1  0  0  0
 34  1  1  0  0  0
  1  2  1  0  0  0
  2  3  1  0  0  0
  3  4  2  0  0  0
  3  5  1  0  0  0
  5 36  1  0  0  0
 36 37  1  0  0  0
 37 38  2  0  0  0
 38 39  1  0  0  0
 39 40  1  0  0  0
 40 41  2  0  0  0
 41 42  1  0  0  0
 42 43  2  0  0  0
 43 44  1  0  0  0
 44 45  2  0  0  0
  5  6  1  0  0  0
  6  7  1  0  0  0
  7  8  2  0  0  0
  7  9  1  0  0  0
  9 10  1  0  0  0
 10 11  1  0  0  0
 11 12  1  0  0  0
 12 13  1  0  0  0
 13 14  1  0  0  0
 14 15  2  0  0  0
 14 16  1  0  0  0
 16 47  1  0  0  0
 47 48  1  0  0  0
 48 49  2  0  0  0
 49 50  1  0  0  0
 50 51  2  0  0  0
 51 52  1  0  0  0
 51 53  1  0  0  0
 53 54  2  0  0  0
 16 17  1  0  0  0
 17 18  1  0  0  0
 18 19  2  0  0  0
 18 20  1  0  0  0
 20 56  1  0  0  0
 56 57  1  0  0  0
 57 58  2  0  0  0
 58 59  1  0  0  0
 59 60  2  0  0  0
 60 61  1  0  0  0
 60 62  1  0  0  0
 62 63  2  0  0  0
 20 21  1  0  0  0
 21 22  1  0  0  0
 22 23  2  0  0  0
 22 24  1  0  0  0
 24 65  1  0  0  0
 65 66  1  0  0  0
 66 67  2  0  0  0
 67 68  1  0  0  0
 68 69  2  0  0  0
 69 70  1  0  0  0
 24 25  1  0  0  0
 25 26  1  0  0  0
 26 27  2  0  0  0
 26  1  1  0  0  0
 45 37  1  0  0  0
 13  9  1  0  0  0
 54 48  1  0  0  0
 63 57  1  0  0  0
 70 66  1  0  0  0
 45 40  1  0  0  0
  2 28  1  0  0  0
 39 46  1  0  0  0
  6 29  1  0  0  0
 52 55  1  0  0  0
 17 30  1  0  0  0
 61 64  1  0  0  0
 21 31  1  0  0  0
 70 71  1  0  0  0
 25 32  1  0  0  0
M  END
> <minimizedAffinity>
-9.08535

> <CNNscore>
0.2369191349

> <CNNaffinity>
7.0749053955

> <CNN_VS>
1.6761804819

> <CNNaffinity_variance>
0.9636299014

$$$$
[H]Oc1c([H])c([H])c(C([H])([H])[C@@]2([H])C(=O)N([H])[C@@]([H])(C([H])([H])c3c([H])c([H])c(O[H])c([H])c3[H])C(=O)N3C([H])([H])C([H])([H])C([H])([H])[C@@]3([H])C(=O)N([H])[C@@]([H])(C([H])([H])c3c([H])n([H])c4c([H])c([H])c([H])c([H])c34)C(=O)N([H])[C@@]([H])(C([H])(C([H])([H])[H])C([H])([H])[H])C(=O)N([H])[C@@]([H])(C([H])([H])c3c([H])nc([H])n3[H])C(=O)N2[H])c([H])c1[H]


 71 77  0  0  0  0  0  0  0  0999 V2000
    4.2789    2.5627    4.7271 C   0  0  0  0  0  0  0  0  0  0  0  0
    5.5276    2.4567    5.4103 N   0  0  0  0  0  0  0  0  0  0  0  0
    6.3602    3.4724    5.8832 C   0  0  0  0  0  0  0  0  0  0  0  0
    7.5761    3.1745    6.1525 O   0  0  0  0  0  0  0  0  0  0  0  0
    5.9650    4.9004    6.1107 C   0  0  0  0  0  0  0  0  0  0  0  0
    4.9217    5.0628    7.0601 N   0  0  0  0  0  0  0  0  0  0  0  0
    4.5149    6.0734    7.9257 C   0  0  0  0  0  0  0  0  0  0  0  0
    3.4009    6.6965    7.5866 O   0  0  0  0  0  0  0  0  0  0  0  0
    5.0401    6.6232    9.1514 C   0  0  0  0  0  0  0  0  0  0  0  0
    6.4937    6.3618    9.4647 C   0  0  0  0  0  0  0  0  0  0  0  0
    6.6326    6.5903   10.9681 C   0  0  0  0  0  0  0  0  0  0  0  0
    5.2526    7.1867   11.2847 C   0  0  0  0  0  0  0  0  0  0  0  0
    4.4394    6.2896   10.4115 N   0  0  0  0  0  0  0  0  0  0  0  0
    3.4483    5.4194   10.8067 C   0  0  0  0  0  0  0  0  0  0  0  0
    3.7472    4.6466   11.8161 O   0  0  0  0  0  0  0  0  0  0  0  0
    2.0805    5.1872   10.2966 C   0  0  0  0  0  0  0  0  0  0  0  0
    1.4159    4.1060   11.0501 N   0  0  0  0  0  0  0  0  0  0  0  0
    0.8299    2.9623   10.4793 C   0  0  0  0  0  0  0  0  0  0  0  0
    0.8106    1.8710   11.1127 O   0  0  0  0  0  0  0  0  0  0  0  0
    0.1937    2.9022    9.1282 C   0  0  0  0  0  0  0  0  0  0  0  0
    0.3790    1.5841    8.5385 N   0  0  0  0  0  0  0  0  0  0  0  0
    0.6028    1.3173    7.1730 C   0  0  0  0  0  0  0  0  0  0  0  0
    0.1723    0.2215    6.6669 O   0  0  0  0  0  0  0  0  0  0  0  0
    1.3174    2.2136    6.2204 C   0  0  0  0  0  0  0  0  0  0  0  0
    2.0455    1.3919    5.2803 N   0  0  0  0  0  0  0  0  0  0  0  0
    3.4430    1.3739    5.0848 C   0  0  0  0  0  0  0  0  0  0  0  0
    4.1122    0.2849    5.2066 O   0  0  0  0  0  0  0  0  0  0  0  0
    5.8657    1.4583    5.5783 H   0  0  0  0  0  0  0  0  0  0  0  0
    4.2859    4.1818    7.1015 H   0  0  0  0  0  0  0  0  0  0  0  0
    1.4046    4.2391   12.0772 H   0  0  0  0  0  0  0  0  0  0  0  0
    0.3321    0.7844    9.2380 H   0  0  0  0  0  0  0  0  0  0  0  0
    1.4825    0.7395    4.6914 H   0  0  0  0  0  0  0  0  0  0  0  0
    3.2779    2.1916    2.4520 C   0  0  0  0  0  0  0  0  0  0  0  0
    4.5675    2.5014    3.2218 C   0  0  0  0  0  0  0  0  0  0  0  0
    5.5840    1.4614    2.8960 C   0  0  0  0  0  0  0  0  0  0  0  0
    7.1617    5.7643    6.2068 C   0  0  0  0  0  0  0  0  0  0  0  0
    7.0644    7.0102    5.4043 C   0  0  0  0  0  0  0  0  0  0  0  0
    6.0327    7.6687    4.8318 C   0  0  0  0  0  0  0  0  0  0  0  0
    6.4574    8.7779    4.1997 N   0  0  0  0  0  0  0  0  0  0  0  0
    7.7830    8.8550    4.3544 C   0  0  0  0  0  0  0  0  0  0  0  0
    8.6648    9.8109    3.8877 C   0  0  0  0  0  0  0  0  0  0  0  0
   10.0071    9.7007    4.1612 C   0  0  0  0  0  0  0  0  0  0  0  0
   10.4199    8.6126    4.9081 C   0  0  0  0  0  0  0  0  0  0  0  0
    9.5385    7.6558    5.3757 C   0  0  0  0  0  0  0  0  0  0  0  0
    8.1994    7.7719    5.0990 C   0  0  0  0  0  0  0  0  0  0  0  0
    5.8615    9.4687    3.6749 H   0  0  0  0  0  0  0  0  0  0  0  0
    1.1497    6.3536   10.4040 C   0  0  0  0  0  0  0  0  0  0  0  0
    0.3367    6.4687   11.5893 C   0  0  0  0  0  0  0  0  0  0  0  0
   -1.0139    6.2050   11.5381 C   0  0  0  0  0  0  0  0  0  0  0  0
   -1.8237    6.3193   12.6681 C   0  0  0  0  0  0  0  0  0  0  0  0
   -1.2846    6.7004   13.8630 C   0  0  0  0  0  0  0  0  0  0  0  0
   -2.1069    6.8103   14.9847 O   0  0  0  0  0  0  0  0  0  0  0  0
    0.0687    6.9673   13.9239 C   0  0  0  0  0  0  0  0  0  0  0  0
    0.8524    6.8486   12.7961 C   0  0  0  0  0  0  0  0  0  0  0  0
   -1.6848    7.0918   15.8489 H   0  0  0  0  0  0  0  0  0  0  0  0
   -1.2810    3.2458    9.2255 C   0  0  0  0  0  0  0  0  0  0  0  0
   -1.6034    4.5802    8.6477 C   0  0  0  0  0  0  0  0  0  0  0  0
   -2.8272    5.1403    8.9150 C   0  0  0  0  0  0  0  0  0  0  0  0
   -3.1465    6.3704    8.3907 C   0  0  0  0  0  0  0  0  0  0  0  0
   -2.2845    7.0955    7.5887 C   0  0  0  0  0  0  0  0  0  0  0  0
   -2.6252    8.3471    7.0627 O   0  0  0  0  0  0  0  0  0  0  0  0
   -1.0642    6.4954    7.3448 C   0  0  0  0  0  0  0  0  0  0  0  0
   -0.7284    5.2694    7.8590 C   0  0  0  0  0  0  0  0  0  0  0  0
   -3.0763    8.4797    6.1811 H   0  0  0  0  0  0  0  0  0  0  0  0
    0.2959    3.0624    5.5004 C   0  0  0  0  0  0  0  0  0  0  0  0
   -0.9071    2.3076    5.0894 C   0  0  0  0  0  0  0  0  0  0  0  0
   -2.1894    2.4429    5.5613 C   0  0  0  0  0  0  0  0  0  0  0  0
   -2.9797    1.5690    4.9373 N   0  0  0  0  0  0  0  0  0  0  0  0
   -2.2326    0.8791    4.0782 C   0  0  0  0  0  0  0  0  0  0  0  0
   -0.9780    1.3276    4.1717 N   0  0  0  0  0  0  0  0  0  0  0  0
   -0.1975    0.9436    3.5964 H   0  0  0  0  0  0  0  0  0  0  0  0
 33 34  1  0  0  0
 34 35  1  0  0  0
 34  1  1  0  0  0
  1  2  1  0  0  0
  2  3  1  0  0  0
  3  4  2  0  0  0
  3  5  1  0  0  0
  5 36  1  0  0  0
 36 37  1  0  0  0
 37 38  2  0  0  0
 38 39  1  0  0  0
 39 40  1  0  0  0
 40 41  2  0  0  0
 41 42  1  0  0  0
 42 43  2  0  0  0
 43 44  1  0  0  0
 44 45  2  0  0  0
  5  6  1  0  0  0
  6  7  1  0  0  0
  7  8  2  0  0  0
  7  9  1  0  0  0
  9 10  1  0  0  0
 10 11  1  0  0  0
 11 12  1  0  0  0
 12 13  1  0  0  0
 13 14  1  0  0  0
 14 15  2  0  0  0
 14 16  1  0  0  0
 16 47  1  0  0  0
 47 48  1  0  0  0
 48 49  2  0  0  0
 49 50  1  0  0  0
 50 51  2  0  0  0
 51 52  1  0  0  0
 51 53  1  0  0  0
 53 54  2  0  0  0
 16 17  1  0  0  0
 17 18  1  0  0  0
 18 19  2  0  0  0
 18 20  1  0  0  0
 20 56  1  0  0  0
 56 57  1  0  0  0
 57 58  2  0  0  0
 58 59  1  0  0  0
 59 60  2  0  0  0
 60 61  1  0  0  0
 60 62  1  0  0  0
 62 63  2  0  0  0
 20 21  1  0  0  0
 21 22  1  0  0  0
 22 23  2  0  0  0
 22 24  1  0  0  0
 24 65  1  0  0  0
 65 66  1  0  0  0
 66 67  2  0  0  0
 67 68  1  0  0  0
 68 69  2  0  0  0
 69 70  1  0  0  0
 24 25  1  0  0  0
 25 26  1  0  0  0
 26 27  2  0  0  0
 26  1  1  0  0  0
 45 37  1  0  0  0
 13  9  1  0  0  0
 54 48  1  0  0  0
 63 57  1  0  0  0
 70 66  1  0  0  0
 45 40  1  0  0  0
  2 28  1  0  0  0
 39 46  1  0  0  0
  6 29  1  0  0  0
 52 55  1  0  0  0
 17 30  1  0  0  0
 61 64  1  0  0  0
 21 31  1  0  0  0
 70 71  1  0  0  0
 25 32  1  0  0  0
M  END
> <minimizedAffinity>
-7.03101

> <CNNscore>
0.2240669578

> <CNNaffinity>
6.8080620766

> <CNN_VS>
1.5254617929

> <CNNaffinity_variance>
0.9445678592

$$$$
[H]Oc1c([H])c([H])c(C([H])([H])[C@@]2([H])C(=O)N([H])[C@@]([H])(C([H])([H])c3c([H])c([H])c(O[H])c([H])c3[H])C(=O)N3C([H])([H])C([H])([H])C([H])([H])[C@@]3([H])C(=O)N([H])[C@@]([H])(C([H])([H])c3c([H])n([H])c4c([H])c([H])c([H])c([H])c34)C(=O)N([H])[C@@]([H])(C([H])(C([H])([H])[H])C([H])([H])[H])C(=O)N([H])[C@@]([H])(C([H])([H])c3c([H])nc([H])n3[H])C(=O)N2[H])c([H])c1[H]


 71 77  0  0  0  0  0  0  0  0999 V2000
    5.3370    8.0859   17.1910 C   0  0  0  0  0  0  0  0  0  0  0  0
    5.9594    6.8740   17.6163 N   0  0  0  0  0  0  0  0  0  0  0  0
    5.3693    5.7042   18.0978 C   0  0  0  0  0  0  0  0  0  0  0  0
    6.1096    4.8784   18.7378 O   0  0  0  0  0  0  0  0  0  0  0  0
    3.9312    5.3130   17.9368 C   0  0  0  0  0  0  0  0  0  0  0  0
    3.5203    5.1812   16.5840 N   0  0  0  0  0  0  0  0  0  0  0  0
    2.5396    4.4605   15.9096 C   0  0  0  0  0  0  0  0  0  0  0  0
    1.5258    5.1727   15.4522 O   0  0  0  0  0  0  0  0  0  0  0  0
    2.3599    3.0681   15.5786 C   0  0  0  0  0  0  0  0  0  0  0  0
    3.1561    2.0569   16.3678 C   0  0  0  0  0  0  0  0  0  0  0  0
    3.1693    0.7927   15.5114 C   0  0  0  0  0  0  0  0  0  0  0  0
    2.1623    1.1882   14.4208 C   0  0  0  0  0  0  0  0  0  0  0  0
    2.6026    2.6035   14.2425 N   0  0  0  0  0  0  0  0  0  0  0  0
    3.1030    3.1807   13.0971 C   0  0  0  0  0  0  0  0  0  0  0  0
    4.0439    2.5071   12.4917 O   0  0  0  0  0  0  0  0  0  0  0  0
    2.7719    4.4445   12.4055 C   0  0  0  0  0  0  0  0  0  0  0  0
    3.6260    4.6313   11.2163 N   0  0  0  0  0  0  0  0  0  0  0  0
    4.4112    5.7677   10.9531 C   0  0  0  0  0  0  0  0  0  0  0  0
    5.4902    5.6627   10.3071 O   0  0  0  0  0  0  0  0  0  0  0  0
    4.0826    7.1613   11.3820 C   0  0  0  0  0  0  0  0  0  0  0  0
    5.3018    7.9090   11.6537 N   0  0  0  0  0  0  0  0  0  0  0  0
    5.4694    8.8682   12.6724 C   0  0  0  0  0  0  0  0  0  0  0  0
    6.2730    9.8491   12.4875 O   0  0  0  0  0  0  0  0  0  0  0  0
    4.7814    8.8578   13.9945 C   0  0  0  0  0  0  0  0  0  0  0  0
    5.6924    9.3819   14.9867 N   0  0  0  0  0  0  0  0  0  0  0  0
    6.1836    8.7009   16.1210 C   0  0  0  0  0  0  0  0  0  0  0  0
    7.4457    8.5630   16.3124 O   0  0  0  0  0  0  0  0  0  0  0  0
    7.0251    6.8696   17.5556 H   0  0  0  0  0  0  0  0  0  0  0  0
    4.1157    5.8115   15.9281 H   0  0  0  0  0  0  0  0  0  0  0  0
    3.6185    3.8381   10.5503 H   0  0  0  0  0  0  0  0  0  0  0  0
    6.1084    7.6781   11.0002 H   0  0  0  0  0  0  0  0  0  0  0  0
    6.0282   10.3602   14.8468 H   0  0  0  0  0  0  0  0  0  0  0  0
    6.5012    8.7408   19.3198 C   0  0  0  0  0  0  0  0  0  0  0  0
    5.3207    9.0437   18.3891 C   0  0  0  0  0  0  0  0  0  0  0  0
    4.0543    8.9340   19.1669 C   0  0  0  0  0  0  0  0  0  0  0  0
    3.5672    4.2533   18.9023 C   0  0  0  0  0  0  0  0  0  0  0  0
    3.7108    4.6645   20.3222 C   0  0  0  0  0  0  0  0  0  0  0  0
    3.6298    5.8541   20.9579 C   0  0  0  0  0  0  0  0  0  0  0  0
    3.8352    5.7114   22.2800 N   0  0  0  0  0  0  0  0  0  0  0  0
    4.0547    4.4153   22.5226 C   0  0  0  0  0  0  0  0  0  0  0  0
    4.3142    3.7808   23.7222 C   0  0  0  0  0  0  0  0  0  0  0  0
    4.5144    2.4215   23.7525 C   0  0  0  0  0  0  0  0  0  0  0  0
    4.4445    1.7384   22.5522 C   0  0  0  0  0  0  0  0  0  0  0  0
    4.1847    2.3721   21.3514 C   0  0  0  0  0  0  0  0  0  0  0  0
    3.9858    3.7298   21.3283 C   0  0  0  0  0  0  0  0  0  0  0  0
    3.8262    6.4762   23.0029 H   0  0  0  0  0  0  0  0  0  0  0  0
    1.3718    4.5442   11.8878 C   0  0  0  0  0  0  0  0  0  0  0  0
    0.4312    5.3548   12.6209 C   0  0  0  0  0  0  0  0  0  0  0  0
   -0.9029    5.0157   12.6578 C   0  0  0  0  0  0  0  0  0  0  0  0
   -1.8341    5.7890   13.3509 C   0  0  0  0  0  0  0  0  0  0  0  0
   -1.4345    6.9128   14.0150 C   0  0  0  0  0  0  0  0  0  0  0  0
   -2.3772    7.6763   14.7041 O   0  0  0  0  0  0  0  0  0  0  0  0
   -0.0987    7.2610   13.9834 C   0  0  0  0  0  0  0  0  0  0  0  0
    0.8063    6.4838   13.2928 C   0  0  0  0  0  0  0  0  0  0  0  0
   -2.0562    8.4960   15.1830 H   0  0  0  0  0  0  0  0  0  0  0  0
    3.2507    7.8560   10.3201 C   0  0  0  0  0  0  0  0  0  0  0  0
    3.8355    7.7340    8.9556 C   0  0  0  0  0  0  0  0  0  0  0  0
    4.8446    8.5880    8.5880 C   0  0  0  0  0  0  0  0  0  0  0  0
    5.3978    8.4943    7.3329 C   0  0  0  0  0  0  0  0  0  0  0  0
    4.9864    7.5658    6.3945 C   0  0  0  0  0  0  0  0  0  0  0  0
    5.5604    7.4836    5.1206 O   0  0  0  0  0  0  0  0  0  0  0  0
    3.9689    6.7263    6.8055 C   0  0  0  0  0  0  0  0  0  0  0  0
    3.4052    6.8052    8.0530 C   0  0  0  0  0  0  0  0  0  0  0  0
    5.2300    7.9885    4.3242 H   0  0  0  0  0  0  0  0  0  0  0  0
    3.5467    9.7235   13.9008 C   0  0  0  0  0  0  0  0  0  0  0  0
    3.4024   10.6618   15.0342 C   0  0  0  0  0  0  0  0  0  0  0  0
    3.8184   11.9684   15.1052 C   0  0  0  0  0  0  0  0  0  0  0  0
    3.5058   12.4625   16.3035 N   0  0  0  0  0  0  0  0  0  0  0  0
    2.9002   11.5026   16.9991 C   0  0  0  0  0  0  0  0  0  0  0  0
    2.8384   10.4130   16.2291 N   0  0  0  0  0  0  0  0  0  0  0  0
    2.4062    9.5197   16.5495 H   0  0  0  0  0  0  0  0  0  0  0  0
 33 34  1  0  0  0
 34 35  1  0  0  0
 34  1  1  0  0  0
  1  2  1  0  0  0
  2  3  1  0  0  0
  3  4  2  0  0  0
  3  5  1  0  0  0
  5 36  1  0  0  0
 36 37  1  0  0  0
 37 38  2  0  0  0
 38 39  1  0  0  0
 39 40  1  0  0  0
 40 41  2  0  0  0
 41 42  1  0  0  0
 42 43  2  0  0  0
 43 44  1  0  0  0
 44 45  2  0  0  0
  5  6  1  0  0  0
  6  7  1  0  0  0
  7  8  2  0  0  0
  7  9  1  0  0  0
  9 10  1  0  0  0
 10 11  1  0  0  0
 11 12  1  0  0  0
 12 13  1  0  0  0
 13 14  1  0  0  0
 14 15  2  0  0  0
 14 16  1  0  0  0
 16 47  1  0  0  0
 47 48  1  0  0  0
 48 49  2  0  0  0
 49 50  1  0  0  0
 50 51  2  0  0  0
 51 52  1  0  0  0
 51 53  1  0  0  0
 53 54  2  0  0  0
 16 17  1  0  0  0
 17 18  1  0  0  0
 18 19  2  0  0  0
 18 20  1  0  0  0
 20 56  1  0  0  0
 56 57  1  0  0  0
 57 58  2  0  0  0
 58 59  1  0  0  0
 59 60  2  0  0  0
 60 61  1  0  0  0
 60 62  1  0  0  0
 62 63  2  0  0  0
 20 21  1  0  0  0
 21 22  1  0  0  0
 22 23  2  0  0  0
 22 24  1  0  0  0
 24 65  1  0  0  0
 65 66  1  0  0  0
 66 67  2  0  0  0
 67 68  1  0  0  0
 68 69  2  0  0  0
 69 70  1  0  0  0
 24 25  1  0  0  0
 25 26  1  0  0  0
 26 27  2  0  0  0
 26  1  1  0  0  0
 45 37  1  0  0  0
 13  9  1  0  0  0
 54 48  1  0  0  0
 63 57  1  0  0  0
 70 66  1  0  0  0
 45 40  1  0  0  0
  2 28  1  0  0  0
 39 46  1  0  0  0
  6 29  1  0  0  0
 52 55  1  0  0  0
 17 30  1  0  0  0
 61 64  1  0  0  0
 21 31  1  0  0  0
 70 71  1  0  0  0
 25 32  1  0  0  0
M  END
> <minimizedAffinity>
-9.58636

> <CNNscore>
0.2031837702

> <CNNaffinity>
7.4159326553

> <CNN_VS>
1.5067971945

> <CNNaffinity_variance>
0.8352898359

$$$$
[H]Oc1c([H])c([H])c(C([H])([H])[C@@]2([H])C(=O)N([H])[C@@]([H])(C([H])([H])c3c([H])c([H])c(O[H])c([H])c3[H])C(=O)N3C([H])([H])C([H])([H])C([H])([H])[C@@]3([H])C(=O)N([H])[C@@]([H])(C([H])([H])c3c([H])n([H])c4c([H])c([H])c([H])c([H])c34)C(=O)N([H])[C@@]([H])(C([H])(C([H])([H])[H])C([H])([H])[H])C(=O)N([H])[C@@]([H])(C([H])([H])c3c([H])nc([H])n3[H])C(=O)N2[H])c([H])c1[H]


 71 77  0  0  0  0  0  0  0  0999 V2000
    2.7733    3.7160   10.3660 C   0  0  0  0  0  0  0  0  0  0  0  0
    2.8098    2.3482    9.9596 N   0  0  0  0  0  0  0  0  0  0  0  0
    1.7818    1.5554    9.4468 C   0  0  0  0  0  0  0  0  0  0  0  0
    1.9351    0.2844    9.4720 O   0  0  0  0  0  0  0  0  0  0  0  0
    0.4954    2.0532    8.8599 C   0  0  0  0  0  0  0  0  0  0  0  0
    0.6677    2.8864    7.7231 N   0  0  0  0  0  0  0  0  0  0  0  0
   -0.0962    3.2148    6.6074 C   0  0  0  0  0  0  0  0  0  0  0  0
   -0.5936    4.4383    6.6006 O   0  0  0  0  0  0  0  0  0  0  0  0
   -0.4888    2.5105    5.4115 C   0  0  0  0  0  0  0  0  0  0  0  0
   -0.3992    1.0035    5.4303 C   0  0  0  0  0  0  0  0  0  0  0  0
   -0.3707    0.5801    3.9634 C   0  0  0  0  0  0  0  0  0  0  0  0
   -0.6833    1.9217    3.2833 C   0  0  0  0  0  0  0  0  0  0  0  0
    0.1543    2.7928    4.1598 N   0  0  0  0  0  0  0  0  0  0  0  0
    1.2219    3.5744    3.7792 C   0  0  0  0  0  0  0  0  0  0  0  0
    2.1099    2.9857    3.0240 O   0  0  0  0  0  0  0  0  0  0  0  0
    1.5633    4.9835    4.0676 C   0  0  0  0  0  0  0  0  0  0  0  0
    2.8511    5.3491    3.4461 N   0  0  0  0  0  0  0  0  0  0  0  0
    3.9484    5.9084    4.1246 C   0  0  0  0  0  0  0  0  0  0  0  0
    5.1262    5.6714    3.7385 O   0  0  0  0  0  0  0  0  0  0  0  0
    3.8594    6.8021    5.3193 C   0  0  0  0  0  0  0  0  0  0  0  0
    5.0055    6.5965    6.1931 N   0  0  0  0  0  0  0  0  0  0  0  0
    4.9841    6.6344    7.6016 C   0  0  0  0  0  0  0  0  0  0  0  0
    6.0229    7.0345    8.2365 O   0  0  0  0  0  0  0  0  0  0  0  0
    3.8325    6.2408    8.4619 C   0  0  0  0  0  0  0  0  0  0  0  0
    4.3503    5.6373    9.6689 N   0  0  0  0  0  0  0  0  0  0  0  0
    4.1201    4.3186   10.1159 C   0  0  0  0  0  0  0  0  0  0  0  0
    5.0986    3.5201   10.3469 O   0  0  0  0  0  0  0  0  0  0  0  0
    3.7590    1.8718   10.0669 H   0  0  0  0  0  0  0  0  0  0  0  0
    1.6279    3.3957    7.7498 H   0  0  0  0  0  0  0  0  0  0  0  0
    2.9090    5.1604    2.4293 H   0  0  0  0  0  0  0  0  0  0  0  0
    5.9162    6.4053    5.6781 H   0  0  0  0  0  0  0  0  0  0  0  0
    4.9635    6.2335   10.2671 H   0  0  0  0  0  0  0  0  0  0  0  0
    3.4040    4.8037   12.5420 C   0  0  0  0  0  0  0  0  0  0  0  0
    2.5170    3.7434   11.8781 C   0  0  0  0  0  0  0  0  0  0  0  0
    2.7925    2.4219   12.5094 C   0  0  0  0  0  0  0  0  0  0  0  0
   -0.5087    0.9684    8.8072 C   0  0  0  0  0  0  0  0  0  0  0  0
   -1.8964    1.4261    9.0725 C   0  0  0  0  0  0  0  0  0  0  0  0
   -2.4229    2.5901    9.5127 C   0  0  0  0  0  0  0  0  0  0  0  0
   -3.7643    2.5168    9.5879 N   0  0  0  0  0  0  0  0  0  0  0  0
   -4.1301    1.2928    9.1943 C   0  0  0  0  0  0  0  0  0  0  0  0
   -5.3950    0.7445    9.1014 C   0  0  0  0  0  0  0  0  0  0  0  0
   -5.5535   -0.5505    8.6692 C   0  0  0  0  0  0  0  0  0  0  0  0
   -4.4122   -1.2587    8.3404 C   0  0  0  0  0  0  0  0  0  0  0  0
   -3.1463   -0.7111    8.4328 C   0  0  0  0  0  0  0  0  0  0  0  0
   -2.9952    0.5826    8.8651 C   0  0  0  0  0  0  0  0  0  0  0  0
   -4.4184    3.2804    9.8989 H   0  0  0  0  0  0  0  0  0  0  0  0
    0.5908    5.9969    3.5525 C   0  0  0  0  0  0  0  0  0  0  0  0
    0.3375    7.1671    4.3561 C   0  0  0  0  0  0  0  0  0  0  0  0
    0.2688    7.0706    5.7281 C   0  0  0  0  0  0  0  0  0  0  0  0
    0.0146    8.1856    6.5267 C   0  0  0  0  0  0  0  0  0  0  0  0
   -0.1737    9.4108    5.9549 C   0  0  0  0  0  0  0  0  0  0  0  0
   -0.4269   10.5170    6.7665 O   0  0  0  0  0  0  0  0  0  0  0  0
   -0.1069    9.5172    4.5799 C   0  0  0  0  0  0  0  0  0  0  0  0
    0.1453    8.4036    3.8077 C   0  0  0  0  0  0  0  0  0  0  0  0
   -0.5610   11.4042    6.3203 H   0  0  0  0  0  0  0  0  0  0  0  0
    3.7673    8.2530    4.8850 C   0  0  0  0  0  0  0  0  0  0  0  0
    5.0992    8.8592    4.6072 C   0  0  0  0  0  0  0  0  0  0  0  0
    5.6443    8.7173    3.3560 C   0  0  0  0  0  0  0  0  0  0  0  0
    6.8733    9.2672    3.0780 C   0  0  0  0  0  0  0  0  0  0  0  0
    7.6119    9.9735    4.0096 C   0  0  0  0  0  0  0  0  0  0  0  0
    8.8620   10.5273    3.7102 O   0  0  0  0  0  0  0  0  0  0  0  0
    7.0268   10.0924    5.2555 C   0  0  0  0  0  0  0  0  0  0  0  0
    5.8022    9.5507    5.5508 C   0  0  0  0  0  0  0  0  0  0  0  0
    9.7301   10.0474    3.8306 H   0  0  0  0  0  0  0  0  0  0  0  0
    3.0328    7.4796    8.7913 C   0  0  0  0  0  0  0  0  0  0  0  0
    1.8872    7.2155    9.6878 C   0  0  0  0  0  0  0  0  0  0  0  0
    1.6725    7.7118   10.9499 C   0  0  0  0  0  0  0  0  0  0  0  0
    0.5249    7.2241   11.4222 N   0  0  0  0  0  0  0  0  0  0  0  0
    0.0020    6.4285   10.4918 C   0  0  0  0  0  0  0  0  0  0  0  0
    0.8282    6.4244    9.4424 N   0  0  0  0  0  0  0  0  0  0  0  0
    0.6393    5.8723    8.5781 H   0  0  0  0  0  0  0  0  0  0  0  0
 33 34  1  0  0  0
 34 35  1  0  0  0
 34  1  1  0  0  0
  1  2  1  0  0  0
  2  3  1  0  0  0
  3  4  2  0  0  0
  3  5  1  0  0  0
  5 36  1  0  0  0
 36 37  1  0  0  0
 37 38  2  0  0  0
 38 39  1  0  0  0
 39 40  1  0  0  0
 40 41  2  0  0  0
 41 42  1  0  0  0
 42 43  2  0  0  0
 43 44  1  0  0  0
 44 45  2  0  0  0
  5  6  1  0  0  0
  6  7  1  0  0  0
  7  8  2  0  0  0
  7  9  1  0  0  0
  9 10  1  0  0  0
 10 11  1  0  0  0
 11 12  1  0  0  0
 12 13  1  0  0  0
 13 14  1  0  0  0
 14 15  2  0  0  0
 14 16  1  0  0  0
 16 47  1  0  0  0
 47 48  1  0  0  0
 48 49  2  0  0  0
 49 50  1  0  0  0
 50 51  2  0  0  0
 51 52  1  0  0  0
 51 53  1  0  0  0
 53 54  2  0  0  0
 16 17  1  0  0  0
 17 18  1  0  0  0
 18 19  2  0  0  0
 18 20  1  0  0  0
 20 56  1  0  0  0
 56 57  1  0  0  0
 57 58  2  0  0  0
 58 59  1  0  0  0
 59 60  2  0  0  0
 60 61  1  0  0  0
 60 62  1  0  0  0
 62 63  2  0  0  0
 20 21  1  0  0  0
 21 22  1  0  0  0
 22 23  2  0  0  0
 22 24  1  0  0  0
 24 65  1  0  0  0
 65 66  1  0  0  0
 66 67  2  0  0  0
 67 68  1  0  0  0
 68 69  2  0  0  0
 69 70  1  0  0  0
 24 25  1  0  0  0
 25 26  1  0  0  0
 26 27  2  0  0  0
 26  1  1  0  0  0
 45 37  1  0  0  0
 13  9  1  0  0  0
 54 48  1  0  0  0
 63 57  1  0  0  0
 70 66  1  0  0  0
 45 40  1  0  0  0
  2 28  1  0  0  0
 39 46  1  0  0  0
  6 29  1  0  0  0
 52 55  1  0  0  0
 17 30  1  0  0  0
 61 64  1  0  0  0
 21 31  1  0  0  0
 70 71  1  0  0  0
 25 32  1  0  0  0
M  END
> <minimizedAffinity>
-7.56439

> <CNNscore>
0.1904689521

> <CNNaffinity>
6.5295896530

> <CNN_VS>
1.2436840534

> <CNNaffinity_variance>
1.1580549479

$$$$
[H]Oc1c([H])c([H])c(C([H])([H])[C@@]2([H])C(=O)N([H])[C@@]([H])(C([H])([H])c3c([H])c([H])c(O[H])c([H])c3[H])C(=O)N3C([H])([H])C([H])([H])C([H])([H])[C@@]3([H])C(=O)N([H])[C@@]([H])(C([H])([H])c3c([H])n([H])c4c([H])c([H])c([H])c([H])c34)C(=O)N([H])[C@@]([H])(C([H])(C([H])([H])[H])C([H])([H])[H])C(=O)N([H])[C@@]([H])(C([H])([H])c3c([H])nc([H])n3[H])C(=O)N2[H])c([H])c1[H]


 71 77  0  0  0  0  0  0  0  0999 V2000
    5.2844    8.0477   17.6529 C   0  0  0  0  0  0  0  0  0  0  0  0
    5.9041    6.8574   18.1389 N   0  0  0  0  0  0  0  0  0  0  0  0
    5.3098    5.6981   18.6401 C   0  0  0  0  0  0  0  0  0  0  0  0
    6.0367    4.9022   19.3313 O   0  0  0  0  0  0  0  0  0  0  0  0
    3.8816    5.2863   18.4457 C   0  0  0  0  0  0  0  0  0  0  0  0
    3.5167    5.1050   17.0854 N   0  0  0  0  0  0  0  0  0  0  0  0
    2.5658    4.3516   16.4041 C   0  0  0  0  0  0  0  0  0  0  0  0
    1.5607    5.0373   15.8902 O   0  0  0  0  0  0  0  0  0  0  0  0
    2.4105    2.9472   16.1146 C   0  0  0  0  0  0  0  0  0  0  0  0
    3.1901    1.9715   16.9628 C   0  0  0  0  0  0  0  0  0  0  0  0
    3.2437    0.6796   16.1505 C   0  0  0  0  0  0  0  0  0  0  0  0
    2.2693    1.0277   15.0149 C   0  0  0  0  0  0  0  0  0  0  0  0
    2.7015    2.4408   14.8035 N   0  0  0  0  0  0  0  0  0  0  0  0
    3.2337    2.9849   13.6561 C   0  0  0  0  0  0  0  0  0  0  0  0
    4.2004    2.3016   13.1048 O   0  0  0  0  0  0  0  0  0  0  0  0
    2.9133    4.2213   12.9119 C   0  0  0  0  0  0  0  0  0  0  0  0
    3.8042    4.3775   11.7456 N   0  0  0  0  0  0  0  0  0  0  0  0
    4.5866    5.5129   11.4699 C   0  0  0  0  0  0  0  0  0  0  0  0
    5.6872    5.3980   10.8633 O   0  0  0  0  0  0  0  0  0  0  0  0
    4.2306    6.9164   11.8407 C   0  0  0  0  0  0  0  0  0  0  0  0
    5.4330    7.6859   12.1266 N   0  0  0  0  0  0  0  0  0  0  0  0
    5.5577    8.6803   13.1173 C   0  0  0  0  0  0  0  0  0  0  0  0
    6.3574    9.6630   12.9257 O   0  0  0  0  0  0  0  0  0  0  0  0
    4.8266    8.7066   14.4159 C   0  0  0  0  0  0  0  0  0  0  0  0
    5.6995    9.2732   15.4190 N   0  0  0  0  0  0  0  0  0  0  0  0
    6.1597    8.6357   16.5909 C   0  0  0  0  0  0  0  0  0  0  0  0
    7.4161    8.5179   16.8279 O   0  0  0  0  0  0  0  0  0  0  0  0
    6.9713    6.8625   18.1131 H   0  0  0  0  0  0  0  0  0  0  0  0
    4.1273    5.7195   16.4284 H   0  0  0  0  0  0  0  0  0  0  0  0
    3.8263    3.5625   11.1068 H   0  0  0  0  0  0  0  0  0  0  0  0
    6.2628    7.4419   11.5078 H   0  0  0  0  0  0  0  0  0  0  0  0
    6.0302   10.2498   15.2572 H   0  0  0  0  0  0  0  0  0  0  0  0
    6.3316    8.7438   19.8289 C   0  0  0  0  0  0  0  0  0  0  0  0
    5.2194    9.0447   18.8169 C   0  0  0  0  0  0  0  0  0  0  0  0
    3.9048    8.9920   19.5169 C   0  0  0  0  0  0  0  0  0  0  0  0
    3.4964    4.2555   19.4340 C   0  0  0  0  0  0  0  0  0  0  0  0
    3.8946    4.5851   20.8263 C   0  0  0  0  0  0  0  0  0  0  0  0
    4.0430    5.7469   21.5000 C   0  0  0  0  0  0  0  0  0  0  0  0
    4.4253    5.5241   22.7708 N   0  0  0  0  0  0  0  0  0  0  0  0
    4.5315    4.2025   22.9405 C   0  0  0  0  0  0  0  0  0  0  0  0
    4.8936    3.4909   24.0681 C   0  0  0  0  0  0  0  0  0  0  0  0
    4.9422    2.1179   24.0293 C   0  0  0  0  0  0  0  0  0  0  0  0
    4.6185    1.5006   22.8350 C   0  0  0  0  0  0  0  0  0  0  0  0
    4.2559    2.2115   21.7063 C   0  0  0  0  0  0  0  0  0  0  0  0
    4.2094    3.5823   21.7520 C   0  0  0  0  0  0  0  0  0  0  0  0
    4.6097    6.2524   23.5078 H   0  0  0  0  0  0  0  0  0  0  0  0
    1.5301    4.2886   12.3460 C   0  0  0  0  0  0  0  0  0  0  0  0
    1.1463    3.3015   11.3674 C   0  0  0  0  0  0  0  0  0  0  0  0
    0.8986    3.6699   10.0638 C   0  0  0  0  0  0  0  0  0  0  0  0
    0.5158    2.7359    9.1012 C   0  0  0  0  0  0  0  0  0  0  0  0
    0.3774    1.4203    9.4383 C   0  0  0  0  0  0  0  0  0  0  0  0
   -0.0060    0.4975    8.4646 O   0  0  0  0  0  0  0  0  0  0  0  0
    0.6233    1.0415   10.7431 C   0  0  0  0  0  0  0  0  0  0  0  0
    1.0006    1.9795   11.6801 C   0  0  0  0  0  0  0  0  0  0  0  0
   -0.0998   -0.4616    8.7397 H   0  0  0  0  0  0  0  0  0  0  0  0
    3.4274    7.5663   10.7295 C   0  0  0  0  0  0  0  0  0  0  0  0
    1.9671    7.2925   10.8352 C   0  0  0  0  0  0  0  0  0  0  0  0
    1.3413    7.4888   12.0404 C   0  0  0  0  0  0  0  0  0  0  0  0
   -0.0056    7.2408   12.1611 C   0  0  0  0  0  0  0  0  0  0  0  0
   -0.7872    6.7933   11.1119 C   0  0  0  0  0  0  0  0  0  0  0  0
   -2.1578    6.5457   11.2516 O   0  0  0  0  0  0  0  0  0  0  0  0
   -0.1178    6.6089    9.9175 C   0  0  0  0  0  0  0  0  0  0  0  0
    1.2247    6.8509    9.7785 C   0  0  0  0  0  0  0  0  0  0  0  0
   -2.5425    5.6633   11.5196 H   0  0  0  0  0  0  0  0  0  0  0  0
    3.5874    9.5552   14.2530 C   0  0  0  0  0  0  0  0  0  0  0  0
    3.4338   10.5759   15.3114 C   0  0  0  0  0  0  0  0  0  0  0  0
    3.8722   11.8770   15.2980 C   0  0  0  0  0  0  0  0  0  0  0  0
    3.5405   12.4623   16.4492 N   0  0  0  0  0  0  0  0  0  0  0  0
    2.9008   11.5660   17.1971 C   0  0  0  0  0  0  0  0  0  0  0  0
    2.8371   10.4244   16.5067 N   0  0  0  0  0  0  0  0  0  0  0  0
    2.3808    9.5643   16.8801 H   0  0  0  0  0  0  0  0  0  0  0  0
 33 34  1  0  0  0
 34 35  1  0  0  0
 34  1  1  0  0  0
  1  2  1  0  0  0
  2  3  1  0  0  0
  3  4  2  0  0  0
  3  5  1  0  0  0
  5 36  1  0  0  0
 36 37  1  0  0  0
 37 38  2  0  0  0
 38 39  1  0  0  0
 39 40  1  0  0  0
 40 41  2  0  0  0
 41 42  1  0  0  0
 42 43  2  0  0  0
 43 44  1  0  0  0
 44 45  2  0  0  0
  5  6  1  0  0  0
  6  7  1  0  0  0
  7  8  2  0  0  0
  7  9  1  0  0  0
  9 10  1  0  0  0
 10 11  1  0  0  0
 11 12  1  0  0  0
 12 13  1  0  0  0
 13 14  1  0  0  0
 14 15  2  0  0  0
 14 16  1  0  0  0
 16 47  1  0  0  0
 47 48  1  0  0  0
 48 49  2  0  0  0
 49 50  1  0  0  0
 50 51  2  0  0  0
 51 52  1  0  0  0
 51 53  1  0  0  0
 53 54  2  0  0  0
 16 17  1  0  0  0
 17 18  1  0  0  0
 18 19  2  0  0  0
 18 20  1  0  0  0
 20 56  1  0  0  0
 56 57  1  0  0  0
 57 58  2  0  0  0
 58 59  1  0  0  0
 59 60  2  0  0  0
 60 61  1  0  0  0
 60 62  1  0  0  0
 62 63  2  0  0  0
 20 21  1  0  0  0
 21 22  1  0  0  0
 22 23  2  0  0  0
 22 24  1  0  0  0
 24 65  1  0  0  0
 65 66  1  0  0  0
 66 67  2  0  0  0
 67 68  1  0  0  0
 68 69  2  0  0  0
 69 70  1  0  0  0
 24 25  1  0  0  0
 25 26  1  0  0  0
 26 27  2  0  0  0
 26  1  1  0  0  0
 45 37  1  0  0  0
 13  9  1  0  0  0
 54 48  1  0  0  0
 63 57  1  0  0  0
 70 66  1  0  0  0
 45 40  1  0  0  0
  2 28  1  0  0  0
 39 46  1  0  0  0
  6 29  1  0  0  0
 52 55  1  0  0  0
 17 30  1  0  0  0
 61 64  1  0  0  0
 21 31  1  0  0  0
 70 71  1  0  0  0
 25 32  1  0  0  0
M  END
> <minimizedAffinity>
-9.40543

> <CNNscore>
0.1606548429

> <CNNaffinity>
7.4569497108

> <CNN_VS>
1.1979950666

> <CNNaffinity_variance>
0.8248796463

$$$$
[H]Oc1c([H])c([H])c(C([H])([H])[C@@]2([H])C(=O)N([H])[C@@]([H])(C([H])([H])c3c([H])c([H])c(O[H])c([H])c3[H])C(=O)N3C([H])([H])C([H])([H])C([H])([H])[C@@]3([H])C(=O)N([H])[C@@]([H])(C([H])([H])c3c([H])n([H])c4c([H])c([H])c([H])c([H])c34)C(=O)N([H])[C@@]([H])(C([H])(C([H])([H])[H])C([H])([H])[H])C(=O)N([H])[C@@]([H])(C([H])([H])c3c([H])nc([H])n3[H])C(=O)N2[H])c([H])c1[H]


 71 77  0  0  0  0  0  0  0  0999 V2000
    1.8855    6.8178    9.9867 C   0  0  0  0  0  0  0  0  0  0  0  0
    1.1047    7.4344    8.9633 N   0  0  0  0  0  0  0  0  0  0  0  0
    1.5178    7.9574    7.7368 C   0  0  0  0  0  0  0  0  0  0  0  0
    0.7266    8.7613    7.1306 O   0  0  0  0  0  0  0  0  0  0  0  0
    2.8170    7.6661    7.0482 C   0  0  0  0  0  0  0  0  0  0  0  0
    3.0051    6.2941    6.7342 N   0  0  0  0  0  0  0  0  0  0  0  0
    3.7258    5.5835    5.7794 C   0  0  0  0  0  0  0  0  0  0  0  0
    4.7857    4.9389    6.2325 O   0  0  0  0  0  0  0  0  0  0  0  0
    3.5855    5.3755    4.3590 C   0  0  0  0  0  0  0  0  0  0  0  0
    2.7246    6.3520    3.5944 C   0  0  0  0  0  0  0  0  0  0  0  0
    2.3496    5.6352    2.2992 C   0  0  0  0  0  0  0  0  0  0  0  0
    3.2548    4.3978    2.3973 C   0  0  0  0  0  0  0  0  0  0  0  0
    3.0764    4.1317    3.8553 N   0  0  0  0  0  0  0  0  0  0  0  0
    2.5449    3.0018    4.4355 C   0  0  0  0  0  0  0  0  0  0  0  0
    1.4175    2.5842    3.9257 O   0  0  0  0  0  0  0  0  0  0  0  0
    3.0162    2.1518    5.5493 C   0  0  0  0  0  0  0  0  0  0  0  0
    2.0595    1.0604    5.8176 N   0  0  0  0  0  0  0  0  0  0  0  0
    1.4805    0.7797    7.0679 C   0  0  0  0  0  0  0  0  0  0  0  0
    0.3234    0.2811    7.1382 O   0  0  0  0  0  0  0  0  0  0  0  0
    2.1282    1.0236    8.3926 C   0  0  0  0  0  0  0  0  0  0  0  0
    1.1258    1.3622    9.3926 N   0  0  0  0  0  0  0  0  0  0  0  0
    1.2884    2.2917   10.4393 C   0  0  0  0  0  0  0  0  0  0  0  0
    0.6721    2.1062   11.5474 O   0  0  0  0  0  0  0  0  0  0  0  0
    2.1362    3.5165   10.3870 C   0  0  0  0  0  0  0  0  0  0  0  0
    1.4887    4.5524   11.1594 N   0  0  0  0  0  0  0  0  0  0  0  0
    1.0353    5.8001   10.6803 C   0  0  0  0  0  0  0  0  0  0  0  0
   -0.1912    6.1538   10.8187 O   0  0  0  0  0  0  0  0  0  0  0  0
    0.0603    7.5022    9.1730 H   0  0  0  0  0  0  0  0  0  0  0  0
    2.4586    5.6539    7.4223 H   0  0  0  0  0  0  0  0  0  0  0  0
    1.8219    0.4817    4.9922 H   0  0  0  0  0  0  0  0  0  0  0  0
    0.2078    0.8363    9.2836 H   0  0  0  0  0  0  0  0  0  0  0  0
    1.3326    4.3557   12.1724 H   0  0  0  0  0  0  0  0  0  0  0  0
    3.5991    7.5756   11.6617 C   0  0  0  0  0  0  0  0  0  0  0  0
    2.2512    7.9027   11.0077 C   0  0  0  0  0  0  0  0  0  0  0  0
    1.2174    8.0292   12.0736 C   0  0  0  0  0  0  0  0  0  0  0  0
    3.0980    8.6831    6.0117 C   0  0  0  0  0  0  0  0  0  0  0  0
    4.4518    9.2847    6.1172 C   0  0  0  0  0  0  0  0  0  0  0  0
    5.1055    9.9344    7.1053 C   0  0  0  0  0  0  0  0  0  0  0  0
    6.3421   10.2922    6.7138 N   0  0  0  0  0  0  0  0  0  0  0  0
    6.5092    9.8761    5.4545 C   0  0  0  0  0  0  0  0  0  0  0  0
    7.6072   10.0100    4.6265 C   0  0  0  0  0  0  0  0  0  0  0  0
    7.5713    9.5049    3.3489 C   0  0  0  0  0  0  0  0  0  0  0  0
    6.4103    8.8720    2.9444 C   0  0  0  0  0  0  0  0  0  0  0  0
    5.3112    8.7373    3.7719 C   0  0  0  0  0  0  0  0  0  0  0  0
    5.3538    9.2440    5.0465 C   0  0  0  0  0  0  0  0  0  0  0  0
    7.0582   10.8070    7.2881 H   0  0  0  0  0  0  0  0  0  0  0  0
    4.3246    1.4633    5.3209 C   0  0  0  0  0  0  0  0  0  0  0  0
    5.4568    1.8727    6.1144 C   0  0  0  0  0  0  0  0  0  0  0  0
    6.5828    2.3873    5.5114 C   0  0  0  0  0  0  0  0  0  0  0  0
    7.6949    2.7805    6.2559 C   0  0  0  0  0  0  0  0  0  0  0  0
    7.6877    2.6606    7.6157 C   0  0  0  0  0  0  0  0  0  0  0  0
    8.8072    3.0583    8.3472 O   0  0  0  0  0  0  0  0  0  0  0  0
    6.5631    2.1453    8.2292 C   0  0  0  0  0  0  0  0  0  0  0  0
    5.4740    1.7623    7.4761 C   0  0  0  0  0  0  0  0  0  0  0  0
    8.7746    2.9594    9.3439 H   0  0  0  0  0  0  0  0  0  0  0  0
    2.9251   -0.1946    8.8206 C   0  0  0  0  0  0  0  0  0  0  0  0
    2.1830   -1.4706    8.6211 C   0  0  0  0  0  0  0  0  0  0  0  0
    2.6063   -2.3383    7.6460 C   0  0  0  0  0  0  0  0  0  0  0  0
    1.9352   -3.5209    7.4434 C   0  0  0  0  0  0  0  0  0  0  0  0
    0.8297   -3.8974    8.1838 C   0  0  0  0  0  0  0  0  0  0  0  0
    0.1577   -5.1055    7.9647 O   0  0  0  0  0  0  0  0  0  0  0  0
    0.4374   -2.9955    9.1541 C   0  0  0  0  0  0  0  0  0  0  0  0
    1.0944   -1.8114    9.3703 C   0  0  0  0  0  0  0  0  0  0  0  0
   -0.6057   -5.2140    7.3293 H   0  0  0  0  0  0  0  0  0  0  0  0
    3.4903    3.1892   10.9717 C   0  0  0  0  0  0  0  0  0  0  0  0
    4.5514    4.1295   10.5526 C   0  0  0  0  0  0  0  0  0  0  0  0
    5.6596    4.5210   11.2626 C   0  0  0  0  0  0  0  0  0  0  0  0
    6.3628    5.3877   10.5331 N   0  0  0  0  0  0  0  0  0  0  0  0
    5.7301    5.5587    9.3744 C   0  0  0  0  0  0  0  0  0  0  0  0
    4.6336    4.7962    9.3880 N   0  0  0  0  0  0  0  0  0  0  0  0
    3.9654    4.7551    8.5883 H   0  0  0  0  0  0  0  0  0  0  0  0
 33 34  1  0  0  0
 34 35  1  0  0  0
 34  1  1  0  0  0
  1  2  1  0  0  0
  2  3  1  0  0  0
  3  4  2  0  0  0
  3  5  1  0  0  0
  5 36  1  0  0  0
 36 37  1  0  0  0
 37 38  2  0  0  0
 38 39  1  0  0  0
 39 40  1  0  0  0
 40 41  2  0  0  0
 41 42  1  0  0  0
 42 43  2  0  0  0
 43 44  1  0  0  0
 44 45  2  0  0  0
  5  6  1  0  0  0
  6  7  1  0  0  0
  7  8  2  0  0  0
  7  9  1  0  0  0
  9 10  1  0  0  0
 10 11  1  0  0  0
 11 12  1  0  0  0
 12 13  1  0  0  0
 13 14  1  0  0  0
 14 15  2  0  0  0
 14 16  1  0  0  0
 16 47  1  0  0  0
 47 48  1  0  0  0
 48 49  2  0  0  0
 49 50  1  0  0  0
 50 51  2  0  0  0
 51 52  1  0  0  0
 51 53  1  0  0  0
 53 54  2  0  0  0
 16 17  1  0  0  0
 17 18  1  0  0  0
 18 19  2  0  0  0
 18 20  1  0  0  0
 20 56  1  0  0  0
 56 57  1  0  0  0
 57 58  2  0  0  0
 58 59  1  0  0  0
 59 60  2  0  0  0
 60 61  1  0  0  0
 60 62  1  0  0  0
 62 63  2  0  0  0
 20 21  1  0  0  0
 21 22  1  0  0  0
 22 23  2  0  0  0
 22 24  1  0  0  0
 24 65  1  0  0  0
 65 66  1  0  0  0
 66 67  2  0  0  0
 67 68  1  0  0  0
 68 69  2  0  0  0
 69 70  1  0  0  0
 24 25  1  0  0  0
 25 26  1  0  0  0
 26 27  2  0  0  0
 26  1  1  0  0  0
 45 37  1  0  0  0
 13  9  1  0  0  0
 54 48  1  0  0  0
 63 57  1  0  0  0
 70 66  1  0  0  0
 45 40  1  0  0  0
  2 28  1  0  0  0
 39 46  1  0  0  0
  6 29  1  0  0  0
 52 55  1  0  0  0
 17 30  1  0  0  0
 61 64  1  0  0  0
 21 31  1  0  0  0
 70 71  1  0  0  0
 25 32  1  0  0  0
M  END
> <minimizedAffinity>
-7.58099

> <CNNscore>
0.1336677521

> <CNNaffinity>
6.4841370583

> <CNN_VS>
0.8667200208

> <CNNaffinity_variance>
1.1300399303

$$$$
[H]c1nc(N([H])c2c([H])c(OC([H])([H])[H])c([H])c(OC([H])([H])[H])c2[H])nc(Oc2c([H])c([H])c(N([H])C(=O)N([H])c3c([H])c(C(C([H])([H])[H])(C([H])([H])[H])C([H])([H])[H])nn3-c3c([H])c([H])c(C([H])([H])[H])c([H])c3[H])c3c([H])c([H])c([H])c([H])c23)c1[H]


 51 56  0  0  0  0  0  0  0  0999 V2000
    3.8742    2.0407   18.1711 C   0  0  0  0  0  0  0  0  0  0  0  0
    3.4594    0.8176   17.6220 C   0  0  0  0  0  0  0  0  0  0  0  0
    3.1853    0.7508   16.2783 C   0  0  0  0  0  0  0  0  0  0  0  0
    3.2918    1.8308   15.4083 C   0  0  0  0  0  0  0  0  0  0  0  0
    3.7058    3.0181   15.9797 C   0  0  0  0  0  0  0  0  0  0  0  0
    3.8639    4.1539   15.1668 C   0  0  0  0  0  0  0  0  0  0  0  0
    4.2874    5.3451   15.6790 C   0  0  0  0  0  0  0  0  0  0  0  0
    4.5763    5.4642   17.0226 C   0  0  0  0  0  0  0  0  0  0  0  0
    4.4285    4.3619   17.8404 C   0  0  0  0  0  0  0  0  0  0  0  0
    3.9924    3.1453   17.3057 C   0  0  0  0  0  0  0  0  0  0  0  0
    2.8480    1.7521   14.0657 N   0  0  0  0  0  0  0  0  0  0  0  0
    1.5817    2.0186   13.5535 C   0  0  0  0  0  0  0  0  0  0  0  0
    0.7177    2.3346   14.4855 O   0  0  0  0  0  0  0  0  0  0  0  0
    1.0675    2.0322   12.2786 N   0  0  0  0  0  0  0  0  0  0  0  0
    3.6080    1.5007   13.3712 H   0  0  0  0  0  0  0  0  0  0  0  0
   -0.0224    2.3416   12.2858 H   0  0  0  0  0  0  0  0  0  0  0  0
    1.4414    1.6597   10.9815 C   0  0  0  0  0  0  0  0  0  0  0  0
    0.6796    0.6517   10.3015 C   0  0  0  0  0  0  0  0  0  0  0  0
    1.3010    0.4417    9.1009 C   0  0  0  0  0  0  0  0  0  0  0  0
    2.3343    1.2512    9.0764 N   0  0  0  0  0  0  0  0  0  0  0  0
    2.4467    1.9975   10.1996 N   0  0  0  0  0  0  0  0  0  0  0  0
    3.5663    2.8787   10.3844 C   0  0  0  0  0  0  0  0  0  0  0  0
    4.6953    2.7860    9.6073 C   0  0  0  0  0  0  0  0  0  0  0  0
    5.7529    3.6906    9.7187 C   0  0  0  0  0  0  0  0  0  0  0  0
    5.6957    4.7233   10.6283 C   0  0  0  0  0  0  0  0  0  0  0  0
    6.8250    5.7008   10.7318 C   0  0  0  0  0  0  0  0  0  0  0  0
    4.5631    4.8149   11.4103 C   0  0  0  0  0  0  0  0  0  0  0  0
    3.5061    3.9148   11.3023 C   0  0  0  0  0  0  0  0  0  0  0  0
    0.8511   -0.5208    8.0218 C   0  0  0  0  0  0  0  0  0  0  0  0
    2.0687   -1.1181    7.3968 C   0  0  0  0  0  0  0  0  0  0  0  0
   -0.0541   -1.5793    8.6519 C   0  0  0  0  0  0  0  0  0  0  0  0
    0.0527    0.2773    7.0287 C   0  0  0  0  0  0  0  0  0  0  0  0
    4.1440    2.1991   19.4247 O   0  0  0  0  0  0  0  0  0  0  0  0
    4.4762    3.8047   22.5780 C   0  0  0  0  0  0  0  0  0  0  0  0
    4.1942    2.8051   23.4109 N   0  0  0  0  0  0  0  0  0  0  0  0
    3.8894    1.5782   22.9465 C   0  0  0  0  0  0  0  0  0  0  0  0
    3.8624    1.3380   21.6189 C   0  0  0  0  0  0  0  0  0  0  0  0
    4.1570    2.3755   20.6918 C   0  0  0  0  0  0  0  0  0  0  0  0
    4.4573    3.5871   21.2636 N   0  0  0  0  0  0  0  0  0  0  0  0
    4.7636    5.1000   23.0655 N   0  0  0  0  0  0  0  0  0  0  0  0
    4.4265    5.4089   23.9861 H   0  0  0  0  0  0  0  0  0  0  0  0
    5.6183    7.7034   20.5904 C   0  0  0  0  0  0  0  0  0  0  0  0
    4.8912    6.8744   21.4159 C   0  0  0  0  0  0  0  0  0  0  0  0
    5.5300    5.9708   22.2447 C   0  0  0  0  0  0  0  0  0  0  0  0
    6.8963    5.9107   22.2357 C   0  0  0  0  0  0  0  0  0  0  0  0
    7.6748    6.7315   21.4145 C   0  0  0  0  0  0  0  0  0  0  0  0
    7.0241    7.6162   20.6029 C   0  0  0  0  0  0  0  0  0  0  0  0
    4.8369    9.9492   20.0950 C   0  0  0  0  0  0  0  0  0  0  0  0
    5.0164    8.6128   19.7546 O   0  0  0  0  0  0  0  0  0  0  0  0
    9.0505    6.6389   21.4315 O   0  0  0  0  0  0  0  0  0  0  0  0
    9.8226    6.7837   20.2770 C   0  0  0  0  0  0  0  0  0  0  0  0
 48 49  1  0  0  0
 49 42  1  0  0  0
 42 43  2  0  0  0
 43 44  1  0  0  0
 44 40  1  0  0  0
 40 34  1  0  0  0
 34 35  2  0  0  0
 35 36  1  0  0  0
 36 37  2  0  0  0
 37 38  1  0  0  0
 38 33  1  0  0  0
 33  1  1  0  0  0
  1  2  2  0  0  0
  2  3  1  0  0  0
  3  4  2  0  0  0
  4 11  1  0  0  0
 11 12  1  0  0  0
 12 13  2  0  0  0
 12 14  1  0  0  0
 14 17  1  0  0  0
 17 18  2  0  0  0
 18 19  1  0  0  0
 19 20  2  0  0  0
 20 21  1  0  0  0
 21 22  1  0  0  0
 22 23  2  0  0  0
 23 24  1  0  0  0
 24 25  2  0  0  0
 25 26  1  0  0  0
 25 27  1  0  0  0
 27 28  2  0  0  0
 19 29  1  0  0  0
 29 30  1  0  0  0
 29 31  1  0  0  0
 29 32  1  0  0  0
  4  5  1  0  0  0
  5  6  2  0  0  0
  6  7  1  0  0  0
  7  8  2  0  0  0
  8  9  1  0  0  0
  9 10  2  0  0  0
 38 39  2  0  0  0
 44 45  2  0  0  0
 45 46  1  0  0  0
 46 50  1  0  0  0
 50 51  1  0  0  0
 46 47  2  0  0  0
 47 42  1  0  0  0
 39 34  1  0  0  0
 10  1  1  0  0  0
 21 17  1  0  0  0
 28 22  1  0  0  0
 10  5  1  0  0  0
 40 41  1  0  0  0
 11 15  1  0  0  0
 14 16  1  0  0  0
M  END
> <minimizedAffinity>
-9.37082

> <CNNscore>
0.2069175094

> <CNNaffinity>
7.4913873672

> <CNN_VS>
1.5500992537

> <CNNaffinity_variance>
0.3090743423

$$$$
[H]c1nc(N([H])c2c([H])c(OC([H])([H])[H])c([H])c(OC([H])([H])[H])c2[H])nc(Oc2c([H])c([H])c(N([H])C(=O)N([H])c3c([H])c(C(C([H])([H])[H])(C([H])([H])[H])C([H])([H])[H])nn3-c3c([H])c([H])c(C([H])([H])[H])c([H])c3[H])c3c([H])c([H])c([H])c([H])c23)c1[H]


 51 56  0  0  0  0  0  0  0  0999 V2000
    4.6944    3.8033   18.9918 C   0  0  0  0  0  0  0  0  0  0  0  0
    4.8779    3.4827   20.3457 C   0  0  0  0  0  0  0  0  0  0  0  0
    5.4614    4.4083   21.1751 C   0  0  0  0  0  0  0  0  0  0  0  0
    5.8911    5.6640   20.7587 C   0  0  0  0  0  0  0  0  0  0  0  0
    5.6925    5.9491   19.4220 C   0  0  0  0  0  0  0  0  0  0  0  0
    6.0753    7.2062   18.9229 C   0  0  0  0  0  0  0  0  0  0  0  0
    5.8844    7.5435   17.6151 C   0  0  0  0  0  0  0  0  0  0  0  0
    5.3020    6.6490   16.7413 C   0  0  0  0  0  0  0  0  0  0  0  0
    4.9178    5.4083   17.2090 C   0  0  0  0  0  0  0  0  0  0  0  0
    5.1190    5.0716   18.5515 C   0  0  0  0  0  0  0  0  0  0  0  0
    6.6278    6.5202   21.6132 N   0  0  0  0  0  0  0  0  0  0  0  0
    7.6642    6.1951   22.4833 C   0  0  0  0  0  0  0  0  0  0  0  0
    7.9176    4.9105   22.5072 O   0  0  0  0  0  0  0  0  0  0  0  0
    8.4757    6.9461   23.3003 N   0  0  0  0  0  0  0  0  0  0  0  0
    6.3708    7.5447   21.5279 H   0  0  0  0  0  0  0  0  0  0  0  0
    9.2343    6.2912   23.8287 H   0  0  0  0  0  0  0  0  0  0  0  0
    8.5743    8.2587   23.7784 C   0  0  0  0  0  0  0  0  0  0  0  0
    9.2586    8.4972   25.0168 C   0  0  0  0  0  0  0  0  0  0  0  0
    9.1426    9.8364   25.2708 C   0  0  0  0  0  0  0  0  0  0  0  0
    8.4527   10.3403   24.2739 N   0  0  0  0  0  0  0  0  0  0  0  0
    8.0931    9.4111   23.3583 N   0  0  0  0  0  0  0  0  0  0  0  0
    7.2614    9.7665   22.2420 C   0  0  0  0  0  0  0  0  0  0  0  0
    5.9327    9.4213   22.1913 C   0  0  0  0  0  0  0  0  0  0  0  0
    5.0943    9.8351   21.1546 C   0  0  0  0  0  0  0  0  0  0  0  0
    5.5828   10.6171   20.1312 C   0  0  0  0  0  0  0  0  0  0  0  0
    4.6755   11.0726   19.0308 C   0  0  0  0  0  0  0  0  0  0  0  0
    6.9175   10.9618   20.1808 C   0  0  0  0  0  0  0  0  0  0  0  0
    7.7571   10.5511   21.2132 C   0  0  0  0  0  0  0  0  0  0  0  0
    9.7255   10.5709   26.4600 C   0  0  0  0  0  0  0  0  0  0  0  0
   10.8399   11.4356   25.9697 C   0  0  0  0  0  0  0  0  0  0  0  0
    8.6163   11.3815   27.1304 C   0  0  0  0  0  0  0  0  0  0  0  0
   10.2171    9.5253   27.4221 C   0  0  0  0  0  0  0  0  0  0  0  0
    4.1640    2.9920   18.1374 O   0  0  0  0  0  0  0  0  0  0  0  0
    2.2912    1.3437   15.6063 C   0  0  0  0  0  0  0  0  0  0  0  0
    2.2353    0.1040   16.0884 N   0  0  0  0  0  0  0  0  0  0  0  0
    2.8152   -0.2122   17.2621 C   0  0  0  0  0  0  0  0  0  0  0  0
    3.4697    0.7278   17.9754 C   0  0  0  0  0  0  0  0  0  0  0  0
    3.5548    2.0654   17.4996 C   0  0  0  0  0  0  0  0  0  0  0  0
    2.9306    2.2868   16.2969 N   0  0  0  0  0  0  0  0  0  0  0  0
    1.7106    1.6669   14.3586 N   0  0  0  0  0  0  0  0  0  0  0  0
    1.0813    1.0109   13.8787 H   0  0  0  0  0  0  0  0  0  0  0  0
    3.6300    4.3914   12.7688 C   0  0  0  0  0  0  0  0  0  0  0  0
    3.3005    3.1659   13.3043 C   0  0  0  0  0  0  0  0  0  0  0  0
    2.0243    2.9258   13.7789 C   0  0  0  0  0  0  0  0  0  0  0  0
    1.0903    3.9224   13.7090 C   0  0  0  0  0  0  0  0  0  0  0  0
    1.3796    5.1813   13.1745 C   0  0  0  0  0  0  0  0  0  0  0  0
    2.6462    5.3978   12.7124 C   0  0  0  0  0  0  0  0  0  0  0  0
    5.3423    4.2056   11.0561 C   0  0  0  0  0  0  0  0  0  0  0  0
    4.8879    4.6641   12.2879 O   0  0  0  0  0  0  0  0  0  0  0  0
    0.4113    6.1618   13.1243 O   0  0  0  0  0  0  0  0  0  0  0  0
   -0.0563    6.8084   14.2703 C   0  0  0  0  0  0  0  0  0  0  0  0
 48 49  1  0  0  0
 49 42  1  0  0  0
 42 43  2  0  0  0
 43 44  1  0  0  0
 44 40  1  0  0  0
 40 34  1  0  0  0
 34 35  2  0  0  0
 35 36  1  0  0  0
 36 37  2  0  0  0
 37 38  1  0  0  0
 38 33  1  0  0  0
 33  1  1  0  0  0
  1  2  2  0  0  0
  2  3  1  0  0  0
  3  4  2  0  0  0
  4 11  1  0  0  0
 11 12  1  0  0  0
 12 13  2  0  0  0
 12 14  1  0  0  0
 14 17  1  0  0  0
 17 18  2  0  0  0
 18 19  1  0  0  0
 19 20  2  0  0  0
 20 21  1  0  0  0
 21 22  1  0  0  0
 22 23  2  0  0  0
 23 24  1  0  0  0
 24 25  2  0  0  0
 25 26  1  0  0  0
 25 27  1  0  0  0
 27 28  2  0  0  0
 19 29  1  0  0  0
 29 30  1  0  0  0
 29 31  1  0  0  0
 29 32  1  0  0  0
  4  5  1  0  0  0
  5  6  2  0  0  0
  6  7  1  0  0  0
  7  8  2  0  0  0
  8  9  1  0  0  0
  9 10  2  0  0  0
 38 39  2  0  0  0
 44 45  2  0  0  0
 45 46  1  0  0  0
 46 50  1  0  0  0
 50 51  1  0  0  0
 46 47  2  0  0  0
 47 42  1  0  0  0
 39 34  1  0  0  0
 10  1  1  0  0  0
 21 17  1  0  0  0
 28 22  1  0  0  0
 10  5  1  0  0  0
 40 41  1  0  0  0
 11 15  1  0  0  0
 14 16  1  0  0  0
M  END
> <minimizedAffinity>
-8.84313

> <CNNscore>
0.1408381760

> <CNNaffinity>
7.0244102478

> <CNN_VS>
0.9893051386

> <CNNaffinity_variance>
0.2721199989

$$$$
[H]c1nc(N([H])c2c([H])c(OC([H])([H])[H])c([H])c(OC([H])([H])[H])c2[H])nc(Oc2c([H])c([H])c(N([H])C(=O)N([H])c3c([H])c(C(C([H])([H])[H])(C([H])([H])[H])C([H])([H])[H])nn3-c3c([H])c([H])c(C([H])([H])[H])c([H])c3[H])c3c([H])c([H])c([H])c([H])c23)c1[H]


 51 56  0  0  0  0  0  0  0  0999 V2000
    3.8012    2.1083   18.4891 C   0  0  0  0  0  0  0  0  0  0  0  0
    3.5097    0.9222   17.7977 C   0  0  0  0  0  0  0  0  0  0  0  0
    3.4554    0.9484   16.4260 C   0  0  0  0  0  0  0  0  0  0  0  0
    3.6728    2.0894   15.6607 C   0  0  0  0  0  0  0  0  0  0  0  0
    3.9608    3.2380   16.3716 C   0  0  0  0  0  0  0  0  0  0  0  0
    4.2185    4.4313   15.6747 C   0  0  0  0  0  0  0  0  0  0  0  0
    4.5253    5.5882   16.3289 C   0  0  0  0  0  0  0  0  0  0  0  0
    4.5929    5.6144   17.7065 C   0  0  0  0  0  0  0  0  0  0  0  0
    4.3437    4.4544   18.4121 C   0  0  0  0  0  0  0  0  0  0  0  0
    4.0287    3.2736   17.7320 C   0  0  0  0  0  0  0  0  0  0  0  0
    3.4511    2.1014   14.2620 N   0  0  0  0  0  0  0  0  0  0  0  0
    2.2665    2.3454   13.5734 C   0  0  0  0  0  0  0  0  0  0  0  0
    1.2486    2.5378   14.3746 O   0  0  0  0  0  0  0  0  0  0  0  0
    1.9589    2.4399   12.2368 N   0  0  0  0  0  0  0  0  0  0  0  0
    4.3250    1.9480   13.6826 H   0  0  0  0  0  0  0  0  0  0  0  0
    0.8641    2.6920   12.0910 H   0  0  0  0  0  0  0  0  0  0  0  0
    2.5547    2.1971   10.9930 C   0  0  0  0  0  0  0  0  0  0  0  0
    3.0054    0.8699   10.6859 C   0  0  0  0  0  0  0  0  0  0  0  0
    3.5987    0.9382    9.4552 C   0  0  0  0  0  0  0  0  0  0  0  0
    3.5067    2.1908    9.0728 N   0  0  0  0  0  0  0  0  0  0  0  0
    2.8833    2.9755    9.9820 N   0  0  0  0  0  0  0  0  0  0  0  0
    2.7674    4.3918    9.7700 C   0  0  0  0  0  0  0  0  0  0  0  0
    3.8669    5.2153    9.7695 C   0  0  0  0  0  0  0  0  0  0  0  0
    3.7773    6.5778    9.4787 C   0  0  0  0  0  0  0  0  0  0  0  0
    2.5606    7.1491    9.1776 C   0  0  0  0  0  0  0  0  0  0  0  0
    2.4725    8.6072    8.8496 C   0  0  0  0  0  0  0  0  0  0  0  0
    1.4562    6.3227    9.1803 C   0  0  0  0  0  0  0  0  0  0  0  0
    1.5414    4.9633    9.4698 C   0  0  0  0  0  0  0  0  0  0  0  0
    4.2100   -0.2208    8.6958 C   0  0  0  0  0  0  0  0  0  0  0  0
    4.0093    0.0242    7.2365 C   0  0  0  0  0  0  0  0  0  0  0  0
    5.6893   -0.3271    9.0665 C   0  0  0  0  0  0  0  0  0  0  0  0
    3.5007   -1.4655    9.1519 C   0  0  0  0  0  0  0  0  0  0  0  0
    3.8634    2.1799   19.7777 O   0  0  0  0  0  0  0  0  0  0  0  0
    4.6361    4.0123   22.7232 C   0  0  0  0  0  0  0  0  0  0  0  0
    4.5808    3.0559   23.6477 N   0  0  0  0  0  0  0  0  0  0  0  0
    4.2879    1.7840   23.3155 C   0  0  0  0  0  0  0  0  0  0  0  0
    4.0416    1.4535   22.0306 C   0  0  0  0  0  0  0  0  0  0  0  0
    4.0898    2.4420   21.0092 C   0  0  0  0  0  0  0  0  0  0  0  0
    4.3986    3.7056   21.4486 N   0  0  0  0  0  0  0  0  0  0  0  0
    4.9112    5.3528   23.0776 N   0  0  0  0  0  0  0  0  0  0  0  0
    4.5293    5.7646   23.9385 H   0  0  0  0  0  0  0  0  0  0  0  0
    7.9046    6.6622   21.3573 C   0  0  0  0  0  0  0  0  0  0  0  0
    7.0936    5.9032   22.1719 C   0  0  0  0  0  0  0  0  0  0  0  0
    5.7289    6.1225   22.2068 C   0  0  0  0  0  0  0  0  0  0  0  0
    5.1927    7.1039   21.4197 C   0  0  0  0  0  0  0  0  0  0  0  0
    5.9767    7.8988   20.5785 C   0  0  0  0  0  0  0  0  0  0  0  0
    7.3222    7.6665   20.5598 C   0  0  0  0  0  0  0  0  0  0  0  0
   10.1001    6.6388   22.3963 C   0  0  0  0  0  0  0  0  0  0  0  0
    9.2640    6.4712   21.2977 O   0  0  0  0  0  0  0  0  0  0  0  0
    5.3991    8.8811   19.8020 O   0  0  0  0  0  0  0  0  0  0  0  0
    4.0405    8.8747   19.4791 C   0  0  0  0  0  0  0  0  0  0  0  0
 48 49  1  0  0  0
 49 42  1  0  0  0
 42 43  2  0  0  0
 43 44  1  0  0  0
 44 40  1  0  0  0
 40 34  1  0  0  0
 34 35  2  0  0  0
 35 36  1  0  0  0
 36 37  2  0  0  0
 37 38  1  0  0  0
 38 33  1  0  0  0
 33  1  1  0  0  0
  1  2  2  0  0  0
  2  3  1  0  0  0
  3  4  2  0  0  0
  4 11  1  0  0  0
 11 12  1  0  0  0
 12 13  2  0  0  0
 12 14  1  0  0  0
 14 17  1  0  0  0
 17 18  2  0  0  0
 18 19  1  0  0  0
 19 20  2  0  0  0
 20 21  1  0  0  0
 21 22  1  0  0  0
 22 23  2  0  0  0
 23 24  1  0  0  0
 24 25  2  0  0  0
 25 26  1  0  0  0
 25 27  1  0  0  0
 27 28  2  0  0  0
 19 29  1  0  0  0
 29 30  1  0  0  0
 29 31  1  0  0  0
 29 32  1  0  0  0
  4  5  1  0  0  0
  5  6  2  0  0  0
  6  7  1  0  0  0
  7  8  2  0  0  0
  8  9  1  0  0  0
  9 10  2  0  0  0
 38 39  2  0  0  0
 44 45  2  0  0  0
 45 46  1  0  0  0
 46 50  1  0  0  0
 50 51  1  0  0  0
 46 47  2  0  0  0
 47 42  1  0  0  0
 39 34  1  0  0  0
 10  1  1  0  0  0
 21 17  1  0  0  0
 28 22  1  0  0  0
 10  5  1  0  0  0
 40 41  1  0  0  0
 11 15  1  0  0  0
 14 16  1  0  0  0
M  END
> <minimizedAffinity>
-9.04565

> <CNNscore>
0.1178461760

> <CNNaffinity>
7.2771887779

> <CNN_VS>
0.8575888872

> <CNNaffinity_variance>
0.2658566236

$$$$
[H]c1nc(N([H])c2c([H])c(OC([H])([H])[H])c([H])c(OC([H])([H])[H])c2[H])nc(Oc2c([H])c([H])c(N([H])C(=O)N([H])c3c([H])c(C(C([H])([H])[H])(C([H])([H])[H])C([H])([H])[H])nn3-c3c([H])c([H])c(C([H])([H])[H])c([H])c3[H])c3c([H])c([H])c([H])c([H])c23)c1[H]


 51 56  0  0  0  0  0  0  0  0999 V2000
    4.1576    1.9956   18.0353 C   0  0  0  0  0  0  0  0  0  0  0  0
    3.6863    0.8209   17.4289 C   0  0  0  0  0  0  0  0  0  0  0  0
    3.3185    0.8567   16.1066 C   0  0  0  0  0  0  0  0  0  0  0  0
    3.3815    1.9970   15.3124 C   0  0  0  0  0  0  0  0  0  0  0  0
    3.8530    3.1342   15.9385 C   0  0  0  0  0  0  0  0  0  0  0  0
    3.9723    4.3253   15.2017 C   0  0  0  0  0  0  0  0  0  0  0  0
    4.4492    5.4707   15.7683 C   0  0  0  0  0  0  0  0  0  0  0  0
    4.8325    5.4869   17.0934 C   0  0  0  0  0  0  0  0  0  0  0  0
    4.7243    4.3288   17.8368 C   0  0  0  0  0  0  0  0  0  0  0  0
    4.2329    3.1598   17.2467 C   0  0  0  0  0  0  0  0  0  0  0  0
    2.8444    2.0226   14.0022 N   0  0  0  0  0  0  0  0  0  0  0  0
    1.5212    2.2032   13.6104 C   0  0  0  0  0  0  0  0  0  0  0  0
    0.7050    2.3133   14.6286 O   0  0  0  0  0  0  0  0  0  0  0  0
    0.9101    2.3044   12.3831 N   0  0  0  0  0  0  0  0  0  0  0  0
    3.5694    1.9378   13.2340 H   0  0  0  0  0  0  0  0  0  0  0  0
   -0.2018    2.4880   12.4994 H   0  0  0  0  0  0  0  0  0  0  0  0
    1.2175    2.1257   11.0287 C   0  0  0  0  0  0  0  0  0  0  0  0
    2.3668    1.3429   10.6747 C   0  0  0  0  0  0  0  0  0  0  0  0
    2.4641    1.3938    9.3111 C   0  0  0  0  0  0  0  0  0  0  0  0
    1.4644    2.1388    8.8997 N   0  0  0  0  0  0  0  0  0  0  0  0
    0.6956    2.5973    9.9146 N   0  0  0  0  0  0  0  0  0  0  0  0
   -0.3945    3.4975    9.6585 C   0  0  0  0  0  0  0  0  0  0  0  0
   -1.6249    3.0449    9.2482 C   0  0  0  0  0  0  0  0  0  0  0  0
   -2.7155    3.9002    9.0802 C   0  0  0  0  0  0  0  0  0  0  0  0
   -2.5889    5.2497    9.3255 C   0  0  0  0  0  0  0  0  0  0  0  0
   -3.7660    6.1600    9.1605 C   0  0  0  0  0  0  0  0  0  0  0  0
   -1.3528    5.7046    9.7352 C   0  0  0  0  0  0  0  0  0  0  0  0
   -0.2626    4.8548    9.9039 C   0  0  0  0  0  0  0  0  0  0  0  0
    3.5117    0.6990    8.4666 C   0  0  0  0  0  0  0  0  0  0  0  0
    2.8178    0.0271    7.3278 C   0  0  0  0  0  0  0  0  0  0  0  0
    4.5299    1.7362    7.9928 C   0  0  0  0  0  0  0  0  0  0  0  0
    4.2039   -0.2944    9.3580 C   0  0  0  0  0  0  0  0  0  0  0  0
    4.5163    2.0579   19.2750 O   0  0  0  0  0  0  0  0  0  0  0  0
    5.2578    3.8440   22.2568 C   0  0  0  0  0  0  0  0  0  0  0  0
    6.0081    2.9600   22.9109 N   0  0  0  0  0  0  0  0  0  0  0  0
    6.2856    1.7545   22.3783 C   0  0  0  0  0  0  0  0  0  0  0  0
    5.8034    1.4173   21.1640 C   0  0  0  0  0  0  0  0  0  0  0  0
    4.9977    2.3299   20.4287 C   0  0  0  0  0  0  0  0  0  0  0  0
    4.7743    3.5310   21.0553 N   0  0  0  0  0  0  0  0  0  0  0  0
    4.9399    5.0960   22.8310 N   0  0  0  0  0  0  0  0  0  0  0  0
    4.3319    5.1635   23.6570 H   0  0  0  0  0  0  0  0  0  0  0  0
    7.3108    7.7902   21.9625 C   0  0  0  0  0  0  0  0  0  0  0  0
    6.7816    6.6422   22.5096 C   0  0  0  0  0  0  0  0  0  0  0  0
    5.4808    6.2654   22.2316 C   0  0  0  0  0  0  0  0  0  0  0  0
    4.7242    7.0480   21.4037 C   0  0  0  0  0  0  0  0  0  0  0  0
    5.2188    8.2212   20.8265 C   0  0  0  0  0  0  0  0  0  0  0  0
    6.5056    8.5757   21.1149 C   0  0  0  0  0  0  0  0  0  0  0  0
    9.5937    8.2070   21.2449 C   0  0  0  0  0  0  0  0  0  0  0  0
    8.5992    8.1941   22.2170 O   0  0  0  0  0  0  0  0  0  0  0  0
    4.4236    8.9856   19.9990 O   0  0  0  0  0  0  0  0  0  0  0  0
    4.5883    9.0024   18.6124 C   0  0  0  0  0  0  0  0  0  0  0  0
 48 49  1  0  0  0
 49 42  1  0  0  0
 42 43  2  0  0  0
 43 44  1  0  0  0
 44 40  1  0  0  0
 40 34  1  0  0  0
 34 35  2  0  0  0
 35 36  1  0  0  0
 36 37  2  0  0  0
 37 38  1  0  0  0
 38 33  1  0  0  0
 33  1  1  0  0  0
  1  2  2  0  0  0
  2  3  1  0  0  0
  3  4  2  0  0  0
  4 11  1  0  0  0
 11 12  1  0  0  0
 12 13  2  0  0  0
 12 14  1  0  0  0
 14 17  1  0  0  0
 17 18  2  0  0  0
 18 19  1  0  0  0
 19 20  2  0  0  0
 20 21  1  0  0  0
 21 22  1  0  0  0
 22 23  2  0  0  0
 23 24  1  0  0  0
 24 25  2  0  0  0
 25 26  1  0  0  0
 25 27  1  0  0  0
 27 28  2  0  0  0
 19 29  1  0  0  0
 29 30  1  0  0  0
 29 31  1  0  0  0
 29 32  1  0  0  0
  4  5  1  0  0  0
  5  6  2  0  0  0
  6  7  1  0  0  0
  7  8  2  0  0  0
  8  9  1  0  0  0
  9 10  2  0  0  0
 38 39  2  0  0  0
 44 45  2  0  0  0
 45 46  1  0  0  0
 46 50  1  0  0  0
 50 51  1  0  0  0
 46 47  2  0  0  0
 47 42  1  0  0  0
 39 34  1  0  0  0
 10  1  1  0  0  0
 21 17  1  0  0  0
 28 22  1  0  0  0
 10  5  1  0  0  0
 40 41  1  0  0  0
 11 15  1  0  0  0
 14 16  1  0  0  0
M  END
> <minimizedAffinity>
-8.83601

> <CNNscore>
0.1031580493

> <CNNaffinity>
7.0305795670

> <CNN_VS>
0.7252608538

> <CNNaffinity_variance>
0.4154234827

$$$$
[H]c1nc(N([H])c2c([H])c(OC([H])([H])[H])c([H])c(OC([H])([H])[H])c2[H])nc(Oc2c([H])c([H])c(N([H])C(=O)N([H])c3c([H])c(C(C([H])([H])[H])(C([H])([H])[H])C([H])([H])[H])nn3-c3c([H])c([H])c(C([H])([H])[H])c([H])c3[H])c3c([H])c([H])c([H])c([H])c23)c1[H]


 51 56  0  0  0  0  0  0  0  0999 V2000
    3.3218    3.3045   14.3639 C   0  0  0  0  0  0  0  0  0  0  0  0
    3.7292    4.6462   14.4240 C   0  0  0  0  0  0  0  0  0  0  0  0
    4.1507    5.1599   15.6255 C   0  0  0  0  0  0  0  0  0  0  0  0
    4.2025    4.4297   16.8083 C   0  0  0  0  0  0  0  0  0  0  0  0
    3.7986    3.1123   16.7137 C   0  0  0  0  0  0  0  0  0  0  0  0
    3.8432    2.2959   17.8571 C   0  0  0  0  0  0  0  0  0  0  0  0
    3.4724    0.9839   17.8126 C   0  0  0  0  0  0  0  0  0  0  0  0
    3.0418    0.4200   16.6296 C   0  0  0  0  0  0  0  0  0  0  0  0
    2.9899    1.2026   15.4935 C   0  0  0  0  0  0  0  0  0  0  0  0
    3.3710    2.5471   15.5500 C   0  0  0  0  0  0  0  0  0  0  0  0
    4.4932    5.0442   18.0507 N   0  0  0  0  0  0  0  0  0  0  0  0
    3.8910    6.1571   18.6301 C   0  0  0  0  0  0  0  0  0  0  0  0
    2.9748    6.6912   17.8619 O   0  0  0  0  0  0  0  0  0  0  0  0
    4.0527    6.7898   19.8399 N   0  0  0  0  0  0  0  0  0  0  0  0
    5.2382    4.5471   18.6171 H   0  0  0  0  0  0  0  0  0  0  0  0
    3.3293    7.6557   19.9428 H   0  0  0  0  0  0  0  0  0  0  0  0
    4.9233    6.7722   20.9366 C   0  0  0  0  0  0  0  0  0  0  0  0
    5.6519    7.9641   21.2642 C   0  0  0  0  0  0  0  0  0  0  0  0
    6.4632    7.6437   22.3181 C   0  0  0  0  0  0  0  0  0  0  0  0
    6.2340    6.3791   22.5861 N   0  0  0  0  0  0  0  0  0  0  0  0
    5.3107    5.8251   21.7666 N   0  0  0  0  0  0  0  0  0  0  0  0
    4.9950    4.4264   21.8587 C   0  0  0  0  0  0  0  0  0  0  0  0
    3.9989    3.9627   22.6832 C   0  0  0  0  0  0  0  0  0  0  0  0
    3.6248    2.6181   22.7164 C   0  0  0  0  0  0  0  0  0  0  0  0
    4.2549    1.6977   21.9083 C   0  0  0  0  0  0  0  0  0  0  0  0
    3.8383    0.2599   21.9352 C   0  0  0  0  0  0  0  0  0  0  0  0
    5.2568    2.1629   21.0821 C   0  0  0  0  0  0  0  0  0  0  0  0
    5.6328    3.5032   21.0459 C   0  0  0  0  0  0  0  0  0  0  0  0
    7.4097    8.5863   23.0318 C   0  0  0  0  0  0  0  0  0  0  0  0
    7.0013    9.9857   22.7082 C   0  0  0  0  0  0  0  0  0  0  0  0
    7.3524    8.2992   24.5322 C   0  0  0  0  0  0  0  0  0  0  0  0
    8.7931    8.2817   22.5278 C   0  0  0  0  0  0  0  0  0  0  0  0
    2.9016    2.7398   13.2805 O   0  0  0  0  0  0  0  0  0  0  0  0
    0.6211    2.5095   10.5643 C   0  0  0  0  0  0  0  0  0  0  0  0
    1.3068    1.7515    9.7112 N   0  0  0  0  0  0  0  0  0  0  0  0
    2.5379    1.2995   10.0176 C   0  0  0  0  0  0  0  0  0  0  0  0
    3.1040    1.6101   11.2024 C   0  0  0  0  0  0  0  0  0  0  0  0
    2.4086    2.4168   12.1450 C   0  0  0  0  0  0  0  0  0  0  0  0
    1.1617    2.8252   11.7405 N   0  0  0  0  0  0  0  0  0  0  0  0
   -0.6572    3.0106   10.2282 N   0  0  0  0  0  0  0  0  0  0  0  0
   -1.1391    3.6878   10.8331 H   0  0  0  0  0  0  0  0  0  0  0  0
   -2.3595    0.7984    7.8111 C   0  0  0  0  0  0  0  0  0  0  0  0
   -1.7958    1.2733    8.9748 C   0  0  0  0  0  0  0  0  0  0  0  0
   -1.2649    2.5487    9.0296 C   0  0  0  0  0  0  0  0  0  0  0  0
   -1.3073    3.3354    7.9118 C   0  0  0  0  0  0  0  0  0  0  0  0
   -1.8687    2.8956    6.7095 C   0  0  0  0  0  0  0  0  0  0  0  0
   -2.3865    1.6324    6.6764 C   0  0  0  0  0  0  0  0  0  0  0  0
   -4.0140   -0.8628    8.4462 C   0  0  0  0  0  0  0  0  0  0  0  0
   -2.8964   -0.4632    7.7214 O   0  0  0  0  0  0  0  0  0  0  0  0
   -1.8899    3.7177    5.6026 O   0  0  0  0  0  0  0  0  0  0  0  0
   -3.0683    4.0116    4.9136 C   0  0  0  0  0  0  0  0  0  0  0  0
 48 49  1  0  0  0
 49 42  1  0  0  0
 42 43  2  0  0  0
 43 44  1  0  0  0
 44 40  1  0  0  0
 40 34  1  0  0  0
 34 35  2  0  0  0
 35 36  1  0  0  0
 36 37  2  0  0  0
 37 38  1  0  0  0
 38 33  1  0  0  0
 33  1  1  0  0  0
  1  2  2  0  0  0
  2  3  1  0  0  0
  3  4  2  0  0  0
  4 11  1  0  0  0
 11 12  1  0  0  0
 12 13  2  0  0  0
 12 14  1  0  0  0
 14 17  1  0  0  0
 17 18  2  0  0  0
 18 19  1  0  0  0
 19 20  2  0  0  0
 20 21  1  0  0  0
 21 22  1  0  0  0
 22 23  2  0  0  0
 23 24  1  0  0  0
 24 25  2  0  0  0
 25 26  1  0  0  0
 25 27  1  0  0  0
 27 28  2  0  0  0
 19 29  1  0  0  0
 29 30  1  0  0  0
 29 31  1  0  0  0
 29 32  1  0  0  0
  4  5  1  0  0  0
  5  6  2  0  0  0
  6  7  1  0  0  0
  7  8  2  0  0  0
  8  9  1  0  0  0
  9 10  2  0  0  0
 38 39  2  0  0  0
 44 45  2  0  0  0
 45 46  1  0  0  0
 46 50  1  0  0  0
 50 51  1  0  0  0
 46 47  2  0  0  0
 47 42  1  0  0  0
 39 34  1  0  0  0
 10  1  1  0  0  0
 21 17  1  0  0  0
 28 22  1  0  0  0
 10  5  1  0  0  0
 40 41  1  0  0  0
 11 15  1  0  0  0
 14 16  1  0  0  0
M  END
> <minimizedAffinity>
-8.92375

> <CNNscore>
0.0897145867

> <CNNaffinity>
7.0220093727

> <CNN_VS>
0.6299766898

> <CNNaffinity_variance>
0.3303613961

$$$$
[H]c1nc(N([H])c2c([H])c(OC([H])([H])[H])c([H])c(OC([H])([H])[H])c2[H])nc(Oc2c([H])c([H])c(N([H])C(=O)N([H])c3c([H])c(C(C([H])([H])[H])(C([H])([H])[H])C([H])([H])[H])nn3-c3c([H])c([H])c(C([H])([H])[H])c([H])c3[H])c3c([H])c([H])c([H])c([H])c23)c1[H]


 51 56  0  0  0  0  0  0  0  0999 V2000
    3.1958    3.1828   14.5586 C   0  0  0  0  0  0  0  0  0  0  0  0
    3.5989    4.5268   14.5881 C   0  0  0  0  0  0  0  0  0  0  0  0
    4.0596    5.0571   15.7677 C   0  0  0  0  0  0  0  0  0  0  0  0
    4.1561    4.3419   16.9568 C   0  0  0  0  0  0  0  0  0  0  0  0
    3.7551    3.0218   16.8925 C   0  0  0  0  0  0  0  0  0  0  0  0
    3.8433    2.2198   18.0436 C   0  0  0  0  0  0  0  0  0  0  0  0
    3.4772    0.9059   18.0281 C   0  0  0  0  0  0  0  0  0  0  0  0
    3.0083    0.3255   16.8679 C   0  0  0  0  0  0  0  0  0  0  0  0
    2.9131    1.0937   15.7249 C   0  0  0  0  0  0  0  0  0  0  0  0
    3.2899    2.4404   15.7515 C   0  0  0  0  0  0  0  0  0  0  0  0
    4.4871    4.9730   18.1807 N   0  0  0  0  0  0  0  0  0  0  0  0
    3.9464    6.1297   18.7344 C   0  0  0  0  0  0  0  0  0  0  0  0
    3.0525    6.6894   17.9582 O   0  0  0  0  0  0  0  0  0  0  0  0
    4.1493    6.7847   19.9260 N   0  0  0  0  0  0  0  0  0  0  0  0
    5.2103    4.4536   18.7552 H   0  0  0  0  0  0  0  0  0  0  0  0
    3.4715    7.6885   20.0106 H   0  0  0  0  0  0  0  0  0  0  0  0
    5.0264    6.7514   21.0171 C   0  0  0  0  0  0  0  0  0  0  0  0
    5.7718    7.9327   21.3453 C   0  0  0  0  0  0  0  0  0  0  0  0
    6.5856    7.5977   22.3927 C   0  0  0  0  0  0  0  0  0  0  0  0
    6.3423    6.3349   22.6567 N   0  0  0  0  0  0  0  0  0  0  0  0
    5.4070    5.7959   21.8407 N   0  0  0  0  0  0  0  0  0  0  0  0
    5.0745    4.4010   21.9287 C   0  0  0  0  0  0  0  0  0  0  0  0
    4.0013    3.9584   22.6632 C   0  0  0  0  0  0  0  0  0  0  0  0
    3.6165    2.6166   22.6861 C   0  0  0  0  0  0  0  0  0  0  0  0
    4.3144    1.6774   21.9592 C   0  0  0  0  0  0  0  0  0  0  0  0
    3.8872    0.2425   21.9736 C   0  0  0  0  0  0  0  0  0  0  0  0
    5.3935    2.1214   21.2236 C   0  0  0  0  0  0  0  0  0  0  0  0
    5.7804    3.4589   21.1980 C   0  0  0  0  0  0  0  0  0  0  0  0
    7.5481    8.5252   23.1045 C   0  0  0  0  0  0  0  0  0  0  0  0
    8.9364    8.1479   22.7043 C   0  0  0  0  0  0  0  0  0  0  0  0
    7.2100    9.9681   22.7297 C   0  0  0  0  0  0  0  0  0  0  0  0
    7.3260    8.3381   24.5797 C   0  0  0  0  0  0  0  0  0  0  0  0
    2.7406    2.6029   13.4975 O   0  0  0  0  0  0  0  0  0  0  0  0
    3.1082    1.0976   10.2991 C   0  0  0  0  0  0  0  0  0  0  0  0
    1.8861    1.2546    9.7947 N   0  0  0  0  0  0  0  0  0  0  0  0
    0.9150    1.8632   10.5021 C   0  0  0  0  0  0  0  0  0  0  0  0
    1.1639    2.3269   11.7446 C   0  0  0  0  0  0  0  0  0  0  0  0
    2.4546    2.1817   12.3239 C   0  0  0  0  0  0  0  0  0  0  0  0
    3.3745    1.5508   11.5234 N   0  0  0  0  0  0  0  0  0  0  0  0
    4.1173    0.4294    9.5688 N   0  0  0  0  0  0  0  0  0  0  0  0
    4.2612   -0.5838    9.6649 H   0  0  0  0  0  0  0  0  0  0  0  0
    6.1435    3.2193    8.2477 C   0  0  0  0  0  0  0  0  0  0  0  0
    5.3766    2.4476    9.0925 C   0  0  0  0  0  0  0  0  0  0  0  0
    4.9354    1.1983    8.6977 C   0  0  0  0  0  0  0  0  0  0  0  0
    5.2716    0.7362    7.4552 C   0  0  0  0  0  0  0  0  0  0  0  0
    6.0469    1.4843    6.5644 C   0  0  0  0  0  0  0  0  0  0  0  0
    6.4715    2.7160    6.9737 C   0  0  0  0  0  0  0  0  0  0  0  0
    7.8298    4.9669    8.1990 C   0  0  0  0  0  0  0  0  0  0  0  0
    6.5990    4.4647    8.6075 O   0  0  0  0  0  0  0  0  0  0  0  0
    6.3624    0.9851    5.3183 O   0  0  0  0  0  0  0  0  0  0  0  0
    6.2370    1.7475    4.1552 C   0  0  0  0  0  0  0  0  0  0  0  0
 48 49  1  0  0  0
 49 42  1  0  0  0
 42 43  2  0  0  0
 43 44  1  0  0  0
 44 40  1  0  0  0
 40 34  1  0  0  0
 34 35  2  0  0  0
 35 36  1  0  0  0
 36 37  2  0  0  0
 37 38  1  0  0  0
 38 33  1  0  0  0
 33  1  1  0  0  0
  1  2  2  0  0  0
  2  3  1  0  0  0
  3  4  2  0  0  0
  4 11  1  0  0  0
 11 12  1  0  0  0
 12 13  2  0  0  0
 12 14  1  0  0  0
 14 17  1  0  0  0
 17 18  2  0  0  0
 18 19  1  0  0  0
 19 20  2  0  0  0
 20 21  1  0  0  0
 21 22  1  0  0  0
 22 23  2  0  0  0
 23 24  1  0  0  0
 24 25  2  0  0  0
 25 26  1  0  0  0
 25 27  1  0  0  0
 27 28  2  0  0  0
 19 29  1  0  0  0
 29 30  1  0  0  0
 29 31  1  0  0  0
 29 32  1  0  0  0
  4  5  1  0  0  0
  5  6  2  0  0  0
  6  7  1  0  0  0
  7  8  2  0  0  0
  8  9  1  0  0  0
  9 10  2  0  0  0
 38 39  2  0  0  0
 44 45  2  0  0  0
 45 46  1  0  0  0
 46 50  1  0  0  0
 50 51  1  0  0  0
 46 47  2  0  0  0
 47 42  1  0  0  0
 39 34  1  0  0  0
 10  1  1  0  0  0
 21 17  1  0  0  0
 28 22  1  0  0  0
 10  5  1  0  0  0
 40 41  1  0  0  0
 11 15  1  0  0  0
 14 16  1  0  0  0
M  END
> <minimizedAffinity>
-9.12029

> <CNNscore>
0.0891725495

> <CNNaffinity>
7.1567087173

> <CNN_VS>
0.6381819844

> <CNNaffinity_variance>
0.2798693776

$$$$
[H]c1nc(N([H])c2c([H])c(OC([H])([H])[H])c([H])c(OC([H])([H])[H])c2[H])nc(Oc2c([H])c([H])c(N([H])C(=O)N([H])c3c([H])c(C(C([H])([H])[H])(C([H])([H])[H])C([H])([H])[H])nn3-c3c([H])c([H])c(C([H])([H])[H])c([H])c3[H])c3c([H])c([H])c([H])c([H])c23)c1[H]


 51 56  0  0  0  0  0  0  0  0999 V2000
    2.6800    3.6237   14.6755 C   0  0  0  0  0  0  0  0  0  0  0  0
    3.2122    4.9116   14.8422 C   0  0  0  0  0  0  0  0  0  0  0  0
    3.9460    5.1871   15.9694 C   0  0  0  0  0  0  0  0  0  0  0  0
    4.2028    4.2617   16.9757 C   0  0  0  0  0  0  0  0  0  0  0  0
    3.6682    3.0035   16.7790 C   0  0  0  0  0  0  0  0  0  0  0  0
    3.9009    2.0004   17.7359 C   0  0  0  0  0  0  0  0  0  0  0  0
    3.4105    0.7372   17.5799 C   0  0  0  0  0  0  0  0  0  0  0  0
    2.6675    0.4096   16.4647 C   0  0  0  0  0  0  0  0  0  0  0  0
    2.4263    1.3784   15.5114 C   0  0  0  0  0  0  0  0  0  0  0  0
    2.9325    2.6711   15.6814 C   0  0  0  0  0  0  0  0  0  0  0  0
    4.8287    4.6360   18.1897 N   0  0  0  0  0  0  0  0  0  0  0  0
    4.6686    5.8080   18.9230 C   0  0  0  0  0  0  0  0  0  0  0  0
    3.8567    6.6572   18.3444 O   0  0  0  0  0  0  0  0  0  0  0  0
    5.1735    6.2398   20.1265 N   0  0  0  0  0  0  0  0  0  0  0  0
    5.4623    3.8917   18.5990 H   0  0  0  0  0  0  0  0  0  0  0  0
    4.7608    7.2601   20.3951 H   0  0  0  0  0  0  0  0  0  0  0  0
    6.1402    5.8619   21.0666 C   0  0  0  0  0  0  0  0  0  0  0  0
    7.1702    6.7970   21.4181 C   0  0  0  0  0  0  0  0  0  0  0  0
    8.0012    6.1473   22.2891 C   0  0  0  0  0  0  0  0  0  0  0  0
    7.5066    4.9402   22.4366 N   0  0  0  0  0  0  0  0  0  0  0  0
    6.3842    4.7374   21.7085 N   0  0  0  0  0  0  0  0  0  0  0  0
    5.7525    3.4472   21.6807 C   0  0  0  0  0  0  0  0  0  0  0  0
    4.3946    3.3036   21.8316 C   0  0  0  0  0  0  0  0  0  0  0  0
    3.7593    2.0655   21.7197 C   0  0  0  0  0  0  0  0  0  0  0  0
    4.4882    0.9284   21.4494 C   0  0  0  0  0  0  0  0  0  0  0  0
    3.8000   -0.3942   21.3133 C   0  0  0  0  0  0  0  0  0  0  0  0
    5.8520    1.0723   21.3003 C   0  0  0  0  0  0  0  0  0  0  0  0
    6.4894    2.3054   21.4110 C   0  0  0  0  0  0  0  0  0  0  0  0
    9.2273    6.7351   22.9562 C   0  0  0  0  0  0  0  0  0  0  0  0
    9.9162    7.6154   21.9661 C   0  0  0  0  0  0  0  0  0  0  0  0
    8.7894    7.5007   24.2048 C   0  0  0  0  0  0  0  0  0  0  0  0
   10.0963    5.5800   23.3702 C   0  0  0  0  0  0  0  0  0  0  0  0
    1.9700    3.2776   13.6530 O   0  0  0  0  0  0  0  0  0  0  0  0
    0.0732    3.5688   10.6617 C   0  0  0  0  0  0  0  0  0  0  0  0
    0.3920    2.4360   10.0391 N   0  0  0  0  0  0  0  0  0  0  0  0
    1.2405    1.5512   10.5968 C   0  0  0  0  0  0  0  0  0  0  0  0
    1.7885    1.7990   11.8047 C   0  0  0  0  0  0  0  0  0  0  0  0
    1.4766    2.9960   12.5068 C   0  0  0  0  0  0  0  0  0  0  0  0
    0.6018    3.8306   11.8563 N   0  0  0  0  0  0  0  0  0  0  0  0
   -0.7916    4.5117   10.0607 N   0  0  0  0  0  0  0  0  0  0  0  0
   -0.4751    5.1031    9.2818 H   0  0  0  0  0  0  0  0  0  0  0  0
   -4.3942    3.8836   10.5718 C   0  0  0  0  0  0  0  0  0  0  0  0
   -3.0996    3.7660   10.1162 C   0  0  0  0  0  0  0  0  0  0  0  0
   -2.1148    4.6258   10.5662 C   0  0  0  0  0  0  0  0  0  0  0  0
   -2.4424    5.5963   11.4723 C   0  0  0  0  0  0  0  0  0  0  0  0
   -3.7424    5.7534   11.9617 C   0  0  0  0  0  0  0  0  0  0  0  0
   -4.7001    4.8945   11.5037 C   0  0  0  0  0  0  0  0  0  0  0  0
   -5.4845    2.5733    8.8414 C   0  0  0  0  0  0  0  0  0  0  0  0
   -5.3972    3.0465   10.1462 O   0  0  0  0  0  0  0  0  0  0  0  0
   -4.0341    6.7465   12.8728 O   0  0  0  0  0  0  0  0  0  0  0  0
   -3.0909    7.2220   13.7861 C   0  0  0  0  0  0  0  0  0  0  0  0
 48 49  1  0  0  0
 49 42  1  0  0  0
 42 43  2  0  0  0
 43 44  1  0  0  0
 44 40  1  0  0  0
 40 34  1  0  0  0
 34 35  2  0  0  0
 35 36  1  0  0  0
 36 37  2  0  0  0
 37 38  1  0  0  0
 38 33  1  0  0  0
 33  1  1  0  0  0
  1  2  2  0  0  0
  2  3  1  0  0  0
  3  4  2  0  0  0
  4 11  1  0  0  0
 11 12  1  0  0  0
 12 13  2  0  0  0
 12 14  1  0  0  0
 14 17  1  0  0  0
 17 18  2  0  0  0
 18 19  1  0  0  0
 19 20  2  0  0  0
 20 21  1  0  0  0
 21 22  1  0  0  0
 22 23  2  0  0  0
 23 24  1  0  0  0
 24 25  2  0  0  0
 25 26  1  0  0  0
 25 27  1  0  0  0
 27 28  2  0  0  0
 19 29  1  0  0  0
 29 30  1  0  0  0
 29 31  1  0  0  0
 29 32  1  0  0  0
  4  5  1  0  0  0
  5  6  2  0  0  0
  6  7  1  0  0  0
  7  8  2  0  0  0
  8  9  1  0  0  0
  9 10  2  0  0  0
 38 39  2  0  0  0
 44 45  2  0  0  0
 45 46  1  0  0  0
 46 50  1  0  0  0
 50 51  1  0  0  0
 46 47  2  0  0  0
 47 42  1  0  0  0
 39 34  1  0  0  0
 10  1  1  0  0  0
 21 17  1  0  0  0
 28 22  1  0  0  0
 10  5  1  0  0  0
 40 41  1  0  0  0
 11 15  1  0  0  0
 14 16  1  0  0  0
M  END
> <minimizedAffinity>
-10.33347

> <CNNscore>
0.0647952035

> <CNNaffinity>
6.9425859451

> <CNN_VS>
0.4498462677

> <CNNaffinity_variance>
0.3568624854

$$$$
[H]c1nc(N([H])c2c([H])c(OC([H])([H])[H])c([H])c(OC([H])([H])[H])c2[H])nc(Oc2c([H])c([H])c(N([H])C(=O)N([H])c3c([H])c(C(C([H])([H])[H])(C([H])([H])[H])C([H])([H])[H])nn3-c3c([H])c([H])c(C([H])([H])[H])c([H])c3[H])c3c([H])c([H])c([H])c([H])c23)c1[H]


 51 56  0  0  0  0  0  0  0  0999 V2000
    3.8629    2.3454   17.9111 C   0  0  0  0  0  0  0  0  0  0  0  0
    3.5584    1.0712   17.4077 C   0  0  0  0  0  0  0  0  0  0  0  0
    3.3013    0.9300   16.0664 C   0  0  0  0  0  0  0  0  0  0  0  0
    3.3218    1.9813   15.1558 C   0  0  0  0  0  0  0  0  0  0  0  0
    3.6284    3.2205   15.6828 C   0  0  0  0  0  0  0  0  0  0  0  0
    3.6952    4.3340   14.8274 C   0  0  0  0  0  0  0  0  0  0  0  0
    4.0114    5.5757   15.2950 C   0  0  0  0  0  0  0  0  0  0  0  0
    4.2787    5.7702   16.6343 C   0  0  0  0  0  0  0  0  0  0  0  0
    4.2193    4.6912   17.4934 C   0  0  0  0  0  0  0  0  0  0  0  0
    3.8929    3.4222   17.0042 C   0  0  0  0  0  0  0  0  0  0  0  0
    2.8967    1.8138   13.8153 N   0  0  0  0  0  0  0  0  0  0  0  0
    1.6182    1.9619   13.2857 C   0  0  0  0  0  0  0  0  0  0  0  0
    0.7248    2.2494   14.1990 O   0  0  0  0  0  0  0  0  0  0  0  0
    1.1153    1.8837   12.0086 N   0  0  0  0  0  0  0  0  0  0  0  0
    3.6794    1.5925   13.1361 H   0  0  0  0  0  0  0  0  0  0  0  0
    0.0052    2.1094   11.9970 H   0  0  0  0  0  0  0  0  0  0  0  0
    1.5274    1.4876   10.7302 C   0  0  0  0  0  0  0  0  0  0  0  0
    2.9310    1.4428   10.4357 C   0  0  0  0  0  0  0  0  0  0  0  0
    3.0383    1.0961    9.1167 C   0  0  0  0  0  0  0  0  0  0  0  0
    1.8106    0.9508    8.6747 N   0  0  0  0  0  0  0  0  0  0  0  0
    0.8765    1.1833    9.6257 N   0  0  0  0  0  0  0  0  0  0  0  0
   -0.5227    1.1533    9.3007 C   0  0  0  0  0  0  0  0  0  0  0  0
   -1.2130   -0.0287    9.1854 C   0  0  0  0  0  0  0  0  0  0  0  0
   -2.5896   -0.0684    8.9562 C   0  0  0  0  0  0  0  0  0  0  0  0
   -3.3116    1.0986    8.8365 C   0  0  0  0  0  0  0  0  0  0  0  0
   -4.7904    1.0506    8.6079 C   0  0  0  0  0  0  0  0  0  0  0  0
   -2.6180    2.2855    8.9499 C   0  0  0  0  0  0  0  0  0  0  0  0
   -1.2450    2.3293    9.1785 C   0  0  0  0  0  0  0  0  0  0  0  0
    4.3294    0.9006    8.3496 C   0  0  0  0  0  0  0  0  0  0  0  0
    4.9839   -0.3434    8.8536 C   0  0  0  0  0  0  0  0  0  0  0  0
    4.0084    0.8214    6.8571 C   0  0  0  0  0  0  0  0  0  0  0  0
    5.1777    2.1156    8.6038 C   0  0  0  0  0  0  0  0  0  0  0  0
    4.1085    2.5739   19.1588 O   0  0  0  0  0  0  0  0  0  0  0  0
    5.0875    4.1103   22.2104 C   0  0  0  0  0  0  0  0  0  0  0  0
    5.6018    3.0749   22.8707 N   0  0  0  0  0  0  0  0  0  0  0  0
    5.6365    1.8466   22.3193 C   0  0  0  0  0  0  0  0  0  0  0  0
    5.1458    1.6408   21.0793 C   0  0  0  0  0  0  0  0  0  0  0  0
    4.5872    2.7173   20.3365 C   0  0  0  0  0  0  0  0  0  0  0  0
    4.6002    3.9280   20.9838 N   0  0  0  0  0  0  0  0  0  0  0  0
    5.0216    5.3920   22.8029 N   0  0  0  0  0  0  0  0  0  0  0  0
    4.5018    5.5485   23.6757 H   0  0  0  0  0  0  0  0  0  0  0  0
    5.6127    8.3774   20.7118 C   0  0  0  0  0  0  0  0  0  0  0  0
    4.9744    7.3506   21.3720 C   0  0  0  0  0  0  0  0  0  0  0  0
    5.6911    6.4653   22.1556 C   0  0  0  0  0  0  0  0  0  0  0  0
    7.0450    6.6225   22.2684 C   0  0  0  0  0  0  0  0  0  0  0  0
    7.7348    7.6489   21.6166 C   0  0  0  0  0  0  0  0  0  0  0  0
    7.0082    8.5116   20.8469 C   0  0  0  0  0  0  0  0  0  0  0  0
    3.8191    8.9250   19.1681 C   0  0  0  0  0  0  0  0  0  0  0  0
    4.9317    9.2750   19.9254 O   0  0  0  0  0  0  0  0  0  0  0  0
    9.1014    7.7726   21.7526 O   0  0  0  0  0  0  0  0  0  0  0  0
    9.7706    7.4119   22.9239 C   0  0  0  0  0  0  0  0  0  0  0  0
 48 49  1  0  0  0
 49 42  1  0  0  0
 42 43  2  0  0  0
 43 44  1  0  0  0
 44 40  1  0  0  0
 40 34  1  0  0  0
 34 35  2  0  0  0
 35 36  1  0  0  0
 36 37  2  0  0  0
 37 38  1  0  0  0
 38 33  1  0  0  0
 33  1  1  0  0  0
  1  2  2  0  0  0
  2  3  1  0  0  0
  3  4  2  0  0  0
  4 11  1  0  0  0
 11 12  1  0  0  0
 12 13  2  0  0  0
 12 14  1  0  0  0
 14 17  1  0  0  0
 17 18  2  0  0  0
 18 19  1  0  0  0
 19 20  2  0  0  0
 20 21  1  0  0  0
 21 22  1  0  0  0
 22 23  2  0  0  0
 23 24  1  0  0  0
 24 25  2  0  0  0
 25 26  1  0  0  0
 25 27  1  0  0  0
 27 28  2  0  0  0
 19 29  1  0  0  0
 29 30  1  0  0  0
 29 31  1  0  0  0
 29 32  1  0  0  0
  4  5  1  0  0  0
  5  6  2  0  0  0
  6  7  1  0  0  0
  7  8  2  0  0  0
  8  9  1  0  0  0
  9 10  2  0  0  0
 38 39  2  0  0  0
 44 45  2  0  0  0
 45 46  1  0  0  0
 46 50  1  0  0  0
 50 51  1  0  0  0
 46 47  2  0  0  0
 47 42  1  0  0  0
 39 34  1  0  0  0
 10  1  1  0  0  0
 21 17  1  0  0  0
 28 22  1  0  0  0
 10  5  1  0  0  0
 40 41  1  0  0  0
 11 15  1  0  0  0
 14 16  1  0  0  0
M  END
> <minimizedAffinity>
-9.13123

> <CNNscore>
0.0620543510

> <CNNaffinity>
7.0039491653

> <CNN_VS>
0.4346255064

> <CNNaffinity_variance>
0.3300702572

$$$$
[H]c1nc(N([H])c2c([H])c(OC([H])([H])[H])c([H])c(OC([H])([H])[H])c2[H])nc(Oc2c([H])c([H])c(N([H])C(=O)N([H])c3c([H])c(C(C([H])([H])[H])(C([H])([H])[H])C([H])([H])[H])nn3-c3c([H])c([H])c(C([H])([H])[H])c([H])c3[H])c3c([H])c([H])c([H])c([H])c23)c1[H]


 51 56  0  0  0  0  0  0  0  0999 V2000
    3.8466    2.7477   18.0695 C   0  0  0  0  0  0  0  0  0  0  0  0
    3.7391    1.5249   17.3891 C   0  0  0  0  0  0  0  0  0  0  0  0
    3.6233    1.5333   16.0210 C   0  0  0  0  0  0  0  0  0  0  0  0
    3.6046    2.6903   15.2491 C   0  0  0  0  0  0  0  0  0  0  0  0
    3.7161    3.8757   15.9490 C   0  0  0  0  0  0  0  0  0  0  0  0
    3.7308    5.0916   15.2439 C   0  0  0  0  0  0  0  0  0  0  0  0
    3.8569    6.2882   15.8865 C   0  0  0  0  0  0  0  0  0  0  0  0
    3.9768    6.3337   17.2600 C   0  0  0  0  0  0  0  0  0  0  0  0
    3.9650    5.1521   17.9736 C   0  0  0  0  0  0  0  0  0  0  0  0
    3.8339    3.9304   17.3054 C   0  0  0  0  0  0  0  0  0  0  0  0
    3.3255    2.6551   13.8611 N   0  0  0  0  0  0  0  0  0  0  0  0
    2.1008    2.4686   13.2268 C   0  0  0  0  0  0  0  0  0  0  0  0
    1.1228    2.2581   14.0719 O   0  0  0  0  0  0  0  0  0  0  0  0
    1.7151    2.4775   11.9073 N   0  0  0  0  0  0  0  0  0  0  0  0
    4.1663    2.8441   13.2443 H   0  0  0  0  0  0  0  0  0  0  0  0
    0.5975    2.3178   11.8120 H   0  0  0  0  0  0  0  0  0  0  0  0
    2.2968    2.4984   10.6336 C   0  0  0  0  0  0  0  0  0  0  0  0
    2.8591    3.7255   10.1469 C   0  0  0  0  0  0  0  0  0  0  0  0
    3.2869    3.4756    8.8718 C   0  0  0  0  0  0  0  0  0  0  0  0
    3.0021    2.2172    8.6294 N   0  0  0  0  0  0  0  0  0  0  0  0
    2.4011    1.6016    9.6739 N   0  0  0  0  0  0  0  0  0  0  0  0
    1.9411    0.2454    9.5588 C   0  0  0  0  0  0  0  0  0  0  0  0
    0.6133   -0.0815    9.6899 C   0  0  0  0  0  0  0  0  0  0  0  0
    0.1430   -1.3813    9.4942 C   0  0  0  0  0  0  0  0  0  0  0  0
    1.0123   -2.3952    9.1571 C   0  0  0  0  0  0  0  0  0  0  0  0
    0.5004   -3.7839    8.9314 C   0  0  0  0  0  0  0  0  0  0  0  0
    2.3460   -2.0675    9.0278 C   0  0  0  0  0  0  0  0  0  0  0  0
    2.8191   -0.7723    9.2221 C   0  0  0  0  0  0  0  0  0  0  0  0
    3.9728    4.4648    7.9528 C   0  0  0  0  0  0  0  0  0  0  0  0
    4.9079    3.7057    7.0701 C   0  0  0  0  0  0  0  0  0  0  0  0
    2.9073    5.2172    7.1556 C   0  0  0  0  0  0  0  0  0  0  0  0
    4.7072    5.4404    8.8300 C   0  0  0  0  0  0  0  0  0  0  0  0
    3.9495    2.8365   19.3544 O   0  0  0  0  0  0  0  0  0  0  0  0
    4.9748    4.2171   22.4647 C   0  0  0  0  0  0  0  0  0  0  0  0
    5.0648    3.1236   23.2187 N   0  0  0  0  0  0  0  0  0  0  0  0
    4.7894    1.9060   22.7132 C   0  0  0  0  0  0  0  0  0  0  0  0
    4.4127    1.7711   21.4245 C   0  0  0  0  0  0  0  0  0  0  0  0
    4.3032    2.9113   20.5816 C   0  0  0  0  0  0  0  0  0  0  0  0
    4.6069    4.1046   21.1891 N   0  0  0  0  0  0  0  0  0  0  0  0
    5.2321    5.4977   23.0051 N   0  0  0  0  0  0  0  0  0  0  0  0
    4.8695    5.7683   23.9281 H   0  0  0  0  0  0  0  0  0  0  0  0
    6.1141    8.1221   20.5619 C   0  0  0  0  0  0  0  0  0  0  0  0
    5.3778    7.2561   21.3399 C   0  0  0  0  0  0  0  0  0  0  0  0
    6.0043    6.4081   22.2343 C   0  0  0  0  0  0  0  0  0  0  0  0
    7.3676    6.4404   22.3381 C   0  0  0  0  0  0  0  0  0  0  0  0
    8.1552    7.3018   21.5688 C   0  0  0  0  0  0  0  0  0  0  0  0
    7.5167    8.1303   20.6910 C   0  0  0  0  0  0  0  0  0  0  0  0
    4.1626    9.2600   19.6695 C   0  0  0  0  0  0  0  0  0  0  0  0
    5.5245    8.9783   19.6636 O   0  0  0  0  0  0  0  0  0  0  0  0
    9.5279    7.3027   21.7000 O   0  0  0  0  0  0  0  0  0  0  0  0
   10.3502    6.4624   20.9465 C   0  0  0  0  0  0  0  0  0  0  0  0
 48 49  1  0  0  0
 49 42  1  0  0  0
 42 43  2  0  0  0
 43 44  1  0  0  0
 44 40  1  0  0  0
 40 34  1  0  0  0
 34 35  2  0  0  0
 35 36  1  0  0  0
 36 37  2  0  0  0
 37 38  1  0  0  0
 38 33  1  0  0  0
 33  1  1  0  0  0
  1  2  2  0  0  0
  2  3  1  0  0  0
  3  4  2  0  0  0
  4 11  1  0  0  0
 11 12  1  0  0  0
 12 13  2  0  0  0
 12 14  1  0  0  0
 14 17  1  0  0  0
 17 18  2  0  0  0
 18 19  1  0  0  0
 19 20  2  0  0  0
 20 21  1  0  0  0
 21 22  1  0  0  0
 22 23  2  0  0  0
 23 24  1  0  0  0
 24 25  2  0  0  0
 25 26  1  0  0  0
 25 27  1  0  0  0
 27 28  2  0  0  0
 19 29  1  0  0  0
 29 30  1  0  0  0
 29 31  1  0  0  0
 29 32  1  0  0  0
  4  5  1  0  0  0
  5  6  2  0  0  0
  6  7  1  0  0  0
  7  8  2  0  0  0
  8  9  1  0  0  0
  9 10  2  0  0  0
 38 39  2  0  0  0
 44 45  2  0  0  0
 45 46  1  0  0  0
 46 50  1  0  0  0
 50 51  1  0  0  0
 46 47  2  0  0  0
 47 42  1  0  0  0
 39 34  1  0  0  0
 10  1  1  0  0  0
 21 17  1  0  0  0
 28 22  1  0  0  0
 10  5  1  0  0  0
 40 41  1  0  0  0
 11 15  1  0  0  0
 14 16  1  0  0  0
M  END
> <minimizedAffinity>
-8.88562

> <CNNscore>
0.0602906533

> <CNNaffinity>
7.0708360672

> <CNN_VS>
0.4263053238

> <CNNaffinity_variance>
0.4870384336

$$$$
[H]OC(=O)[C@]1([H])N([H])[C@@]([H])(C([H])(C([H])([H])[H])C([H])([H])[H])c2c(c3c([H])c([H])c([H])c([H])c3n2[H])C1([H])[H]


 22 24  0  0  0  0  0  0  0  0999 V2000
    4.4421    4.6617   20.1935 C   0  0  0  0  0  0  0  0  0  0  0  0
    3.4894    5.7475   20.2129 N   0  0  0  0  0  0  0  0  0  0  0  0
    3.3574    6.5087   19.0441 C   0  0  0  0  0  0  0  0  0  0  0  0
    3.7562    5.8788   17.7669 C   0  0  0  0  0  0  0  0  0  0  0  0
    3.7502    4.3750   17.8835 C   0  0  0  0  0  0  0  0  0  0  0  0
    4.0876    3.7681   19.0770 C   0  0  0  0  0  0  0  0  0  0  0  0
    3.9909    2.4434   18.8710 N   0  0  0  0  0  0  0  0  0  0  0  0
    3.6126    2.1677   17.6193 C   0  0  0  0  0  0  0  0  0  0  0  0
    3.3736    1.0016   16.9182 C   0  0  0  0  0  0  0  0  0  0  0  0
    2.9810    1.0063   15.5926 C   0  0  0  0  0  0  0  0  0  0  0  0
    2.8191    2.2210   14.9362 C   0  0  0  0  0  0  0  0  0  0  0  0
    3.0607    3.3912   15.6457 C   0  0  0  0  0  0  0  0  0  0  0  0
    3.4531    3.3854   16.9707 C   0  0  0  0  0  0  0  0  0  0  0  0
    3.4238    6.2348   21.1057 H   0  0  0  0  0  0  0  0  0  0  0  0
    4.1806    1.6797   19.5801 H   0  0  0  0  0  0  0  0  0  0  0  0
    4.1592    7.7710   19.2023 C   0  0  0  0  0  0  0  0  0  0  0  0
    3.4996    8.8505   19.7736 O   0  0  0  0  0  0  0  0  0  0  0  0
    5.3463    7.8372   18.8394 O   0  0  0  0  0  0  0  0  0  0  0  0
    3.2711    9.6676   19.2130 H   0  0  0  0  0  0  0  0  0  0  0  0
    3.8276    4.8906   22.6185 C   0  0  0  0  0  0  0  0  0  0  0  0
    4.3575    4.0036   21.5534 C   0  0  0  0  0  0  0  0  0  0  0  0
    5.6932    3.3723   21.9373 C   0  0  0  0  0  0  0  0  0  0  0  0
 20 21  1  0  0  0
 21 22  1  0  0  0
 21  1  1  0  0  0
  1  2  1  0  0  0
  2  3  1  0  0  0
  3  4  1  0  0  0
  4  5  1  0  0  0
  5  6  2  0  0  0
  6  7  1  0  0  0
  7  8  1  0  0  0
  8  9  2  0  0  0
  9 10  1  0  0  0
 10 11  2  0  0  0
 11 12  1  0  0  0
 12 13  2  0  0  0
  3 16  1  0  0  0
 16 17  1  0  0  0
 16 18  2  0  0  0
  6  1  1  0  0  0
 13  8  1  0  0  0
 13  5  1  0  0  0
  2 14  1  0  0  0
  7 15  1  0  0  0
 17 19  1  0  0  0
M  END
> <minimizedAffinity>
-7.72755

> <CNNscore>
0.4668774307

> <CNNaffinity>
5.0622673035

> <CNN_VS>
2.3634583950

> <CNNaffinity_variance>
0.4688030779

$$$$
[H]OC(=O)[C@]1([H])N([H])[C@@]([H])(C([H])(C([H])([H])[H])C([H])([H])[H])c2c(c3c([H])c([H])c([H])c([H])c3n2[H])C1([H])[H]


 22 24  0  0  0  0  0  0  0  0999 V2000
    4.7254    3.8687   21.3889 C   0  0  0  0  0  0  0  0  0  0  0  0
    3.9359    5.0774   21.4426 N   0  0  0  0  0  0  0  0  0  0  0  0
    4.0652    5.9782   20.3774 C   0  0  0  0  0  0  0  0  0  0  0  0
    4.5398    5.4450   19.0822 C   0  0  0  0  0  0  0  0  0  0  0  0
    4.3129    3.9562   18.9974 C   0  0  0  0  0  0  0  0  0  0  0  0
    4.4031    3.1728   20.1309 C   0  0  0  0  0  0  0  0  0  0  0  0
    4.1544    1.9105   19.7418 N   0  0  0  0  0  0  0  0  0  0  0  0
    3.9111    1.8403   18.4296 C   0  0  0  0  0  0  0  0  0  0  0  0
    3.6100    0.8119   17.5578 C   0  0  0  0  0  0  0  0  0  0  0  0
    3.4007    1.0276   16.2084 C   0  0  0  0  0  0  0  0  0  0  0  0
    3.4946    2.3197   15.7042 C   0  0  0  0  0  0  0  0  0  0  0  0
    3.7978    3.3508   16.5851 C   0  0  0  0  0  0  0  0  0  0  0  0
    4.0069    3.1341   17.9339 C   0  0  0  0  0  0  0  0  0  0  0  0
    3.8199    5.4638   22.3785 H   0  0  0  0  0  0  0  0  0  0  0  0
    4.1424    1.0509   20.3607 H   0  0  0  0  0  0  0  0  0  0  0  0
    5.0039    7.0774   20.7917 C   0  0  0  0  0  0  0  0  0  0  0  0
    4.5135    7.9879   21.7177 O   0  0  0  0  0  0  0  0  0  0  0  0
    6.1538    7.1604   20.3269 O   0  0  0  0  0  0  0  0  0  0  0  0
    4.3208    8.9475   21.4418 H   0  0  0  0  0  0  0  0  0  0  0  0
    3.6196    3.8603   23.6445 C   0  0  0  0  0  0  0  0  0  0  0  0
    4.3723    3.0802   22.6312 C   0  0  0  0  0  0  0  0  0  0  0  0
    5.6099    2.4083   23.2201 C   0  0  0  0  0  0  0  0  0  0  0  0
 20 21  1  0  0  0
 21 22  1  0  0  0
 21  1  1  0  0  0
  1  2  1  0  0  0
  2  3  1  0  0  0
  3  4  1  0  0  0
  4  5  1  0  0  0
  5  6  2  0  0  0
  6  7  1  0  0  0
  7  8  1  0  0  0
  8  9  2  0  0  0
  9 10  1  0  0  0
 10 11  2  0  0  0
 11 12  1  0  0  0
 12 13  2  0  0  0
  3 16  1  0  0  0
 16 17  1  0  0  0
 16 18  2  0  0  0
  6  1  1  0  0  0
 13  8  1  0  0  0
 13  5  1  0  0  0
  2 14  1  0  0  0
  7 15  1  0  0  0
 17 19  1  0  0  0
M  END
> <minimizedAffinity>
-8.14118

> <CNNscore>
0.4598494172

> <CNNaffinity>
5.1964659691

> <CNN_VS>
2.3895919323

> <CNNaffinity_variance>
0.4435420632

$$$$
[H]OC(=O)[C@]1([H])N([H])[C@@]([H])(C([H])(C([H])([H])[H])C([H])([H])[H])c2c(c3c([H])c([H])c([H])c([H])c3n2[H])C1([H])[H]


 22 24  0  0  0  0  0  0  0  0999 V2000
    1.9792    3.2520   12.5932 C   0  0  0  0  0  0  0  0  0  0  0  0
    3.2219    3.6019   11.9450 N   0  0  0  0  0  0  0  0  0  0  0  0
    4.1265    4.3886   12.6701 C   0  0  0  0  0  0  0  0  0  0  0  0
    4.0265    4.3649   14.1455 C   0  0  0  0  0  0  0  0  0  0  0  0
    3.3151    3.1213   14.6168 C   0  0  0  0  0  0  0  0  0  0  0  0
    2.3044    2.5672   13.8566 C   0  0  0  0  0  0  0  0  0  0  0  0
    1.8724    1.4859   14.5278 N   0  0  0  0  0  0  0  0  0  0  0  0
    2.5454    1.3158   15.6698 C   0  0  0  0  0  0  0  0  0  0  0  0
    2.4931    0.3877   16.6916 C   0  0  0  0  0  0  0  0  0  0  0  0
    3.3316    0.4519   17.7888 C   0  0  0  0  0  0  0  0  0  0  0  0
    4.2613    1.4819   17.8742 C   0  0  0  0  0  0  0  0  0  0  0  0
    4.3100    2.4132   16.8439 C   0  0  0  0  0  0  0  0  0  0  0  0
    3.4713    2.3480   15.7475 C   0  0  0  0  0  0  0  0  0  0  0  0
    3.1413    3.7736   10.9437 H   0  0  0  0  0  0  0  0  0  0  0  0
    1.1008    0.8247   14.2284 H   0  0  0  0  0  0  0  0  0  0  0  0
    3.9823    5.8173   12.2241 C   0  0  0  0  0  0  0  0  0  0  0  0
    4.4925    6.7831   13.0807 O   0  0  0  0  0  0  0  0  0  0  0  0
    3.4355    6.1104   11.1469 O   0  0  0  0  0  0  0  0  0  0  0  0
    3.8656    7.4078   13.5817 H   0  0  0  0  0  0  0  0  0  0  0  0
    2.0708    1.4167   10.8803 C   0  0  0  0  0  0  0  0  0  0  0  0
    1.2196    2.3897   11.6087 C   0  0  0  0  0  0  0  0  0  0  0  0
    0.3838    3.2489   10.6636 C   0  0  0  0  0  0  0  0  0  0  0  0
 20 21  1  0  0  0
 21 22  1  0  0  0
 21  1  1  0  0  0
  1  2  1  0  0  0
  2  3  1  0  0  0
  3  4  1  0  0  0
  4  5  1  0  0  0
  5  6  2  0  0  0
  6  7  1  0  0  0
  7  8  1  0  0  0
  8  9  2  0  0  0
  9 10  1  0  0  0
 10 11  2  0  0  0
 11 12  1  0  0  0
 12 13  2  0  0  0
  3 16  1  0  0  0
 16 17  1  0  0  0
 16 18  2  0  0  0
  6  1  1  0  0  0
 13  8  1  0  0  0
 13  5  1  0  0  0
  2 14  1  0  0  0
  7 15  1  0  0  0
 17 19  1  0  0  0
M  END
> <minimizedAffinity>
-6.30824

> <CNNscore>
0.4030540287

> <CNNaffinity>
4.7445378304

> <CNN_VS>
1.9123051167

> <CNNaffinity_variance>
0.2093313485

$$$$
[H]OC(=O)[C@]1([H])N([H])[C@@]([H])(C([H])(C([H])([H])[H])C([H])([H])[H])c2c(c3c([H])c([H])c([H])c([H])c3n2[H])C1([H])[H]


 22 24  0  0  0  0  0  0  0  0999 V2000
    4.5154    1.5552   20.3068 C   0  0  0  0  0  0  0  0  0  0  0  0
    4.1414    2.7890   20.9585 N   0  0  0  0  0  0  0  0  0  0  0  0
    4.6635    3.9782   20.4330 C   0  0  0  0  0  0  0  0  0  0  0  0
    5.0898    3.9730   19.0169 C   0  0  0  0  0  0  0  0  0  0  0  0
    4.4210    2.8545   18.2575 C   0  0  0  0  0  0  0  0  0  0  0  0
    4.1350    1.6594   18.8872 C   0  0  0  0  0  0  0  0  0  0  0  0
    3.5503    0.8744   17.9662 N   0  0  0  0  0  0  0  0  0  0  0  0
    3.4456    1.4951   16.7873 C   0  0  0  0  0  0  0  0  0  0  0  0
    2.9383    1.1411   15.5521 C   0  0  0  0  0  0  0  0  0  0  0  0
    2.9590    2.0042   14.4724 C   0  0  0  0  0  0  0  0  0  0  0  0
    3.5069    3.2724   14.6266 C   0  0  0  0  0  0  0  0  0  0  0  0
    4.0160    3.6239   15.8710 C   0  0  0  0  0  0  0  0  0  0  0  0
    3.9948    2.7603   16.9497 C   0  0  0  0  0  0  0  0  0  0  0  0
    4.0478    2.7193   21.9710 H   0  0  0  0  0  0  0  0  0  0  0  0
    3.2016   -0.1153   18.1112 H   0  0  0  0  0  0  0  0  0  0  0  0
    5.8456    4.3908   21.2657 C   0  0  0  0  0  0  0  0  0  0  0  0
    6.2612    3.4867   22.2335 O   0  0  0  0  0  0  0  0  0  0  0  0
    6.4144    5.4824   21.0919 O   0  0  0  0  0  0  0  0  0  0  0  0
    6.1351    3.6970   23.2204 H   0  0  0  0  0  0  0  0  0  0  0  0
    2.6668   -0.1458   20.2993 C   0  0  0  0  0  0  0  0  0  0  0  0
    3.7975    0.4513   21.0523 C   0  0  0  0  0  0  0  0  0  0  0  0
    3.3838    0.9150   22.4465 C   0  0  0  0  0  0  0  0  0  0  0  0
 20 21  1  0  0  0
 21 22  1  0  0  0
 21  1  1  0  0  0
  1  2  1  0  0  0
  2  3  1  0  0  0
  3  4  1  0  0  0
  4  5  1  0  0  0
  5  6  2  0  0  0
  6  7  1  0  0  0
  7  8  1  0  0  0
  8  9  2  0  0  0
  9 10  1  0  0  0
 10 11  2  0  0  0
 11 12  1  0  0  0
 12 13  2  0  0  0
  3 16  1  0  0  0
 16 17  1  0  0  0
 16 18  2  0  0  0
  6  1  1  0  0  0
 13  8  1  0  0  0
 13  5  1  0  0  0
  2 14  1  0  0  0
  7 15  1  0  0  0
 17 19  1  0  0  0
M  END
> <minimizedAffinity>
-8.03919

> <CNNscore>
0.3983964026

> <CNNaffinity>
5.3281459808

> <CNN_VS>
2.1227142811

> <CNNaffinity_variance>
0.4397336841

$$$$
[H]OC(=O)[C@]1([H])N([H])[C@@]([H])(C([H])(C([H])([H])[H])C([H])([H])[H])c2c(c3c([H])c([H])c([H])c([H])c3n2[H])C1([H])[H]


 22 24  0  0  0  0  0  0  0  0999 V2000
    5.3197    3.0467   20.8818 C   0  0  0  0  0  0  0  0  0  0  0  0
    4.4202    4.0055   21.4807 N   0  0  0  0  0  0  0  0  0  0  0  0
    4.0473    5.1103   20.7039 C   0  0  0  0  0  0  0  0  0  0  0  0
    4.1360    4.9761   19.2338 C   0  0  0  0  0  0  0  0  0  0  0  0
    4.1224    3.5246   18.8240 C   0  0  0  0  0  0  0  0  0  0  0  0
    4.7044    2.5679   19.6317 C   0  0  0  0  0  0  0  0  0  0  0  0
    4.5343    1.3892   19.0085 N   0  0  0  0  0  0  0  0  0  0  0  0
    3.8795    1.5350   17.8527 C   0  0  0  0  0  0  0  0  0  0  0  0
    3.4635    0.6656   16.8631 C   0  0  0  0  0  0  0  0  0  0  0  0
    2.7845    1.0990   15.7395 C   0  0  0  0  0  0  0  0  0  0  0  0
    2.5072    2.4533   15.5934 C   0  0  0  0  0  0  0  0  0  0  0  0
    2.9277    3.3239   16.5915 C   0  0  0  0  0  0  0  0  0  0  0  0
    3.6064    2.8896   17.7143 C   0  0  0  0  0  0  0  0  0  0  0  0
    4.5670    4.1553   22.4780 H   0  0  0  0  0  0  0  0  0  0  0  0
    4.8606    0.4417   19.3520 H   0  0  0  0  0  0  0  0  0  0  0  0
    4.8924    6.2864   21.1084 C   0  0  0  0  0  0  0  0  0  0  0  0
    4.3292    7.1606   22.0278 O   0  0  0  0  0  0  0  0  0  0  0  0
    6.0312    6.4603   20.6414 O   0  0  0  0  0  0  0  0  0  0  0  0
    4.0577    8.0989   21.7446 H   0  0  0  0  0  0  0  0  0  0  0  0
    5.4000    2.4338   23.3166 C   0  0  0  0  0  0  0  0  0  0  0  0
    5.5267    1.9614   21.9157 C   0  0  0  0  0  0  0  0  0  0  0  0
    6.8380    1.2191   21.6715 C   0  0  0  0  0  0  0  0  0  0  0  0
 20 21  1  0  0  0
 21 22  1  0  0  0
 21  1  1  0  0  0
  1  2  1  0  0  0
  2  3  1  0  0  0
  3  4  1  0  0  0
  4  5  1  0  0  0
  5  6  2  0  0  0
  6  7  1  0  0  0
  7  8  1  0  0  0
  8  9  2  0  0  0
  9 10  1  0  0  0
 10 11  2  0  0  0
 11 12  1  0  0  0
 12 13  2  0  0  0
  3 16  1  0  0  0
 16 17  1  0  0  0
 16 18  2  0  0  0
  6  1  1  0  0  0
 13  8  1  0  0  0
 13  5  1  0  0  0
  2 14  1  0  0  0
  7 15  1  0  0  0
 17 19  1  0  0  0
M  END
> <minimizedAffinity>
-8.31605

> <CNNscore>
0.3954690695

> <CNNaffinity>
5.1860060692

> <CNN_VS>
2.0509049892

> <CNNaffinity_variance>
0.4361609817

$$$$
[H]OC(=O)[C@]1([H])N([H])[C@@]([H])(C([H])(C([H])([H])[H])C([H])([H])[H])c2c(c3c([H])c([H])c([H])c([H])c3n2[H])C1([H])[H]


 22 24  0  0  0  0  0  0  0  0999 V2000
    3.4001    2.5916   17.0553 C   0  0  0  0  0  0  0  0  0  0  0  0
    4.1054    3.6086   16.3100 N   0  0  0  0  0  0  0  0  0  0  0  0
    4.2763    4.8553   16.9259 C   0  0  0  0  0  0  0  0  0  0  0  0
    4.2244    4.9033   18.4031 C   0  0  0  0  0  0  0  0  0  0  0  0
    4.5055    3.5451   18.9959 C   0  0  0  0  0  0  0  0  0  0  0  0
    4.1016    2.4009   18.3368 C   0  0  0  0  0  0  0  0  0  0  0  0
    4.4883    1.3650   19.1010 N   0  0  0  0  0  0  0  0  0  0  0  0
    5.1141    1.7778   20.2073 C   0  0  0  0  0  0  0  0  0  0  0  0
    5.6889    1.1362   21.2871 C   0  0  0  0  0  0  0  0  0  0  0  0
    6.2858    1.8294   22.3237 C   0  0  0  0  0  0  0  0  0  0  0  0
    6.3126    3.2187   22.2854 C   0  0  0  0  0  0  0  0  0  0  0  0
    5.7332    3.8596   21.1970 C   0  0  0  0  0  0  0  0  0  0  0  0
    5.1367    3.1657   20.1614 C   0  0  0  0  0  0  0  0  0  0  0  0
    3.9264    3.5962   15.3068 H   0  0  0  0  0  0  0  0  0  0  0  0
    4.3377    0.3374   18.8928 H   0  0  0  0  0  0  0  0  0  0  0  0
    3.2281    5.7964   16.4000 C   0  0  0  0  0  0  0  0  0  0  0  0
    1.9178    5.5254   16.7693 O   0  0  0  0  0  0  0  0  0  0  0  0
    3.5253    6.7616   15.6751 O   0  0  0  0  0  0  0  0  0  0  0  0
    1.2468    5.1989   16.0784 H   0  0  0  0  0  0  0  0  0  0  0  0
    3.0204    1.6321   14.7649 C   0  0  0  0  0  0  0  0  0  0  0  0
    3.3868    1.3596   16.1768 C   0  0  0  0  0  0  0  0  0  0  0  0
    2.5293    0.2586   16.7953 C   0  0  0  0  0  0  0  0  0  0  0  0
 20 21  1  0  0  0
 21 22  1  0  0  0
 21  1  1  0  0  0
  1  2  1  0  0  0
  2  3  1  0  0  0
  3  4  1  0  0  0
  4  5  1  0  0  0
  5  6  2  0  0  0
  6  7  1  0  0  0
  7  8  1  0  0  0
  8  9  2  0  0  0
  9 10  1  0  0  0
 10 11  2  0  0  0
 11 12  1  0  0  0
 12 13  2  0  0  0
  3 16  1  0  0  0
 16 17  1  0  0  0
 16 18  2  0  0  0
  6  1  1  0  0  0
 13  8  1  0  0  0
 13  5  1  0  0  0
  2 14  1  0  0  0
  7 15  1  0  0  0
 17 19  1  0  0  0
M  END
> <minimizedAffinity>
-7.95562

> <CNNscore>
0.3857499361

> <CNNaffinity>
5.0916070938

> <CNN_VS>
1.9640871286

> <CNNaffinity_variance>
0.5670995116

$$$$
[H]OC(=O)[C@]1([H])N([H])[C@@]([H])(C([H])(C([H])([H])[H])C([H])([H])[H])c2c(c3c([H])c([H])c([H])c([H])c3n2[H])C1([H])[H]


 22 24  0  0  0  0  0  0  0  0999 V2000
    5.2606    5.4313   19.3736 C   0  0  0  0  0  0  0  0  0  0  0  0
    6.3229    5.9053   20.2302 N   0  0  0  0  0  0  0  0  0  0  0  0
    6.0370    6.0402   21.5951 C   0  0  0  0  0  0  0  0  0  0  0  0
    4.9280    5.2321   22.1466 C   0  0  0  0  0  0  0  0  0  0  0  0
    4.6395    4.0420   21.2659 C   0  0  0  0  0  0  0  0  0  0  0  0
    4.8012    4.1333   19.8976 C   0  0  0  0  0  0  0  0  0  0  0  0
    4.4721    2.9311   19.3946 N   0  0  0  0  0  0  0  0  0  0  0  0
    4.1103    2.0783   20.3578 C   0  0  0  0  0  0  0  0  0  0  0  0
    3.6945    0.7611   20.3741 C   0  0  0  0  0  0  0  0  0  0  0  0
    3.3740    0.1042   21.5476 C   0  0  0  0  0  0  0  0  0  0  0  0
    3.4707    0.7851   22.7556 C   0  0  0  0  0  0  0  0  0  0  0  0
    3.8894    2.1100   22.7341 C   0  0  0  0  0  0  0  0  0  0  0  0
    4.2096    2.7656   21.5605 C   0  0  0  0  0  0  0  0  0  0  0  0
    6.9301    6.6029   19.8021 H   0  0  0  0  0  0  0  0  0  0  0  0
    4.4831    2.6508   18.3731 H   0  0  0  0  0  0  0  0  0  0  0  0
    5.7363    7.4857   21.8802 C   0  0  0  0  0  0  0  0  0  0  0  0
    4.3969    7.8159   22.0349 O   0  0  0  0  0  0  0  0  0  0  0  0
    6.6415    8.3327   21.9711 O   0  0  0  0  0  0  0  0  0  0  0  0
    3.9233    8.3810   21.3344 H   0  0  0  0  0  0  0  0  0  0  0  0
    7.0016    6.2606   17.7637 C   0  0  0  0  0  0  0  0  0  0  0  0
    5.8461    5.3552   17.9804 C   0  0  0  0  0  0  0  0  0  0  0  0
    4.7610    5.5381   16.9225 C   0  0  0  0  0  0  0  0  0  0  0  0
 20 21  1  0  0  0
 21 22  1  0  0  0
 21  1  1  0  0  0
  1  2  1  0  0  0
  2  3  1  0  0  0
  3  4  1  0  0  0
  4  5  1  0  0  0
  5  6  2  0  0  0
  6  7  1  0  0  0
  7  8  1  0  0  0
  8  9  2  0  0  0
  9 10  1  0  0  0
 10 11  2  0  0  0
 11 12  1  0  0  0
 12 13  2  0  0  0
  3 16  1  0  0  0
 16 17  1  0  0  0
 16 18  2  0  0  0
  6  1  1  0  0  0
 13  8  1  0  0  0
 13  5  1  0  0  0
  2 14  1  0  0  0
  7 15  1  0  0  0
 17 19  1  0  0  0
M  END
> <minimizedAffinity>
-7.37327

> <CNNscore>
0.3773262799

> <CNNaffinity>
4.9393181801

> <CNN_VS>
1.8637346029

> <CNNaffinity_variance>
0.1683292240

$$$$
[H]OC(=O)[C@]1([H])N([H])[C@@]([H])(C([H])(C([H])([H])[H])C([H])([H])[H])c2c(c3c([H])c([H])c([H])c([H])c3n2[H])C1([H])[H]


 22 24  0  0  0  0  0  0  0  0999 V2000
    2.1102    4.6861   12.8097 C   0  0  0  0  0  0  0  0  0  0  0  0
    0.6860    4.8102   13.0180 N   0  0  0  0  0  0  0  0  0  0  0  0
    0.1002    6.0512   12.7357 C   0  0  0  0  0  0  0  0  0  0  0  0
    0.8035    6.9416   11.7871 C   0  0  0  0  0  0  0  0  0  0  0  0
    1.7480    6.1565   10.9114 C   0  0  0  0  0  0  0  0  0  0  0  0
    2.3959    5.0434   11.4092 C   0  0  0  0  0  0  0  0  0  0  0  0
    3.1561    4.5665   10.4087 N   0  0  0  0  0  0  0  0  0  0  0  0
    3.0331    5.3068    9.3029 C   0  0  0  0  0  0  0  0  0  0  0  0
    3.5815    5.2480    8.0364 C   0  0  0  0  0  0  0  0  0  0  0  0
    3.2703    6.1710    7.0553 C   0  0  0  0  0  0  0  0  0  0  0  0
    2.3765    7.1954    7.3451 C   0  0  0  0  0  0  0  0  0  0  0  0
    1.8275    7.2504    8.6205 C   0  0  0  0  0  0  0  0  0  0  0  0
    2.1393    6.3273    9.6006 C   0  0  0  0  0  0  0  0  0  0  0  0
    0.3301    4.2894   13.8185 H   0  0  0  0  0  0  0  0  0  0  0  0
    3.7871    3.7165   10.4465 H   0  0  0  0  0  0  0  0  0  0  0  0
   -0.0737    6.8028   14.0264 C   0  0  0  0  0  0  0  0  0  0  0  0
    0.9964    7.5905   14.4279 O   0  0  0  0  0  0  0  0  0  0  0  0
   -1.1203    6.7189   14.6920 O   0  0  0  0  0  0  0  0  0  0  0  0
    1.5480    7.3309   15.2418 H   0  0  0  0  0  0  0  0  0  0  0  0
    1.2847    2.3828   13.3789 C   0  0  0  0  0  0  0  0  0  0  0  0
    2.4635    3.2571   13.1600 C   0  0  0  0  0  0  0  0  0  0  0  0
    3.4447    3.2091   14.3283 C   0  0  0  0  0  0  0  0  0  0  0  0
 20 21  1  0  0  0
 21 22  1  0  0  0
 21  1  1  0  0  0
  1  2  1  0  0  0
  2  3  1  0  0  0
  3  4  1  0  0  0
  4  5  1  0  0  0
  5  6  2  0  0  0
  6  7  1  0  0  0
  7  8  1  0  0  0
  8  9  2  0  0  0
  9 10  1  0  0  0
 10 11  2  0  0  0
 11 12  1  0  0  0
 12 13  2  0  0  0
  3 16  1  0  0  0
 16 17  1  0  0  0
 16 18  2  0  0  0
  6  1  1  0  0  0
 13  8  1  0  0  0
 13  5  1  0  0  0
  2 14  1  0  0  0
  7 15  1  0  0  0
 17 19  1  0  0  0
M  END
> <minimizedAffinity>
-4.62284

> <CNNscore>
0.3422622383

> <CNNaffinity>
4.0893535614

> <CNN_VS>
1.3996312618

> <CNNaffinity_variance>
0.5563076138

$$$$
[H]OC(=O)[C@]1([H])N([H])[C@@]([H])(C([H])(C([H])([H])[H])C([H])([H])[H])c2c(c3c([H])c([H])c([H])c([H])c3n2[H])C1([H])[H]


 22 24  0  0  0  0  0  0  0  0999 V2000
    3.9931    4.0197   19.7034 C   0  0  0  0  0  0  0  0  0  0  0  0
    4.3163    3.9883   18.2957 N   0  0  0  0  0  0  0  0  0  0  0  0
    3.7893    5.0076   17.4916 C   0  0  0  0  0  0  0  0  0  0  0  0
    3.4165    6.2777   18.1512 C   0  0  0  0  0  0  0  0  0  0  0  0
    4.1368    6.4323   19.4674 C   0  0  0  0  0  0  0  0  0  0  0  0
    4.4241    5.3232   20.2381 C   0  0  0  0  0  0  0  0  0  0  0  0
    5.0594    5.7748   21.3330 N   0  0  0  0  0  0  0  0  0  0  0  0
    5.1951    7.1041   21.3085 C   0  0  0  0  0  0  0  0  0  0  0  0
    5.7557    8.0327   22.1639 C   0  0  0  0  0  0  0  0  0  0  0  0
    5.7572    9.3863   21.8830 C   0  0  0  0  0  0  0  0  0  0  0  0
    5.1773    9.8360   20.7024 C   0  0  0  0  0  0  0  0  0  0  0  0
    4.6146    8.8981   19.8452 C   0  0  0  0  0  0  0  0  0  0  0  0
    4.6136    7.5451   20.1269 C   0  0  0  0  0  0  0  0  0  0  0  0
    4.3733    3.0521   17.8971 H   0  0  0  0  0  0  0  0  0  0  0  0
    5.4232    5.1892   22.1373 H   0  0  0  0  0  0  0  0  0  0  0  0
    2.5684    4.4803   16.7899 C   0  0  0  0  0  0  0  0  0  0  0  0
    1.6515    5.4279   16.3562 O   0  0  0  0  0  0  0  0  0  0  0  0
    2.3959    3.2622   16.6114 O   0  0  0  0  0  0  0  0  0  0  0  0
    0.7406    5.5028   16.8023 H   0  0  0  0  0  0  0  0  0  0  0  0
    4.7774    1.6475   19.4426 C   0  0  0  0  0  0  0  0  0  0  0  0
    4.7057    2.8384   20.3249 C   0  0  0  0  0  0  0  0  0  0  0  0
    4.1208    2.5088   21.6958 C   0  0  0  0  0  0  0  0  0  0  0  0
 20 21  1  0  0  0
 21 22  1  0  0  0
 21  1  1  0  0  0
  1  2  1  0  0  0
  2  3  1  0  0  0
  3  4  1  0  0  0
  4  5  1  0  0  0
  5  6  2  0  0  0
  6  7  1  0  0  0
  7  8  1  0  0  0
  8  9  2  0  0  0
  9 10  1  0  0  0
 10 11  2  0  0  0
 11 12  1  0  0  0
 12 13  2  0  0  0
  3 16  1  0  0  0
 16 17  1  0  0  0
 16 18  2  0  0  0
  6  1  1  0  0  0
 13  8  1  0  0  0
 13  5  1  0  0  0
  2 14  1  0  0  0
  7 15  1  0  0  0
 17 19  1  0  0  0
M  END
> <minimizedAffinity>
-7.19722

> <CNNscore>
0.3380339444

> <CNNaffinity>
4.7324719429

> <CNN_VS>
1.5997362137

> <CNNaffinity_variance>
0.4241710603

$$$$
[H]OC([H])([H])[C@@]1(O[H])C([H])([H])[C@@]2([H])O[C@]1(C([H])([H])[H])n1c3c([H])c([H])c([H])c([H])c3c3c4c(c5c6c([H])c([H])c([H])c([H])c6n2c5c31)C(=O)N([H])C4([H])[H]


 36 43  0  0  0  0  0  0  0  0999 V2000
    6.6621    6.0236   20.4526 C   0  0  0  0  0  0  0  0  0  0  0  0
    5.4687    5.5266   19.7110 C   0  0  0  0  0  0  0  0  0  0  0  0
    6.0223    5.3787   18.4092 O   0  0  0  0  0  0  0  0  0  0  0  0
    5.0613    5.5739   17.4773 C   0  0  0  0  0  0  0  0  0  0  0  0
    4.1197    6.5653   18.0140 C   0  0  0  0  0  0  0  0  0  0  0  0
    4.4009    6.5590   19.5002 C   0  0  0  0  0  0  0  0  0  0  0  0
    3.2059    6.2430   20.1291 O   0  0  0  0  0  0  0  0  0  0  0  0
    4.4441    4.2977   17.0929 N   0  0  0  0  0  0  0  0  0  0  0  0
    4.0445    3.8877   15.9015 C   0  0  0  0  0  0  0  0  0  0  0  0
    4.0992    4.5542   14.7049 C   0  0  0  0  0  0  0  0  0  0  0  0
    3.6136    3.9149   13.5708 C   0  0  0  0  0  0  0  0  0  0  0  0
    3.0930    2.6485   13.6479 C   0  0  0  0  0  0  0  0  0  0  0  0
    3.0359    1.9653   14.8686 C   0  0  0  0  0  0  0  0  0  0  0  0
    3.5155    2.6027   15.9760 C   0  0  0  0  0  0  0  0  0  0  0  0
    3.6121    2.2381   17.2997 C   0  0  0  0  0  0  0  0  0  0  0  0
    3.2531    1.1066   18.0093 C   0  0  0  0  0  0  0  0  0  0  0  0
    2.6489   -0.1675   17.6640 C   0  0  0  0  0  0  0  0  0  0  0  0
    2.2675   -0.6095   16.5790 O   0  0  0  0  0  0  0  0  0  0  0  0
    2.5389   -0.9301   18.8700 N   0  0  0  0  0  0  0  0  0  0  0  0
    3.0488   -0.1825   19.9937 C   0  0  0  0  0  0  0  0  0  0  0  0
    3.4886    1.0903   19.3715 C   0  0  0  0  0  0  0  0  0  0  0  0
    4.0687    2.1646   20.0370 C   0  0  0  0  0  0  0  0  0  0  0  0
    4.3946    2.4362   21.3284 C   0  0  0  0  0  0  0  0  0  0  0  0
    4.2422    1.6729   22.4629 C   0  0  0  0  0  0  0  0  0  0  0  0
    4.6463    2.1990   23.6936 C   0  0  0  0  0  0  0  0  0  0  0  0
    5.1861    3.4723   23.7265 C   0  0  0  0  0  0  0  0  0  0  0  0
    5.3289    4.2205   22.5708 C   0  0  0  0  0  0  0  0  0  0  0  0
    4.9396    3.7225   21.3506 C   0  0  0  0  0  0  0  0  0  0  0  0
    4.9569    4.2418   20.0938 N   0  0  0  0  0  0  0  0  0  0  0  0
    4.4085    3.2545   19.3084 C   0  0  0  0  0  0  0  0  0  0  0  0
    4.1883    3.3082   17.9496 C   0  0  0  0  0  0  0  0  0  0  0  0
    2.7249    7.0843   20.3183 H   0  0  0  0  0  0  0  0  0  0  0  0
    2.1463   -1.9053   18.9678 H   0  0  0  0  0  0  0  0  0  0  0  0
    4.8025    7.9371   19.9042 C   0  0  0  0  0  0  0  0  0  0  0  0
    3.6668    8.7475   19.8893 O   0  0  0  0  0  0  0  0  0  0  0  0
    3.6784    9.4072   19.1499 H   0  0  0  0  0  0  0  0  0  0  0  0
  2  1  1  0  0  0
  2  3  1  0  0  0
  3  4  1  0  0  0
  4  5  1  0  0  0
  5  6  1  0  0  0
  6  7  1  0  0  0
  6 34  1  0  0  0
 34 35  1  0  0  0
  4  8  1  0  0  0
  8  9  1  0  0  0
  9 10  2  0  0  0
 10 11  1  0  0  0
 11 12  2  0  0  0
 12 13  1  0  0  0
 13 14  2  0  0  0
 14 15  1  0  0  0
 15 16  2  0  0  0
 16 17  1  0  0  0
 17 18  2  0  0  0
 17 19  1  0  0  0
 19 20  1  0  0  0
 20 21  1  0  0  0
 21 22  2  0  0  0
 22 23  1  0  0  0
 23 24  2  0  0  0
 24 25  1  0  0  0
 25 26  2  0  0  0
 26 27  1  0  0  0
 27 28  2  0  0  0
 28 29  1  0  0  0
 29 30  1  0  0  0
 30 31  2  0  0  0
  6  2  1  0  0  0
 31  8  1  0  0  0
 29  2  1  0  0  0
 14  9  1  0  0  0
 31 15  1  0  0  0
 21 16  1  0  0  0
 30 22  1  0  0  0
 28 23  1  0  0  0
  7 32  1  0  0  0
 35 36  1  0  0  0
 19 33  1  0  0  0
M  END
> <minimizedAffinity>
-12.81854

> <CNNscore>
0.8928605318

> <CNNaffinity>
6.9619827271

> <CNN_VS>
6.2160797119

> <CNNaffinity_variance>
0.2042560279

$$$$
[H]OC([H])([H])[C@@]1(O[H])C([H])([H])[C@@]2([H])O[C@]1(C([H])([H])[H])n1c3c([H])c([H])c([H])c([H])c3c3c4c(c5c6c([H])c([H])c([H])c([H])c6n2c5c31)C(=O)N([H])C4([H])[H]


 36 43  0  0  0  0  0  0  0  0999 V2000
    3.8250    6.9400   16.6157 C   0  0  0  0  0  0  0  0  0  0  0  0
    4.4495    5.8506   17.4185 C   0  0  0  0  0  0  0  0  0  0  0  0
    3.8993    6.1318   18.6996 O   0  0  0  0  0  0  0  0  0  0  0  0
    4.7616    5.7397   19.6653 C   0  0  0  0  0  0  0  0  0  0  0  0
    6.1225    5.9215   19.1432 C   0  0  0  0  0  0  0  0  0  0  0  0
    5.9223    6.0214   17.6472 C   0  0  0  0  0  0  0  0  0  0  0  0
    6.6829    5.0118   17.0767 O   0  0  0  0  0  0  0  0  0  0  0  0
    4.4595    4.3719   20.1069 N   0  0  0  0  0  0  0  0  0  0  0  0
    4.5029    3.8576   21.3238 C   0  0  0  0  0  0  0  0  0  0  0  0
    4.8479    4.4714   22.5000 C   0  0  0  0  0  0  0  0  0  0  0  0
    4.8194    3.7208   23.6689 C   0  0  0  0  0  0  0  0  0  0  0  0
    4.4551    2.3990   23.6454 C   0  0  0  0  0  0  0  0  0  0  0  0
    4.1022    1.7694   22.4457 C   0  0  0  0  0  0  0  0  0  0  0  0
    4.1336    2.5160   21.3037 C   0  0  0  0  0  0  0  0  0  0  0  0
    3.8566    2.2273   19.9867 C   0  0  0  0  0  0  0  0  0  0  0  0
    3.4584    1.0822   19.3213 C   0  0  0  0  0  0  0  0  0  0  0  0
    3.1479   -0.2779   19.7233 C   0  0  0  0  0  0  0  0  0  0  0  0
    3.1592   -0.8110   20.8340 O   0  0  0  0  0  0  0  0  0  0  0  0
    2.7878   -1.0018   18.5425 N   0  0  0  0  0  0  0  0  0  0  0  0
    2.8632   -0.1503   17.3802 C   0  0  0  0  0  0  0  0  0  0  0  0
    3.2860    1.1518   17.9514 C   0  0  0  0  0  0  0  0  0  0  0  0
    3.4984    2.3249   17.2356 C   0  0  0  0  0  0  0  0  0  0  0  0
    3.4300    2.6802   15.9253 C   0  0  0  0  0  0  0  0  0  0  0  0
    3.1017    1.9330   14.8177 C   0  0  0  0  0  0  0  0  0  0  0  0
    3.1267    2.5400   13.5585 C   0  0  0  0  0  0  0  0  0  0  0  0
    3.4821    3.8740   13.4712 C   0  0  0  0  0  0  0  0  0  0  0  0
    3.8083    4.6044   14.6007 C   0  0  0  0  0  0  0  0  0  0  0  0
    3.7891    4.0283   15.8481 C   0  0  0  0  0  0  0  0  0  0  0  0
    4.0722    4.5058   17.0897 N   0  0  0  0  0  0  0  0  0  0  0  0
    3.8861    3.4262   17.9217 C   0  0  0  0  0  0  0  0  0  0  0  0
    4.0693    3.3954   19.2868 C   0  0  0  0  0  0  0  0  0  0  0  0
    7.5820    5.3729   16.8864 H   0  0  0  0  0  0  0  0  0  0  0  0
    2.5013   -2.0164   18.4857 H   0  0  0  0  0  0  0  0  0  0  0  0
    6.4575    7.3368   17.1924 C   0  0  0  0  0  0  0  0  0  0  0  0
    6.4992    8.1972   18.2900 O   0  0  0  0  0  0  0  0  0  0  0  0
    5.8239    8.9202   18.2341 H   0  0  0  0  0  0  0  0  0  0  0  0
  2  1  1  0  0  0
  2  3  1  0  0  0
  3  4  1  0  0  0
  4  5  1  0  0  0
  5  6  1  0  0  0
  6  7  1  0  0  0
  6 34  1  0  0  0
 34 35  1  0  0  0
  4  8  1  0  0  0
  8  9  1  0  0  0
  9 10  2  0  0  0
 10 11  1  0  0  0
 11 12  2  0  0  0
 12 13  1  0  0  0
 13 14  2  0  0  0
 14 15  1  0  0  0
 15 16  2  0  0  0
 16 17  1  0  0  0
 17 18  2  0  0  0
 17 19  1  0  0  0
 19 20  1  0  0  0
 20 21  1  0  0  0
 21 22  2  0  0  0
 22 23  1  0  0  0
 23 24  2  0  0  0
 24 25  1  0  0  0
 25 26  2  0  0  0
 26 27  1  0  0  0
 27 28  2  0  0  0
 28 29  1  0  0  0
 29 30  1  0  0  0
 30 31  2  0  0  0
  6  2  1  0  0  0
 31  8  1  0  0  0
 29  2  1  0  0  0
 14  9  1  0  0  0
 31 15  1  0  0  0
 21 16  1  0  0  0
 30 22  1  0  0  0
 28 23  1  0  0  0
  7 32  1  0  0  0
 35 36  1  0  0  0
 19 33  1  0  0  0
M  END
> <minimizedAffinity>
-11.07724

> <CNNscore>
0.4804911315

> <CNNaffinity>
6.3549666405

> <CNN_VS>
3.0535051823

> <CNNaffinity_variance>
0.1183441058

$$$$
[H]OC([H])([H])[C@@]1(O[H])C([H])([H])[C@@]2([H])O[C@]1(C([H])([H])[H])n1c3c([H])c([H])c([H])c([H])c3c3c4c(c5c6c([H])c([H])c([H])c([H])c6n2c5c31)C(=O)N([H])C4([H])[H]


 36 43  0  0  0  0  0  0  0  0999 V2000
    2.6394    0.0417    9.5228 C   0  0  0  0  0  0  0  0  0  0  0  0
    2.3278    1.4990    9.5415 C   0  0  0  0  0  0  0  0  0  0  0  0
    1.5702    1.5813   10.7425 O   0  0  0  0  0  0  0  0  0  0  0  0
    0.6672    2.5841   10.6473 C   0  0  0  0  0  0  0  0  0  0  0  0
    0.2518    2.6731    9.2412 C   0  0  0  0  0  0  0  0  0  0  0  0
    1.3402    1.9308    8.4981 C   0  0  0  0  0  0  0  0  0  0  0  0
    1.8731    2.8228    7.5796 O   0  0  0  0  0  0  0  0  0  0  0  0
    1.2159    3.8306   11.1973 N   0  0  0  0  0  0  0  0  0  0  0  0
    0.6132    4.7660   11.9109 C   0  0  0  0  0  0  0  0  0  0  0  0
   -0.6929    4.8183   12.3236 C   0  0  0  0  0  0  0  0  0  0  0  0
   -1.1046    5.9135   13.0731 C   0  0  0  0  0  0  0  0  0  0  0  0
   -0.2252    6.9164   13.3916 C   0  0  0  0  0  0  0  0  0  0  0  0
    1.1094    6.8656   12.9715 C   0  0  0  0  0  0  0  0  0  0  0  0
    1.5029    5.7856   12.2359 C   0  0  0  0  0  0  0  0  0  0  0  0
    2.7055    5.4215   11.6740 C   0  0  0  0  0  0  0  0  0  0  0  0
    3.9569    6.0084   11.6278 C   0  0  0  0  0  0  0  0  0  0  0  0
    4.5333    7.2298   12.1604 C   0  0  0  0  0  0  0  0  0  0  0  0
    4.0303    8.1288   12.8363 O   0  0  0  0  0  0  0  0  0  0  0  0
    5.9069    7.2650   11.7605 N   0  0  0  0  0  0  0  0  0  0  0  0
    6.2384    6.1016   10.9743 C   0  0  0  0  0  0  0  0  0  0  0  0
    4.9594    5.3510   10.9393 C   0  0  0  0  0  0  0  0  0  0  0  0
    4.7465    4.1335   10.3021 C   0  0  0  0  0  0  0  0  0  0  0  0
    5.5083    3.2893    9.5573 C   0  0  0  0  0  0  0  0  0  0  0  0
    6.8270    3.3838    9.1767 C   0  0  0  0  0  0  0  0  0  0  0  0
    7.3770    2.3750    8.3803 C   0  0  0  0  0  0  0  0  0  0  0  0
    6.5728    1.3149    8.0020 C   0  0  0  0  0  0  0  0  0  0  0  0
    5.2485    1.2428    8.3979 C   0  0  0  0  0  0  0  0  0  0  0  0
    4.6880    2.2224    9.1817 C   0  0  0  0  0  0  0  0  0  0  0  0
    3.4376    2.3969    9.6874 N   0  0  0  0  0  0  0  0  0  0  0  0
    3.5085    3.5889   10.3706 C   0  0  0  0  0  0  0  0  0  0  0  0
    2.4840    4.2146   11.0463 C   0  0  0  0  0  0  0  0  0  0  0  0
    1.3673    2.7362    6.7360 H   0  0  0  0  0  0  0  0  0  0  0  0
    6.6122    8.0173   11.9870 H   0  0  0  0  0  0  0  0  0  0  0  0
    0.7105    0.8013    7.7557 C   0  0  0  0  0  0  0  0  0  0  0  0
   -0.6754    0.9306    7.8526 O   0  0  0  0  0  0  0  0  0  0  0  0
   -1.0843    0.2355    8.4285 H   0  0  0  0  0  0  0  0  0  0  0  0
  2  1  1  0  0  0
  2  3  1  0  0  0
  3  4  1  0  0  0
  4  5  1  0  0  0
  5  6  1  0  0  0
  6  7  1  0  0  0
  6 34  1  0  0  0
 34 35  1  0  0  0
  4  8  1  0  0  0
  8  9  1  0  0  0
  9 10  2  0  0  0
 10 11  1  0  0  0
 11 12  2  0  0  0
 12 13  1  0  0  0
 13 14  2  0  0  0
 14 15  1  0  0  0
 15 16  2  0  0  0
 16 17  1  0  0  0
 17 18  2  0  0  0
 17 19  1  0  0  0
 19 20  1  0  0  0
 20 21  1  0  0  0
 21 22  2  0  0  0
 22 23  1  0  0  0
 23 24  2  0  0  0
 24 25  1  0  0  0
 25 26  2  0  0  0
 26 27  1  0  0  0
 27 28  2  0  0  0
 28 29  1  0  0  0
 29 30  1  0  0  0
 30 31  2  0  0  0
  6  2  1  0  0  0
 31  8  1  0  0  0
 29  2  1  0  0  0
 14  9  1  0  0  0
 31 15  1  0  0  0
 21 16  1  0  0  0
 30 22  1  0  0  0
 28 23  1  0  0  0
  7 32  1  0  0  0
 35 36  1  0  0  0
 19 33  1  0  0  0
M  END
> <minimizedAffinity>
-6.64304

> <CNNscore>
0.4556498230

> <CNNaffinity>
5.2596993446

> <CNN_VS>
2.3965811729

> <CNNaffinity_variance>
0.1636712104

$$$$
[H]OC([H])([H])[C@@]1(O[H])C([H])([H])[C@@]2([H])O[C@]1(C([H])([H])[H])n1c3c([H])c([H])c([H])c([H])c3c3c4c(c5c6c([H])c([H])c([H])c([H])c6n2c5c31)C(=O)N([H])C4([H])[H]


 36 43  0  0  0  0  0  0  0  0999 V2000
    4.7705    6.9780   12.4147 C   0  0  0  0  0  0  0  0  0  0  0  0
    4.5211    6.1463   11.2034 C   0  0  0  0  0  0  0  0  0  0  0  0
    5.4159    5.0679   11.4472 O   0  0  0  0  0  0  0  0  0  0  0  0
    5.8487    4.5563   10.2721 C   0  0  0  0  0  0  0  0  0  0  0  0
    5.9165    5.6616    9.3070 C   0  0  0  0  0  0  0  0  0  0  0  0
    5.0541    6.7361    9.9312 C   0  0  0  0  0  0  0  0  0  0  0  0
    4.0607    7.0328    9.0101 O   0  0  0  0  0  0  0  0  0  0  0  0
    4.9998    3.4345    9.8502 N   0  0  0  0  0  0  0  0  0  0  0  0
    5.3438    2.2988    9.2677 C   0  0  0  0  0  0  0  0  0  0  0  0
    6.5928    1.8706    8.8992 C   0  0  0  0  0  0  0  0  0  0  0  0
    6.7116    0.6250    8.2950 C   0  0  0  0  0  0  0  0  0  0  0  0
    5.6061   -0.1556    8.0733 C   0  0  0  0  0  0  0  0  0  0  0  0
    4.3293    0.2791    8.4486 C   0  0  0  0  0  0  0  0  0  0  0  0
    4.2242    1.5039    9.0412 C   0  0  0  0  0  0  0  0  0  0  0  0
    3.1547    2.2239    9.5231 C   0  0  0  0  0  0  0  0  0  0  0  0
    1.7924    1.9921    9.5793 C   0  0  0  0  0  0  0  0  0  0  0  0
    0.9241    0.8997    9.1786 C   0  0  0  0  0  0  0  0  0  0  0  0
    1.1835   -0.1803    8.6453 O   0  0  0  0  0  0  0  0  0  0  0  0
   -0.4159    1.2719    9.5161 N   0  0  0  0  0  0  0  0  0  0  0  0
   -0.4440    2.5822   10.1193 C   0  0  0  0  0  0  0  0  0  0  0  0
    0.9876    2.9707   10.1324 C   0  0  0  0  0  0  0  0  0  0  0  0
    1.5036    4.1635   10.6270 C   0  0  0  0  0  0  0  0  0  0  0  0
    0.9753    5.2817   11.1911 C   0  0  0  0  0  0  0  0  0  0  0  0
   -0.3329    5.6028   11.4714 C   0  0  0  0  0  0  0  0  0  0  0  0
   -0.6183    6.8457   12.0441 C   0  0  0  0  0  0  0  0  0  0  0  0
    0.4280    7.7110   12.3090 C   0  0  0  0  0  0  0  0  0  0  0  0
    1.7359    7.3645   12.0176 C   0  0  0  0  0  0  0  0  0  0  0  0
    2.0393    6.1477   11.4557 C   0  0  0  0  0  0  0  0  0  0  0  0
    3.2109    5.5771   11.0670 N   0  0  0  0  0  0  0  0  0  0  0  0
    2.8425    4.3540   10.5563 C   0  0  0  0  0  0  0  0  0  0  0  0
    3.6764    3.4025   10.0111 C   0  0  0  0  0  0  0  0  0  0  0  0
    4.3861    7.7621    8.4295 H   0  0  0  0  0  0  0  0  0  0  0  0
   -1.2891    0.6985    9.3625 H   0  0  0  0  0  0  0  0  0  0  0  0
    5.8958    7.9505   10.1325 C   0  0  0  0  0  0  0  0  0  0  0  0
    5.6223    8.8501    9.1017 O   0  0  0  0  0  0  0  0  0  0  0  0
    6.3753    8.9404    8.4640 H   0  0  0  0  0  0  0  0  0  0  0  0
  2  1  1  0  0  0
  2  3  1  0  0  0
  3  4  1  0  0  0
  4  5  1  0  0  0
  5  6  1  0  0  0
  6  7  1  0  0  0
  6 34  1  0  0  0
 34 35  1  0  0  0
  4  8  1  0  0  0
  8  9  1  0  0  0
  9 10  2  0  0  0
 10 11  1  0  0  0
 11 12  2  0  0  0
 12 13  1  0  0  0
 13 14  2  0  0  0
 14 15  1  0  0  0
 15 16  2  0  0  0
 16 17  1  0  0  0
 17 18  2  0  0  0
 17 19  1  0  0  0
 19 20  1  0  0  0
 20 21  1  0  0  0
 21 22  2  0  0  0
 22 23  1  0  0  0
 23 24  2  0  0  0
 24 25  1  0  0  0
 25 26  2  0  0  0
 26 27  1  0  0  0
 27 28  2  0  0  0
 28 29  1  0  0  0
 29 30  1  0  0  0
 30 31  2  0  0  0
  6  2  1  0  0  0
 31  8  1  0  0  0
 29  2  1  0  0  0
 14  9  1  0  0  0
 31 15  1  0  0  0
 21 16  1  0  0  0
 30 22  1  0  0  0
 28 23  1  0  0  0
  7 32  1  0  0  0
 35 36  1  0  0  0
 19 33  1  0  0  0
M  END
> <minimizedAffinity>
-6.25463

> <CNNscore>
0.4369302094

> <CNNaffinity>
5.3083982468

> <CNN_VS>
2.3193995953

> <CNNaffinity_variance>
0.2469727546

$$$$
[H]OC([H])([H])[C@@]1(O[H])C([H])([H])[C@@]2([H])O[C@]1(C([H])([H])[H])n1c3c([H])c([H])c([H])c([H])c3c3c4c(c5c6c([H])c([H])c([H])c([H])c6n2c5c31)C(=O)N([H])C4([H])[H]


 36 43  0  0  0  0  0  0  0  0999 V2000
    4.0925    8.6003   19.2022 C   0  0  0  0  0  0  0  0  0  0  0  0
    4.6733    7.2324   19.0896 C   0  0  0  0  0  0  0  0  0  0  0  0
    4.0122    6.5861   20.1705 O   0  0  0  0  0  0  0  0  0  0  0  0
    4.8003    5.6068   20.6705 C   0  0  0  0  0  0  0  0  0  0  0  0
    6.1952    6.0414   20.5193 C   0  0  0  0  0  0  0  0  0  0  0  0
    6.1176    7.1424   19.4850 C   0  0  0  0  0  0  0  0  0  0  0  0
    6.9462    6.7639   18.4393 O   0  0  0  0  0  0  0  0  0  0  0  0
    4.4943    4.3187   20.0346 N   0  0  0  0  0  0  0  0  0  0  0  0
    4.4484    3.1115   20.5711 C   0  0  0  0  0  0  0  0  0  0  0  0
    4.6802    2.7441   21.8712 C   0  0  0  0  0  0  0  0  0  0  0  0
    4.5722    1.3999   22.2061 C   0  0  0  0  0  0  0  0  0  0  0  0
    4.2418    0.4650   21.2588 C   0  0  0  0  0  0  0  0  0  0  0  0
    4.0045    0.8374   19.9302 C   0  0  0  0  0  0  0  0  0  0  0  0
    4.1133    2.1601   19.6124 C   0  0  0  0  0  0  0  0  0  0  0  0
    3.9533    2.8584   18.4371 C   0  0  0  0  0  0  0  0  0  0  0  0
    3.6383    2.4917   17.1413 C   0  0  0  0  0  0  0  0  0  0  0  0
    3.3272    1.2366   16.4812 C   0  0  0  0  0  0  0  0  0  0  0  0
    3.2586    0.0894   16.9252 O   0  0  0  0  0  0  0  0  0  0  0  0
    3.0832    1.5275   15.1014 N   0  0  0  0  0  0  0  0  0  0  0  0
    3.2351    2.9389   14.8438 C   0  0  0  0  0  0  0  0  0  0  0  0
    3.5787    3.4836   16.1801 C   0  0  0  0  0  0  0  0  0  0  0  0
    3.8226    4.8200   16.4770 C   0  0  0  0  0  0  0  0  0  0  0  0
    3.8550    5.9757   15.7622 C   0  0  0  0  0  0  0  0  0  0  0  0
    3.6372    6.1984   14.4221 C   0  0  0  0  0  0  0  0  0  0  0  0
    3.7525    7.4993   13.9233 C   0  0  0  0  0  0  0  0  0  0  0  0
    4.0829    8.5190   14.7977 C   0  0  0  0  0  0  0  0  0  0  0  0
    4.2972    8.2692   16.1421 C   0  0  0  0  0  0  0  0  0  0  0  0
    4.1879    6.9986   16.6539 C   0  0  0  0  0  0  0  0  0  0  0  0
    4.3558    6.4894   17.9037 N   0  0  0  0  0  0  0  0  0  0  0  0
    4.1263    5.1410   17.7571 C   0  0  0  0  0  0  0  0  0  0  0  0
    4.1963    4.1803   18.7421 C   0  0  0  0  0  0  0  0  0  0  0  0
    7.8494    7.1215   18.6162 H   0  0  0  0  0  0  0  0  0  0  0  0
    2.8260    0.8366   14.3456 H   0  0  0  0  0  0  0  0  0  0  0  0
    6.6581    8.3919   20.0934 C   0  0  0  0  0  0  0  0  0  0  0  0
    7.1555    8.0841   21.3601 O   0  0  0  0  0  0  0  0  0  0  0  0
    6.6010    8.4609   22.0898 H   0  0  0  0  0  0  0  0  0  0  0  0
  2  1  1  0  0  0
  2  3  1  0  0  0
  3  4  1  0  0  0
  4  5  1  0  0  0
  5  6  1  0  0  0
  6  7  1  0  0  0
  6 34  1  0  0  0
 34 35  1  0  0  0
  4  8  1  0  0  0
  8  9  1  0  0  0
  9 10  2  0  0  0
 10 11  1  0  0  0
 11 12  2  0  0  0
 12 13  1  0  0  0
 13 14  2  0  0  0
 14 15  1  0  0  0
 15 16  2  0  0  0
 16 17  1  0  0  0
 17 18  2  0  0  0
 17 19  1  0  0  0
 19 20  1  0  0  0
 20 21  1  0  0  0
 21 22  2  0  0  0
 22 23  1  0  0  0
 23 24  2  0  0  0
 24 25  1  0  0  0
 25 26  2  0  0  0
 26 27  1  0  0  0
 27 28  2  0  0  0
 28 29  1  0  0  0
 29 30  1  0  0  0
 30 31  2  0  0  0
  6  2  1  0  0  0
 31  8  1  0  0  0
 29  2  1  0  0  0
 14  9  1  0  0  0
 31 15  1  0  0  0
 21 16  1  0  0  0
 30 22  1  0  0  0
 28 23  1  0  0  0
  7 32  1  0  0  0
 35 36  1  0  0  0
 19 33  1  0  0  0
M  END
> <minimizedAffinity>
-10.82824

> <CNNscore>
0.3936671019

> <CNNaffinity>
5.9856858253

> <CNN_VS>
2.3563675880

> <CNNaffinity_variance>
0.3105178475

$$$$
[H]OC([H])([H])[C@@]1(O[H])C([H])([H])[C@@]2([H])O[C@]1(C([H])([H])[H])n1c3c([H])c([H])c([H])c([H])c3c3c4c(c5c6c([H])c([H])c([H])c([H])c6n2c5c31)C(=O)N([H])C4([H])[H]


 36 43  0  0  0  0  0  0  0  0999 V2000
    1.1113    7.3321    4.7076 C   0  0  0  0  0  0  0  0  0  0  0  0
    0.7073    7.6533    6.1057 C   0  0  0  0  0  0  0  0  0  0  0  0
    0.0363    6.4499    6.4589 O   0  0  0  0  0  0  0  0  0  0  0  0
   -0.9349    6.7146    7.3626 C   0  0  0  0  0  0  0  0  0  0  0  0
   -1.4576    8.0558    7.0700 C   0  0  0  0  0  0  0  0  0  0  0  0
   -0.3805    8.6809    6.2115 C   0  0  0  0  0  0  0  0  0  0  0  0
    0.0239    9.8373    6.8615 O   0  0  0  0  0  0  0  0  0  0  0  0
   -0.4301    6.5461    8.7315 N   0  0  0  0  0  0  0  0  0  0  0  0
   -1.0385    6.0407    9.7907 C   0  0  0  0  0  0  0  0  0  0  0  0
   -2.3114    5.5415    9.8886 C   0  0  0  0  0  0  0  0  0  0  0  0
   -2.7376    5.0583   11.1197 C   0  0  0  0  0  0  0  0  0  0  0  0
   -1.9048    5.0808   12.2089 C   0  0  0  0  0  0  0  0  0  0  0  0
   -0.6042    5.5900   12.1118 C   0  0  0  0  0  0  0  0  0  0  0  0
   -0.1960    6.0619   10.8981 C   0  0  0  0  0  0  0  0  0  0  0  0
    0.9832    6.6175   10.4562 C   0  0  0  0  0  0  0  0  0  0  0  0
    2.1868    6.9194   11.0669 C   0  0  0  0  0  0  0  0  0  0  0  0
    2.7196    6.7638   12.4085 C   0  0  0  0  0  0  0  0  0  0  0  0
    2.2099    6.2943   13.4272 O   0  0  0  0  0  0  0  0  0  0  0  0
    4.0548    7.2787   12.4013 N   0  0  0  0  0  0  0  0  0  0  0  0
    4.4031    7.7730   11.0914 C   0  0  0  0  0  0  0  0  0  0  0  0
    3.1768    7.5057   10.3005 C   0  0  0  0  0  0  0  0  0  0  0  0
    2.9978    7.7950    8.9523 C   0  0  0  0  0  0  0  0  0  0  0  0
    3.7563    8.3674    7.9803 C   0  0  0  0  0  0  0  0  0  0  0  0
    5.0345    8.8737    8.0329 C   0  0  0  0  0  0  0  0  0  0  0  0
    5.5893    9.4359    6.8794 C   0  0  0  0  0  0  0  0  0  0  0  0
    4.8305    9.4634    5.7230 C   0  0  0  0  0  0  0  0  0  0  0  0
    3.5465    8.9474    5.6957 C   0  0  0  0  0  0  0  0  0  0  0  0
    2.9822    8.3891    6.8173 C   0  0  0  0  0  0  0  0  0  0  0  0
    1.7637    7.8358    7.0596 N   0  0  0  0  0  0  0  0  0  0  0  0
    1.8065    7.4834    8.3887 C   0  0  0  0  0  0  0  0  0  0  0  0
    0.7956    6.8995    9.1202 C   0  0  0  0  0  0  0  0  0  0  0  0
   -0.5358   10.5842    6.5393 H   0  0  0  0  0  0  0  0  0  0  0  0
    4.7242    7.3115   13.2172 H   0  0  0  0  0  0  0  0  0  0  0  0
   -0.9878    9.0571    4.9026 C   0  0  0  0  0  0  0  0  0  0  0  0
   -2.3398    8.7131    4.9308 O   0  0  0  0  0  0  0  0  0  0  0  0
   -2.5511    7.9471    4.3388 H   0  0  0  0  0  0  0  0  0  0  0  0
  2  1  1  0  0  0
  2  3  1  0  0  0
  3  4  1  0  0  0
  4  5  1  0  0  0
  5  6  1  0  0  0
  6  7  1  0  0  0
  6 34  1  0  0  0
 34 35  1  0  0  0
  4  8  1  0  0  0
  8  9  1  0  0  0
  9 10  2  0  0  0
 10 11  1  0  0  0
 11 12  2  0  0  0
 12 13  1  0  0  0
 13 14  2  0  0  0
 14 15  1  0  0  0
 15 16  2  0  0  0
 16 17  1  0  0  0
 17 18  2  0  0  0
 17 19  1  0  0  0
 19 20  1  0  0  0
 20 21  1  0  0  0
 21 22  2  0  0  0
 22 23  1  0  0  0
 23 24  2  0  0  0
 24 25  1  0  0  0
 25 26  2  0  0  0
 26 27  1  0  0  0
 27 28  2  0  0  0
 28 29  1  0  0  0
 29 30  1  0  0  0
 30 31  2  0  0  0
  6  2  1  0  0  0
 31  8  1  0  0  0
 29  2  1  0  0  0
 14  9  1  0  0  0
 31 15  1  0  0  0
 21 16  1  0  0  0
 30 22  1  0  0  0
 28 23  1  0  0  0
  7 32  1  0  0  0
 35 36  1  0  0  0
 19 33  1  0  0  0
M  END
> <minimizedAffinity>
-7.16882

> <CNNscore>
0.3910136521

> <CNNaffinity>
5.0092048645

> <CNN_VS>
1.9586675167

> <CNNaffinity_variance>
0.6244727969

$$$$
[H]OC([H])([H])[C@@]1(O[H])C([H])([H])[C@@]2([H])O[C@]1(C([H])([H])[H])n1c3c([H])c([H])c([H])c([H])c3c3c4c(c5c6c([H])c([H])c([H])c([H])c6n2c5c31)C(=O)N([H])C4([H])[H]


 36 43  0  0  0  0  0  0  0  0999 V2000
    4.5458    4.7878   11.2423 C   0  0  0  0  0  0  0  0  0  0  0  0
    4.1063    5.9137   10.3703 C   0  0  0  0  0  0  0  0  0  0  0  0
    4.6495    5.4964    9.1238 O   0  0  0  0  0  0  0  0  0  0  0  0
    4.9538    6.5783    8.3708 C   0  0  0  0  0  0  0  0  0  0  0  0
    5.3622    7.6527    9.2853 C   0  0  0  0  0  0  0  0  0  0  0  0
    4.8230    7.2065   10.6263 C   0  0  0  0  0  0  0  0  0  0  0  0
    3.9832    8.2160   11.0723 O   0  0  0  0  0  0  0  0  0  0  0  0
    3.8337    6.9274    7.4872 N   0  0  0  0  0  0  0  0  0  0  0  0
    3.8575    7.3584    6.2378 C   0  0  0  0  0  0  0  0  0  0  0  0
    4.9434    7.5974    5.4361 C   0  0  0  0  0  0  0  0  0  0  0  0
    4.7207    8.0523    4.1422 C   0  0  0  0  0  0  0  0  0  0  0  0
    3.4460    8.2566    3.6798 C   0  0  0  0  0  0  0  0  0  0  0  0
    2.3350    8.0134    4.4964 C   0  0  0  0  0  0  0  0  0  0  0  0
    2.5652    7.5669    5.7653 C   0  0  0  0  0  0  0  0  0  0  0  0
    1.7309    7.2361    6.8088 C   0  0  0  0  0  0  0  0  0  0  0  0
    0.3580    7.2416    6.9751 C   0  0  0  0  0  0  0  0  0  0  0  0
   -0.7730    7.5741    6.1276 C   0  0  0  0  0  0  0  0  0  0  0  0
   -0.8158    7.9678    4.9610 O   0  0  0  0  0  0  0  0  0  0  0  0
   -1.9610    7.3656    6.8977 N   0  0  0  0  0  0  0  0  0  0  0  0
   -1.6330    6.9131    8.2278 C   0  0  0  0  0  0  0  0  0  0  0  0
   -0.1511    6.8517    8.1999 C   0  0  0  0  0  0  0  0  0  0  0  0
    0.6680    6.4595    9.2529 C   0  0  0  0  0  0  0  0  0  0  0  0
    0.4631    6.0564   10.5349 C   0  0  0  0  0  0  0  0  0  0  0  0
   -0.7073    5.8970   11.2402 C   0  0  0  0  0  0  0  0  0  0  0  0
   -0.6442    5.4836   12.5743 C   0  0  0  0  0  0  0  0  0  0  0  0
    0.5967    5.2495   13.1390 C   0  0  0  0  0  0  0  0  0  0  0  0
    1.7601    5.4172   12.4082 C   0  0  0  0  0  0  0  0  0  0  0  0
    1.7212    5.8215   11.0954 C   0  0  0  0  0  0  0  0  0  0  0  0
    2.6930    6.0698   10.1770 N   0  0  0  0  0  0  0  0  0  0  0  0
    2.0072    6.4653    9.0520 C   0  0  0  0  0  0  0  0  0  0  0  0
    2.5517    6.8485    7.8460 C   0  0  0  0  0  0  0  0  0  0  0  0
    4.5199    8.8514   11.6044 H   0  0  0  0  0  0  0  0  0  0  0  0
   -2.9563    7.5105    6.5763 H   0  0  0  0  0  0  0  0  0  0  0  0
    5.9691    7.0868   11.5727 C   0  0  0  0  0  0  0  0  0  0  0  0
    5.7208    7.9125   12.6697 O   0  0  0  0  0  0  0  0  0  0  0  0
    6.3184    8.7025   12.6958 H   0  0  0  0  0  0  0  0  0  0  0  0
  2  1  1  0  0  0
  2  3  1  0  0  0
  3  4  1  0  0  0
  4  5  1  0  0  0
  5  6  1  0  0  0
  6  7  1  0  0  0
  6 34  1  0  0  0
 34 35  1  0  0  0
  4  8  1  0  0  0
  8  9  1  0  0  0
  9 10  2  0  0  0
 10 11  1  0  0  0
 11 12  2  0  0  0
 12 13  1  0  0  0
 13 14  2  0  0  0
 14 15  1  0  0  0
 15 16  2  0  0  0
 16 17  1  0  0  0
 17 18  2  0  0  0
 17 19  1  0  0  0
 19 20  1  0  0  0
 20 21  1  0  0  0
 21 22  2  0  0  0
 22 23  1  0  0  0
 23 24  2  0  0  0
 24 25  1  0  0  0
 25 26  2  0  0  0
 26 27  1  0  0  0
 27 28  2  0  0  0
 28 29  1  0  0  0
 29 30  1  0  0  0
 30 31  2  0  0  0
  6  2  1  0  0  0
 31  8  1  0  0  0
 29  2  1  0  0  0
 14  9  1  0  0  0
 31 15  1  0  0  0
 21 16  1  0  0  0
 30 22  1  0  0  0
 28 23  1  0  0  0
  7 32  1  0  0  0
 35 36  1  0  0  0
 19 33  1  0  0  0
M  END
> <minimizedAffinity>
-5.94127

> <CNNscore>
0.3646771908

> <CNNaffinity>
5.2120161057

> <CNN_VS>
1.9007034302

> <CNNaffinity_variance>
0.1994161159

$$$$
[H]OC([H])([H])[C@@]1(O[H])C([H])([H])[C@@]2([H])O[C@]1(C([H])([H])[H])n1c3c([H])c([H])c([H])c([H])c3c3c4c(c5c6c([H])c([H])c([H])c([H])c6n2c5c31)C(=O)N([H])C4([H])[H]


 36 43  0  0  0  0  0  0  0  0999 V2000
    5.8342   -0.0204    7.9139 C   0  0  0  0  0  0  0  0  0  0  0  0
    5.0202    1.1829    8.2466 C   0  0  0  0  0  0  0  0  0  0  0  0
    4.4238    0.7569    9.4655 O   0  0  0  0  0  0  0  0  0  0  0  0
    3.2144    1.3445    9.6143 C   0  0  0  0  0  0  0  0  0  0  0  0
    2.6403    1.5202    8.2737 C   0  0  0  0  0  0  0  0  0  0  0  0
    3.8331    1.3893    7.3528 C   0  0  0  0  0  0  0  0  0  0  0  0
    3.9003    2.5653    6.6208 O   0  0  0  0  0  0  0  0  0  0  0  0
    3.3322    2.5857   10.3906 N   0  0  0  0  0  0  0  0  0  0  0  0
    2.5157    3.0807   11.3048 C   0  0  0  0  0  0  0  0  0  0  0  0
    1.3343    2.5616   11.7673 C   0  0  0  0  0  0  0  0  0  0  0  0
    0.6406    3.2673   12.7427 C   0  0  0  0  0  0  0  0  0  0  0  0
    1.1268    4.4534   13.2300 C   0  0  0  0  0  0  0  0  0  0  0  0
    2.3332    4.9859   12.7595 C   0  0  0  0  0  0  0  0  0  0  0  0
    3.0061    4.2846   11.8015 C   0  0  0  0  0  0  0  0  0  0  0  0
    4.1879    4.5080   11.1322 C   0  0  0  0  0  0  0  0  0  0  0  0
    5.1282    5.5216   11.1628 C   0  0  0  0  0  0  0  0  0  0  0  0
    5.2788    6.7537   11.9159 C   0  0  0  0  0  0  0  0  0  0  0  0
    4.5635    7.2599   12.7820 O   0  0  0  0  0  0  0  0  0  0  0  0
    6.4924    7.3754   11.4816 N   0  0  0  0  0  0  0  0  0  0  0  0
    7.1325    6.5840   10.4591 C   0  0  0  0  0  0  0  0  0  0  0  0
    6.2169    5.4257   10.3161 C   0  0  0  0  0  0  0  0  0  0  0  0
    6.3894    4.3531    9.4481 C   0  0  0  0  0  0  0  0  0  0  0  0
    7.3167    4.0066    8.5166 C   0  0  0  0  0  0  0  0  0  0  0  0
    8.4602    4.6582    8.1155 C   0  0  0  0  0  0  0  0  0  0  0  0
    9.2453    4.0915    7.1070 C   0  0  0  0  0  0  0  0  0  0  0  0
    8.8427    2.8926    6.5466 C   0  0  0  0  0  0  0  0  0  0  0  0
    7.6877    2.2565    6.9676 C   0  0  0  0  0  0  0  0  0  0  0  0
    6.9019    2.7950    7.9580 C   0  0  0  0  0  0  0  0  0  0  0  0
    5.7384    2.3913    8.5347 N   0  0  0  0  0  0  0  0  0  0  0  0
    5.4488    3.3789    9.4476 C   0  0  0  0  0  0  0  0  0  0  0  0
    4.3497    3.4401   10.2760 C   0  0  0  0  0  0  0  0  0  0  0  0
    3.3692    2.4466    5.7968 H   0  0  0  0  0  0  0  0  0  0  0  0
    6.8980    8.2846   11.8333 H   0  0  0  0  0  0  0  0  0  0  0  0
    3.5763    0.2582    6.4157 C   0  0  0  0  0  0  0  0  0  0  0  0
    2.2509   -0.1490    6.5717 O   0  0  0  0  0  0  0  0  0  0  0  0
    2.1727   -1.0357    7.0071 H   0  0  0  0  0  0  0  0  0  0  0  0
  2  1  1  0  0  0
  2  3  1  0  0  0
  3  4  1  0  0  0
  4  5  1  0  0  0
  5  6  1  0  0  0
  6  7  1  0  0  0
  6 34  1  0  0  0
 34 35  1  0  0  0
  4  8  1  0  0  0
  8  9  1  0  0  0
  9 10  2  0  0  0
 10 11  1  0  0  0
 11 12  2  0  0  0
 12 13  1  0  0  0
 13 14  2  0  0  0
 14 15  1  0  0  0
 15 16  2  0  0  0
 16 17  1  0  0  0
 17 18  2  0  0  0
 17 19  1  0  0  0
 19 20  1  0  0  0
 20 21  1  0  0  0
 21 22  2  0  0  0
 22 23  1  0  0  0
 23 24  2  0  0  0
 24 25  1  0  0  0
 25 26  2  0  0  0
 26 27  1  0  0  0
 27 28  2  0  0  0
 28 29  1  0  0  0
 29 30  1  0  0  0
 30 31  2  0  0  0
  6  2  1  0  0  0
 31  8  1  0  0  0
 29  2  1  0  0  0
 14  9  1  0  0  0
 31 15  1  0  0  0
 21 16  1  0  0  0
 30 22  1  0  0  0
 28 23  1  0  0  0
  7 32  1  0  0  0
 35 36  1  0  0  0
 19 33  1  0  0  0
M  END
> <minimizedAffinity>
-5.94469

> <CNNscore>
0.3505046666

> <CNNaffinity>
5.0939383507

> <CNN_VS>
1.7854491472

> <CNNaffinity_variance>
0.5511047244

$$$$
[H]OC([H])([H])[C@@]1(O[H])C([H])([H])[C@@]2([H])O[C@]1(C([H])([H])[H])n1c3c([H])c([H])c([H])c([H])c3c3c4c(c5c6c([H])c([H])c([H])c([H])c6n2c5c31)C(=O)N([H])C4([H])[H]


 36 43  0  0  0  0  0  0  0  0999 V2000
    6.9123    6.2527   20.1399 C   0  0  0  0  0  0  0  0  0  0  0  0
    5.6122    6.0517   19.4395 C   0  0  0  0  0  0  0  0  0  0  0  0
    5.9428    6.5406   18.1454 O   0  0  0  0  0  0  0  0  0  0  0  0
    4.8412    7.0591   17.5558 C   0  0  0  0  0  0  0  0  0  0  0  0
    4.0024    7.6351   18.6151 C   0  0  0  0  0  0  0  0  0  0  0  0
    4.5254    6.9880   19.8783 C   0  0  0  0  0  0  0  0  0  0  0  0
    3.4504    6.3379   20.4657 O   0  0  0  0  0  0  0  0  0  0  0  0
    4.1676    6.0463   16.7326 N   0  0  0  0  0  0  0  0  0  0  0  0
    3.5762    6.1819   15.5582 C   0  0  0  0  0  0  0  0  0  0  0  0
    3.4330    7.3137   14.7983 C   0  0  0  0  0  0  0  0  0  0  0  0
    2.7660    7.2128   13.5836 C   0  0  0  0  0  0  0  0  0  0  0  0
    2.2639    6.0103   13.1565 C   0  0  0  0  0  0  0  0  0  0  0  0
    2.4087    4.8526   13.9305 C   0  0  0  0  0  0  0  0  0  0  0  0
    3.0654    4.9632   15.1217 C   0  0  0  0  0  0  0  0  0  0  0  0
    3.3790    4.0552   16.1074 C   0  0  0  0  0  0  0  0  0  0  0  0
    3.1410    2.7031   16.2739 C   0  0  0  0  0  0  0  0  0  0  0  0
    2.4867    1.6756   15.4841 C   0  0  0  0  0  0  0  0  0  0  0  0
    1.9307    1.7366   14.3863 O   0  0  0  0  0  0  0  0  0  0  0  0
    2.5767    0.4498   16.2171 N   0  0  0  0  0  0  0  0  0  0  0  0
    3.2662    0.6537   17.4679 C   0  0  0  0  0  0  0  0  0  0  0  0
    3.5984    2.0989   17.4303 C   0  0  0  0  0  0  0  0  0  0  0  0
    4.2817    2.8037   18.4151 C   0  0  0  0  0  0  0  0  0  0  0  0
    4.8169    2.4946   19.6258 C   0  0  0  0  0  0  0  0  0  0  0  0
    4.8533    1.2968   20.3019 C   0  0  0  0  0  0  0  0  0  0  0  0
    5.4558    1.2477   21.5625 C   0  0  0  0  0  0  0  0  0  0  0  0
    5.9950    2.4088   22.0866 C   0  0  0  0  0  0  0  0  0  0  0  0
    5.9456    3.6018   21.3866 C   0  0  0  0  0  0  0  0  0  0  0  0
    5.3594    3.6725   20.1457 C   0  0  0  0  0  0  0  0  0  0  0  0
    5.1694    4.6971   19.2718 N   0  0  0  0  0  0  0  0  0  0  0  0
    4.4975    4.1257   18.2160 C   0  0  0  0  0  0  0  0  0  0  0  0
    4.0559    4.7629   17.0773 C   0  0  0  0  0  0  0  0  0  0  0  0
    3.0082    6.9687   21.0833 H   0  0  0  0  0  0  0  0  0  0  0  0
    2.2046   -0.4929   15.9207 H   0  0  0  0  0  0  0  0  0  0  0  0
    4.9897    8.0672   20.7967 C   0  0  0  0  0  0  0  0  0  0  0  0
    4.4006    7.8649   22.0452 O   0  0  0  0  0  0  0  0  0  0  0  0
    3.7151    8.5478   22.2590 H   0  0  0  0  0  0  0  0  0  0  0  0
  2  1  1  0  0  0
  2  3  1  0  0  0
  3  4  1  0  0  0
  4  5  1  0  0  0
  5  6  1  0  0  0
  6  7  1  0  0  0
  6 34  1  0  0  0
 34 35  1  0  0  0
  4  8  1  0  0  0
  8  9  1  0  0  0
  9 10  2  0  0  0
 10 11  1  0  0  0
 11 12  2  0  0  0
 12 13  1  0  0  0
 13 14  2  0  0  0
 14 15  1  0  0  0
 15 16  2  0  0  0
 16 17  1  0  0  0
 17 18  2  0  0  0
 17 19  1  0  0  0
 19 20  1  0  0  0
 20 21  1  0  0  0
 21 22  2  0  0  0
 22 23  1  0  0  0
 23 24  2  0  0  0
 24 25  1  0  0  0
 25 26  2  0  0  0
 26 27  1  0  0  0
 27 28  2  0  0  0
 28 29  1  0  0  0
 29 30  1  0  0  0
 30 31  2  0  0  0
  6  2  1  0  0  0
 31  8  1  0  0  0
 29  2  1  0  0  0
 14  9  1  0  0  0
 31 15  1  0  0  0
 21 16  1  0  0  0
 30 22  1  0  0  0
 28 23  1  0  0  0
  7 32  1  0  0  0
 35 36  1  0  0  0
 19 33  1  0  0  0
M  END
> <minimizedAffinity>
-12.20813

> <CNNscore>
0.3114794493

> <CNNaffinity>
6.0264539719

> <CNN_VS>
1.8771165609

> <CNNaffinity_variance>
0.1796424091

$$$$
[H]c1c([H])c([H])c2c(c1[H])c1c3c(c4c5c([H])c([H])c([H])c([H])c5n5c4c1n2[C@@]1(C([H])([H])[H])O[C@]5([H])C([H])([H])[C@]1([H])N([H])C([H])([H])[H])C(=O)N([H])C3([H])[H]


 34 41  0  0  0  0  0  0  0  0999 V2000
    4.2491    6.7209   19.4781 C   0  0  0  0  0  0  0  0  0  0  0  0
    3.7227    6.5089   18.0791 C   0  0  0  0  0  0  0  0  0  0  0  0
    4.7799    5.6615   17.4064 C   0  0  0  0  0  0  0  0  0  0  0  0
    5.8059    5.4613   18.3095 O   0  0  0  0  0  0  0  0  0  0  0  0
    5.2594    5.6522   19.6159 C   0  0  0  0  0  0  0  0  0  0  0  0
    6.4804    6.0725   20.4486 C   0  0  0  0  0  0  0  0  0  0  0  0
    4.7543    4.3675   20.0592 N   0  0  0  0  0  0  0  0  0  0  0  0
    4.7353    3.8868   21.3192 C   0  0  0  0  0  0  0  0  0  0  0  0
    5.0736    4.4254   22.5379 C   0  0  0  0  0  0  0  0  0  0  0  0
    4.9256    3.6812   23.6996 C   0  0  0  0  0  0  0  0  0  0  0  0
    4.4388    2.3850   23.6940 C   0  0  0  0  0  0  0  0  0  0  0  0
    4.0901    1.8289   22.4608 C   0  0  0  0  0  0  0  0  0  0  0  0
    4.2472    2.5867   21.3330 C   0  0  0  0  0  0  0  0  0  0  0  0
    3.9478    2.2568   20.0288 C   0  0  0  0  0  0  0  0  0  0  0  0
    3.4395    1.1565   19.3906 C   0  0  0  0  0  0  0  0  0  0  0  0
    3.0280   -0.1323   20.0009 C   0  0  0  0  0  0  0  0  0  0  0  0
    2.5966   -0.9421   18.8922 N   0  0  0  0  0  0  0  0  0  0  0  0
    2.6988   -0.1861   17.6654 C   0  0  0  0  0  0  0  0  0  0  0  0
    2.3651   -0.6729   16.5804 O   0  0  0  0  0  0  0  0  0  0  0  0
    3.2243    1.0997   18.0324 C   0  0  0  0  0  0  0  0  0  0  0  0
    3.5429    2.2256   17.2899 C   0  0  0  0  0  0  0  0  0  0  0  0
    3.4501    2.5691   15.9730 C   0  0  0  0  0  0  0  0  0  0  0  0
    3.0288    1.9076   14.8581 C   0  0  0  0  0  0  0  0  0  0  0  0
    3.0717    2.5751   13.6269 C   0  0  0  0  0  0  0  0  0  0  0  0
    3.5209    3.8710   13.4934 C   0  0  0  0  0  0  0  0  0  0  0  0
    3.9438    4.5243   14.6353 C   0  0  0  0  0  0  0  0  0  0  0  0
    3.9099    3.8821   15.8659 C   0  0  0  0  0  0  0  0  0  0  0  0
    4.2735    4.3470   17.0348 N   0  0  0  0  0  0  0  0  0  0  0  0
    4.0588    3.3427   17.9271 C   0  0  0  0  0  0  0  0  0  0  0  0
    4.2609    3.3505   19.2850 C   0  0  0  0  0  0  0  0  0  0  0  0
    2.2597   -1.9280   18.9471 H   0  0  0  0  0  0  0  0  0  0  0  0
    4.1365    9.0751   18.9017 C   0  0  0  0  0  0  0  0  0  0  0  0
    4.6827    8.0533   19.7277 N   0  0  0  0  0  0  0  0  0  0  0  0
    4.5395    8.2808   20.7294 H   0  0  0  0  0  0  0  0  0  0  0  0
 32 33  1  0  0  0
 33  1  1  0  0  0
  1  2  1  0  0  0
  2  3  1  0  0  0
  3  4  1  0  0  0
  4  5  1  0  0  0
  5  6  1  0  0  0
  5  7  1  0  0  0
  7  8  1  0  0  0
  8  9  2  0  0  0
  9 10  1  0  0  0
 10 11  2  0  0  0
 11 12  1  0  0  0
 12 13  2  0  0  0
 13 14  1  0  0  0
 14 15  2  0  0  0
 15 16  1  0  0  0
 16 17  1  0  0  0
 17 18  1  0  0  0
 18 19  2  0  0  0
 18 20  1  0  0  0
 20 21  2  0  0  0
 21 22  1  0  0  0
 22 23  2  0  0  0
 23 24  1  0  0  0
 24 25  2  0  0  0
 25 26  1  0  0  0
 26 27  2  0  0  0
 27 28  1  0  0  0
 28 29  1  0  0  0
 29 30  2  0  0  0
  5  1  1  0  0  0
 30  7  1  0  0  0
 28  3  1  0  0  0
 13  8  1  0  0  0
 30 14  1  0  0  0
 20 15  1  0  0  0
 29 21  1  0  0  0
 27 22  1  0  0  0
 33 34  1  0  0  0
 17 31  1  0  0  0
M  END
> <minimizedAffinity>
-11.54872

> <CNNscore>
0.8976916671

> <CNNaffinity>
7.2014832497

> <CNN_VS>
6.4647116661

> <CNNaffinity_variance>
0.0676801354

$$$$
[H]c1c([H])c([H])c2c(c1[H])c1c3c(c4c5c([H])c([H])c([H])c([H])c5n5c4c1n2[C@@]1(C([H])([H])[H])O[C@]5([H])C([H])([H])[C@]1([H])N([H])C([H])([H])[H])C(=O)N([H])C3([H])[H]


 34 41  0  0  0  0  0  0  0  0999 V2000
    1.5317    6.3748    9.8241 C   0  0  0  0  0  0  0  0  0  0  0  0
    1.8987    5.0172   10.3733 C   0  0  0  0  0  0  0  0  0  0  0  0
    1.8160    4.0954    9.1767 C   0  0  0  0  0  0  0  0  0  0  0  0
    1.4026    4.8413    8.0900 O   0  0  0  0  0  0  0  0  0  0  0  0
    1.7239    6.2052    8.3694 C   0  0  0  0  0  0  0  0  0  0  0  0
    0.7039    6.9856    7.5258 C   0  0  0  0  0  0  0  0  0  0  0  0
    3.0713    6.4342    7.8858 N   0  0  0  0  0  0  0  0  0  0  0  0
    3.5690    7.5719    7.3596 C   0  0  0  0  0  0  0  0  0  0  0  0
    3.0541    8.8351    7.1896 C   0  0  0  0  0  0  0  0  0  0  0  0
    3.8268    9.8375    6.6210 C   0  0  0  0  0  0  0  0  0  0  0  0
    5.1299    9.6242    6.2042 C   0  0  0  0  0  0  0  0  0  0  0  0
    5.6636    8.3444    6.3743 C   0  0  0  0  0  0  0  0  0  0  0  0
    4.8777    7.3769    6.9377 C   0  0  0  0  0  0  0  0  0  0  0  0
    5.2000    6.0675    7.2219 C   0  0  0  0  0  0  0  0  0  0  0  0
    6.3078    5.2771    7.0655 C   0  0  0  0  0  0  0  0  0  0  0  0
    7.6145    5.6594    6.4747 C   0  0  0  0  0  0  0  0  0  0  0  0
    8.4068    4.4593    6.5289 N   0  0  0  0  0  0  0  0  0  0  0  0
    7.6481    3.4000    7.1528 C   0  0  0  0  0  0  0  0  0  0  0  0
    8.1328    2.2770    7.3246 O   0  0  0  0  0  0  0  0  0  0  0  0
    6.3620    3.9604    7.4625 C   0  0  0  0  0  0  0  0  0  0  0  0
    5.2269    3.4259    8.0511 C   0  0  0  0  0  0  0  0  0  0  0  0
    4.9000    2.2162    8.5905 C   0  0  0  0  0  0  0  0  0  0  0  0
    5.5717    1.0381    8.7287 C   0  0  0  0  0  0  0  0  0  0  0  0
    4.9180   -0.0372    9.3448 C   0  0  0  0  0  0  0  0  0  0  0  0
    3.6261    0.0437    9.8175 C   0  0  0  0  0  0  0  0  0  0  0  0
    2.9623    1.2464    9.6678 C   0  0  0  0  0  0  0  0  0  0  0  0
    3.5908    2.3253    9.0602 C   0  0  0  0  0  0  0  0  0  0  0  0
    3.1117    3.5230    8.8357 N   0  0  0  0  0  0  0  0  0  0  0  0
    4.1014    4.2178    8.2122 C   0  0  0  0  0  0  0  0  0  0  0  0
    4.0931    5.5259    7.7953 C   0  0  0  0  0  0  0  0  0  0  0  0
    9.3823    4.3517    6.1747 H   0  0  0  0  0  0  0  0  0  0  0  0
   -0.2354    6.3196   11.4859 C   0  0  0  0  0  0  0  0  0  0  0  0
    0.2572    6.8382   10.2559 N   0  0  0  0  0  0  0  0  0  0  0  0
    0.2545    7.8753   10.2721 H   0  0  0  0  0  0  0  0  0  0  0  0
 32 33  1  0  0  0
 33  1  1  0  0  0
  1  2  1  0  0  0
  2  3  1  0  0  0
  3  4  1  0  0  0
  4  5  1  0  0  0
  5  6  1  0  0  0
  5  7  1  0  0  0
  7  8  1  0  0  0
  8  9  2  0  0  0
  9 10  1  0  0  0
 10 11  2  0  0  0
 11 12  1  0  0  0
 12 13  2  0  0  0
 13 14  1  0  0  0
 14 15  2  0  0  0
 15 16  1  0  0  0
 16 17  1  0  0  0
 17 18  1  0  0  0
 18 19  2  0  0  0
 18 20  1  0  0  0
 20 21  2  0  0  0
 21 22  1  0  0  0
 22 23  2  0  0  0
 23 24  1  0  0  0
 24 25  2  0  0  0
 25 26  1  0  0  0
 26 27  2  0  0  0
 27 28  1  0  0  0
 28 29  1  0  0  0
 29 30  2  0  0  0
  5  1  1  0  0  0
 30  7  1  0  0  0
 28  3  1  0  0  0
 13  8  1  0  0  0
 30 14  1  0  0  0
 20 15  1  0  0  0
 29 21  1  0  0  0
 27 22  1  0  0  0
 33 34  1  0  0  0
 17 31  1  0  0  0
M  END
> <minimizedAffinity>
-5.44913

> <CNNscore>
0.5763274431

> <CNNaffinity>
5.6789460182

> <CNN_VS>
3.2729325294

> <CNNaffinity_variance>
0.8837033510

$$$$
[H]c1c([H])c([H])c2c(c1[H])c1c3c(c4c5c([H])c([H])c([H])c([H])c5n5c4c1n2[C@@]1(C([H])([H])[H])O[C@]5([H])C([H])([H])[C@]1([H])N([H])C([H])([H])[H])C(=O)N([H])C3([H])[H]


 34 41  0  0  0  0  0  0  0  0999 V2000
    7.6677    3.3257    7.3739 C   0  0  0  0  0  0  0  0  0  0  0  0
    7.7117    4.8343    7.3346 C   0  0  0  0  0  0  0  0  0  0  0  0
    6.5816    5.2170    6.4047 C   0  0  0  0  0  0  0  0  0  0  0  0
    6.0003    4.0544    5.9370 O   0  0  0  0  0  0  0  0  0  0  0  0
    6.3109    3.0221    6.8749 C   0  0  0  0  0  0  0  0  0  0  0  0
    6.2472    1.7444    6.0237 C   0  0  0  0  0  0  0  0  0  0  0  0
    5.2617    3.0244    7.8753 N   0  0  0  0  0  0  0  0  0  0  0  0
    4.7627    1.9619    8.5395 C   0  0  0  0  0  0  0  0  0  0  0  0
    5.0977    0.6291    8.5716 C   0  0  0  0  0  0  0  0  0  0  0  0
    4.4005   -0.2505    9.3874 C   0  0  0  0  0  0  0  0  0  0  0  0
    3.3536    0.1583   10.1962 C   0  0  0  0  0  0  0  0  0  0  0  0
    3.0063    1.5112   10.1726 C   0  0  0  0  0  0  0  0  0  0  0  0
    3.7117    2.3541    9.3583 C   0  0  0  0  0  0  0  0  0  0  0  0
    3.5626    3.7144    9.1958 C   0  0  0  0  0  0  0  0  0  0  0  0
    2.7344    4.6758    9.7117 C   0  0  0  0  0  0  0  0  0  0  0  0
    1.6416    4.4921   10.6990 C   0  0  0  0  0  0  0  0  0  0  0  0
    1.0797    5.8055   10.8730 N   0  0  0  0  0  0  0  0  0  0  0  0
    1.8066    6.7592   10.0673 C   0  0  0  0  0  0  0  0  0  0  0  0
    1.5128    7.9588   10.0691 O   0  0  0  0  0  0  0  0  0  0  0  0
    2.8147    6.0073    9.3725 C   0  0  0  0  0  0  0  0  0  0  0  0
    3.7925    6.3743    8.4618 C   0  0  0  0  0  0  0  0  0  0  0  0
    4.2040    7.5534    7.9128 C   0  0  0  0  0  0  0  0  0  0  0  0
    3.7779    8.8428    8.0310 C   0  0  0  0  0  0  0  0  0  0  0  0
    4.4424    9.8375    7.3015 C   0  0  0  0  0  0  0  0  0  0  0  0
    5.5081    9.5697    6.4698 C   0  0  0  0  0  0  0  0  0  0  0  0
    5.9248    8.2565    6.3635 C   0  0  0  0  0  0  0  0  0  0  0  0
    5.2808    7.2547    7.0773 C   0  0  0  0  0  0  0  0  0  0  0  0
    5.5402    5.9712    7.0898 N   0  0  0  0  0  0  0  0  0  0  0  0
    4.6340    5.4082    7.9339 C   0  0  0  0  0  0  0  0  0  0  0  0
    4.5122    4.0903    8.2989 C   0  0  0  0  0  0  0  0  0  0  0  0
    0.2693    6.0502   11.4828 H   0  0  0  0  0  0  0  0  0  0  0  0
    9.6370    3.5595    5.9759 C   0  0  0  0  0  0  0  0  0  0  0  0
    8.7563    2.7064    6.6977 N   0  0  0  0  0  0  0  0  0  0  0  0
    9.2877    2.1178    7.3662 H   0  0  0  0  0  0  0  0  0  0  0  0
 32 33  1  0  0  0
 33  1  1  0  0  0
  1  2  1  0  0  0
  2  3  1  0  0  0
  3  4  1  0  0  0
  4  5  1  0  0  0
  5  6  1  0  0  0
  5  7  1  0  0  0
  7  8  1  0  0  0
  8  9  2  0  0  0
  9 10  1  0  0  0
 10 11  2  0  0  0
 11 12  1  0  0  0
 12 13  2  0  0  0
 13 14  1  0  0  0
 14 15  2  0  0  0
 15 16  1  0  0  0
 16 17  1  0  0  0
 17 18  1  0  0  0
 18 19  2  0  0  0
 18 20  1  0  0  0
 20 21  2  0  0  0
 21 22  1  0  0  0
 22 23  2  0  0  0
 23 24  1  0  0  0
 24 25  2  0  0  0
 25 26  1  0  0  0
 26 27  2  0  0  0
 27 28  1  0  0  0
 28 29  1  0  0  0
 29 30  2  0  0  0
  5  1  1  0  0  0
 30  7  1  0  0  0
 28  3  1  0  0  0
 13  8  1  0  0  0
 30 14  1  0  0  0
 20 15  1  0  0  0
 29 21  1  0  0  0
 27 22  1  0  0  0
 33 34  1  0  0  0
 17 31  1  0  0  0
M  END
> <minimizedAffinity>
-5.61061

> <CNNscore>
0.5121066570

> <CNNaffinity>
5.6842813492

> <CNN_VS>
2.9109582901

> <CNNaffinity_variance>
0.7057162523

$$$$
[H]c1c([H])c([H])c2c(c1[H])c1c3c(c4c5c([H])c([H])c([H])c([H])c5n5c4c1n2[C@@]1(C([H])([H])[H])O[C@]5([H])C([H])([H])[C@]1([H])N([H])C([H])([H])[H])C(=O)N([H])C3([H])[H]


 34 41  0  0  0  0  0  0  0  0999 V2000
    5.8455    6.0346   17.3160 C   0  0  0  0  0  0  0  0  0  0  0  0
    6.1918    5.7092   18.7490 C   0  0  0  0  0  0  0  0  0  0  0  0
    4.8598    5.7154   19.4659 C   0  0  0  0  0  0  0  0  0  0  0  0
    3.8827    6.0535   18.5498 O   0  0  0  0  0  0  0  0  0  0  0  0
    4.3980    5.7471   17.2529 C   0  0  0  0  0  0  0  0  0  0  0  0
    3.6265    6.7064   16.3334 C   0  0  0  0  0  0  0  0  0  0  0  0
    4.0459    4.3699   16.9680 N   0  0  0  0  0  0  0  0  0  0  0  0
    3.7430    3.8347   15.7677 C   0  0  0  0  0  0  0  0  0  0  0  0
    3.7453    4.3332   14.4866 C   0  0  0  0  0  0  0  0  0  0  0  0
    3.3966    3.5213   13.4168 C   0  0  0  0  0  0  0  0  0  0  0  0
    3.0364    2.1941   13.5785 C   0  0  0  0  0  0  0  0  0  0  0  0
    3.0327    1.6770   14.8762 C   0  0  0  0  0  0  0  0  0  0  0  0
    3.3810    2.5015   15.9106 C   0  0  0  0  0  0  0  0  0  0  0  0
    3.4713    2.2030   17.2529 C   0  0  0  0  0  0  0  0  0  0  0  0
    3.2620    1.0898   18.0233 C   0  0  0  0  0  0  0  0  0  0  0  0
    2.8264   -0.2543   17.5693 C   0  0  0  0  0  0  0  0  0  0  0  0
    2.7382   -1.0375   18.7734 N   0  0  0  0  0  0  0  0  0  0  0  0
    3.1331   -0.2357   19.9085 C   0  0  0  0  0  0  0  0  0  0  0  0
    3.1531   -0.7043   21.0510 O   0  0  0  0  0  0  0  0  0  0  0  0
    3.4448    1.0663   19.3872 C   0  0  0  0  0  0  0  0  0  0  0  0
    3.8649    2.2395   19.9934 C   0  0  0  0  0  0  0  0  0  0  0  0
    4.1803    2.6053   21.2692 C   0  0  0  0  0  0  0  0  0  0  0  0
    4.1706    1.9481   22.4634 C   0  0  0  0  0  0  0  0  0  0  0  0
    4.5621    2.6446   23.6145 C   0  0  0  0  0  0  0  0  0  0  0  0
    4.9568    3.9647   23.5925 C   0  0  0  0  0  0  0  0  0  0  0  0
    4.9597    4.6133   22.3723 C   0  0  0  0  0  0  0  0  0  0  0  0
    4.5755    3.9425   21.2188 C   0  0  0  0  0  0  0  0  0  0  0  0
    4.5160    4.4018   19.9940 N   0  0  0  0  0  0  0  0  0  0  0  0
    4.0779    3.3708   19.2220 C   0  0  0  0  0  0  0  0  0  0  0  0
    3.8771    3.3472   17.8640 C   0  0  0  0  0  0  0  0  0  0  0  0
    2.4354   -2.0340   18.8364 H   0  0  0  0  0  0  0  0  0  0  0  0
    7.0022    8.0983   17.8548 C   0  0  0  0  0  0  0  0  0  0  0  0
    6.2626    7.3335   16.9101 N   0  0  0  0  0  0  0  0  0  0  0  0
    6.7796    7.2654   16.0136 H   0  0  0  0  0  0  0  0  0  0  0  0
 32 33  1  0  0  0
 33  1  1  0  0  0
  1  2  1  0  0  0
  2  3  1  0  0  0
  3  4  1  0  0  0
  4  5  1  0  0  0
  5  6  1  0  0  0
  5  7  1  0  0  0
  7  8  1  0  0  0
  8  9  2  0  0  0
  9 10  1  0  0  0
 10 11  2  0  0  0
 11 12  1  0  0  0
 12 13  2  0  0  0
 13 14  1  0  0  0
 14 15  2  0  0  0
 15 16  1  0  0  0
 16 17  1  0  0  0
 17 18  1  0  0  0
 18 19  2  0  0  0
 18 20  1  0  0  0
 20 21  2  0  0  0
 21 22  1  0  0  0
 22 23  2  0  0  0
 23 24  1  0  0  0
 24 25  2  0  0  0
 25 26  1  0  0  0
 26 27  2  0  0  0
 27 28  1  0  0  0
 28 29  1  0  0  0
 29 30  2  0  0  0
  5  1  1  0  0  0
 30  7  1  0  0  0
 28  3  1  0  0  0
 13  8  1  0  0  0
 30 14  1  0  0  0
 20 15  1  0  0  0
 29 21  1  0  0  0
 27 22  1  0  0  0
 33 34  1  0  0  0
 17 31  1  0  0  0
M  END
> <minimizedAffinity>
-10.79652

> <CNNscore>
0.4284100533

> <CNNaffinity>
6.6111717224

> <CNN_VS>
2.8322923183

> <CNNaffinity_variance>
0.2030661106

$$$$
[H]c1c([H])c([H])c2c(c1[H])c1c3c(c4c5c([H])c([H])c([H])c([H])c5n5c4c1n2[C@@]1(C([H])([H])[H])O[C@]5([H])C([H])([H])[C@]1([H])N([H])C([H])([H])[H])C(=O)N([H])C3([H])[H]


 34 41  0  0  0  0  0  0  0  0999 V2000
    6.7634    6.1164   21.9034 C   0  0  0  0  0  0  0  0  0  0  0  0
    6.5431    4.6534   22.2044 C   0  0  0  0  0  0  0  0  0  0  0  0
    5.0397    4.4881   22.1745 C   0  0  0  0  0  0  0  0  0  0  0  0
    4.4780    5.7268   21.9326 O   0  0  0  0  0  0  0  0  0  0  0  0
    5.4791    6.5261   21.2997 C   0  0  0  0  0  0  0  0  0  0  0  0
    5.0651    7.9601   21.6645 C   0  0  0  0  0  0  0  0  0  0  0  0
    5.3611    6.3062   19.8715 N   0  0  0  0  0  0  0  0  0  0  0  0
    5.5889    7.1974   18.8852 C   0  0  0  0  0  0  0  0  0  0  0  0
    6.0580    8.4895   18.8733 C   0  0  0  0  0  0  0  0  0  0  0  0
    6.2115    9.1694   17.6735 C   0  0  0  0  0  0  0  0  0  0  0  0
    5.9081    8.5952   16.4506 C   0  0  0  0  0  0  0  0  0  0  0  0
    5.4325    7.2817   16.4514 C   0  0  0  0  0  0  0  0  0  0  0  0
    5.2916    6.6372   17.6497 C   0  0  0  0  0  0  0  0  0  0  0  0
    4.8699    5.3465   17.8855 C   0  0  0  0  0  0  0  0  0  0  0  0
    4.4524    4.2973   17.1101 C   0  0  0  0  0  0  0  0  0  0  0  0
    4.3216    4.2617   15.6322 C   0  0  0  0  0  0  0  0  0  0  0  0
    3.8232    2.9438   15.3395 N   0  0  0  0  0  0  0  0  0  0  0  0
    3.6872    2.1892   16.5639 C   0  0  0  0  0  0  0  0  0  0  0  0
    3.2907    1.0195   16.5578 O   0  0  0  0  0  0  0  0  0  0  0  0
    4.0884    3.0731   17.6232 C   0  0  0  0  0  0  0  0  0  0  0  0
    4.1570    2.9133   18.9980 C   0  0  0  0  0  0  0  0  0  0  0  0
    3.9228    1.8831   19.8610 C   0  0  0  0  0  0  0  0  0  0  0  0
    3.4916    0.6005   19.6962 C   0  0  0  0  0  0  0  0  0  0  0  0
    3.3535   -0.2107   20.8303 C   0  0  0  0  0  0  0  0  0  0  0  0
    3.6344    0.2310   22.1051 C   0  0  0  0  0  0  0  0  0  0  0  0
    4.0700    1.5342   22.2511 C   0  0  0  0  0  0  0  0  0  0  0  0
    4.2141    2.3558   21.1410 C   0  0  0  0  0  0  0  0  0  0  0  0
    4.6071    3.6042   21.1002 N   0  0  0  0  0  0  0  0  0  0  0  0
    4.5771    3.9698   19.7902 C   0  0  0  0  0  0  0  0  0  0  0  0
    4.9254    5.1751   19.2327 C   0  0  0  0  0  0  0  0  0  0  0  0
    3.5885    2.5728   14.3930 H   0  0  0  0  0  0  0  0  0  0  0  0
    8.6013    7.1902   23.0680 C   0  0  0  0  0  0  0  0  0  0  0  0
    7.2164    6.8665   23.0249 N   0  0  0  0  0  0  0  0  0  0  0  0
    6.6401    7.7233   23.1225 H   0  0  0  0  0  0  0  0  0  0  0  0
 32 33  1  0  0  0
 33  1  1  0  0  0
  1  2  1  0  0  0
  2  3  1  0  0  0
  3  4  1  0  0  0
  4  5  1  0  0  0
  5  6  1  0  0  0
  5  7  1  0  0  0
  7  8  1  0  0  0
  8  9  2  0  0  0
  9 10  1  0  0  0
 10 11  2  0  0  0
 11 12  1  0  0  0
 12 13  2  0  0  0
 13 14  1  0  0  0
 14 15  2  0  0  0
 15 16  1  0  0  0
 16 17  1  0  0  0
 17 18  1  0  0  0
 18 19  2  0  0  0
 18 20  1  0  0  0
 20 21  2  0  0  0
 21 22  1  0  0  0
 22 23  2  0  0  0
 23 24  1  0  0  0
 24 25  2  0  0  0
 25 26  1  0  0  0
 26 27  2  0  0  0
 27 28  1  0  0  0
 28 29  1  0  0  0
 29 30  2  0  0  0
  5  1  1  0  0  0
 30  7  1  0  0  0
 28  3  1  0  0  0
 13  8  1  0  0  0
 30 14  1  0  0  0
 20 15  1  0  0  0
 29 21  1  0  0  0
 27 22  1  0  0  0
 33 34  1  0  0  0
 17 31  1  0  0  0
M  END
> <minimizedAffinity>
-11.05322

> <CNNscore>
0.3939746320

> <CNNaffinity>
6.3401556015

> <CNN_VS>
2.4978604317

> <CNNaffinity_variance>
0.2200296819

$$$$
[H]c1c([H])c([H])c2c(c1[H])c1c3c(c4c5c([H])c([H])c([H])c([H])c5n5c4c1n2[C@@]1(C([H])([H])[H])O[C@]5([H])C([H])([H])[C@]1([H])N([H])C([H])([H])[H])C(=O)N([H])C3([H])[H]


 34 41  0  0  0  0  0  0  0  0999 V2000
    1.5292    1.8233    8.5231 C   0  0  0  0  0  0  0  0  0  0  0  0
    0.4329    2.7192    9.0474 C   0  0  0  0  0  0  0  0  0  0  0  0
    0.5807    2.6494   10.5513 C   0  0  0  0  0  0  0  0  0  0  0  0
    1.6112    1.7759   10.8397 O   0  0  0  0  0  0  0  0  0  0  0  0
    2.4416    1.7073    9.6788 C   0  0  0  0  0  0  0  0  0  0  0  0
    3.0986    0.3236    9.7991 C   0  0  0  0  0  0  0  0  0  0  0  0
    3.4332    2.7579    9.8006 N   0  0  0  0  0  0  0  0  0  0  0  0
    4.7103    2.7313    9.3678 C   0  0  0  0  0  0  0  0  0  0  0  0
    5.4402    1.8194    8.6431 C   0  0  0  0  0  0  0  0  0  0  0  0
    6.7648    2.0779    8.3205 C   0  0  0  0  0  0  0  0  0  0  0  0
    7.4081    3.2432    8.7020 C   0  0  0  0  0  0  0  0  0  0  0  0
    6.6746    4.1775    9.4372 C   0  0  0  0  0  0  0  0  0  0  0  0
    5.3710    3.8947    9.7401 C   0  0  0  0  0  0  0  0  0  0  0  0
    4.4610    4.6713   10.4243 C   0  0  0  0  0  0  0  0  0  0  0  0
    4.4831    5.9011   11.0273 C   0  0  0  0  0  0  0  0  0  0  0  0
    5.6282    6.8404   11.1222 C   0  0  0  0  0  0  0  0  0  0  0  0
    5.1233    7.9598   11.8727 N   0  0  0  0  0  0  0  0  0  0  0  0
    3.7313    7.7452   12.1942 C   0  0  0  0  0  0  0  0  0  0  0  0
    3.0794    8.5855   12.8222 O   0  0  0  0  0  0  0  0  0  0  0  0
    3.3900    6.4606   11.6488 C   0  0  0  0  0  0  0  0  0  0  0  0
    2.2147    5.7264   11.6520 C   0  0  0  0  0  0  0  0  0  0  0  0
    0.9492    5.9359   12.1163 C   0  0  0  0  0  0  0  0  0  0  0  0
    0.3566    6.9573   12.7972 C   0  0  0  0  0  0  0  0  0  0  0  0
   -0.9997    6.8425   13.1299 C   0  0  0  0  0  0  0  0  0  0  0  0
   -1.7610    5.7425   12.7990 C   0  0  0  0  0  0  0  0  0  0  0  0
   -1.1418    4.7178   12.1090 C   0  0  0  0  0  0  0  0  0  0  0  0
    0.2013    4.8104   11.7690 C   0  0  0  0  0  0  0  0  0  0  0  0
    0.9383    3.9391   11.1269 N   0  0  0  0  0  0  0  0  0  0  0  0
    2.1836    4.4809   11.0455 C   0  0  0  0  0  0  0  0  0  0  0  0
    3.3020    3.9616   10.4418 C   0  0  0  0  0  0  0  0  0  0  0  0
    5.6661    8.8056   12.1528 H   0  0  0  0  0  0  0  0  0  0  0  0
    1.1629    0.4666    6.5450 C   0  0  0  0  0  0  0  0  0  0  0  0
    1.0499    0.6089    7.9562 N   0  0  0  0  0  0  0  0  0  0  0  0
    1.4925   -0.1954    8.4389 H   0  0  0  0  0  0  0  0  0  0  0  0
 32 33  1  0  0  0
 33  1  1  0  0  0
  1  2  1  0  0  0
  2  3  1  0  0  0
  3  4  1  0  0  0
  4  5  1  0  0  0
  5  6  1  0  0  0
  5  7  1  0  0  0
  7  8  1  0  0  0
  8  9  2  0  0  0
  9 10  1  0  0  0
 10 11  2  0  0  0
 11 12  1  0  0  0
 12 13  2  0  0  0
 13 14  1  0  0  0
 14 15  2  0  0  0
 15 16  1  0  0  0
 16 17  1  0  0  0
 17 18  1  0  0  0
 18 19  2  0  0  0
 18 20  1  0  0  0
 20 21  2  0  0  0
 21 22  1  0  0  0
 22 23  2  0  0  0
 23 24  1  0  0  0
 24 25  2  0  0  0
 25 26  1  0  0  0
 26 27  2  0  0  0
 27 28  1  0  0  0
 28 29  1  0  0  0
 29 30  2  0  0  0
  5  1  1  0  0  0
 30  7  1  0  0  0
 28  3  1  0  0  0
 13  8  1  0  0  0
 30 14  1  0  0  0
 20 15  1  0  0  0
 29 21  1  0  0  0
 27 22  1  0  0  0
 33 34  1  0  0  0
 17 31  1  0  0  0
M  END
> <minimizedAffinity>
-6.39266

> <CNNscore>
0.3795136213

> <CNNaffinity>
5.5107483864

> <CNN_VS>
2.0914039612

> <CNNaffinity_variance>
0.1303977519

$$$$
[H]c1c([H])c([H])c2c(c1[H])c1c3c(c4c5c([H])c([H])c([H])c([H])c5n5c4c1n2[C@@]1(C([H])([H])[H])O[C@]5([H])C([H])([H])[C@]1([H])N([H])C([H])([H])[H])C(=O)N([H])C3([H])[H]


 34 41  0  0  0  0  0  0  0  0999 V2000
    5.3224    1.9531    7.0846 C   0  0  0  0  0  0  0  0  0  0  0  0
    4.1736    1.5840    7.9920 C   0  0  0  0  0  0  0  0  0  0  0  0
    4.6193    2.0403    9.3636 C   0  0  0  0  0  0  0  0  0  0  0  0
    5.8931    2.5619    9.2478 O   0  0  0  0  0  0  0  0  0  0  0  0
    6.0669    2.9481    7.8831 C   0  0  0  0  0  0  0  0  0  0  0  0
    7.5890    2.8695    7.6877 C   0  0  0  0  0  0  0  0  0  0  0  0
    5.6049    4.3171    7.7647 N   0  0  0  0  0  0  0  0  0  0  0  0
    6.0914    5.2770    6.9517 C   0  0  0  0  0  0  0  0  0  0  0  0
    7.0523    5.2807    5.9687 C   0  0  0  0  0  0  0  0  0  0  0  0
    7.3335    6.4438    5.2663 C   0  0  0  0  0  0  0  0  0  0  0  0
    6.6749    7.6369    5.5117 C   0  0  0  0  0  0  0  0  0  0  0  0
    5.6951    7.6435    6.5074 C   0  0  0  0  0  0  0  0  0  0  0  0
    5.4401    6.4817    7.1828 C   0  0  0  0  0  0  0  0  0  0  0  0
    4.5107    6.2515    8.1740 C   0  0  0  0  0  0  0  0  0  0  0  0
    3.5728    7.0050    8.8290 C   0  0  0  0  0  0  0  0  0  0  0  0
    3.2692    8.4438    8.6287 C   0  0  0  0  0  0  0  0  0  0  0  0
    2.2301    8.7355    9.5807 N   0  0  0  0  0  0  0  0  0  0  0  0
    1.8810    7.5362   10.3065 C   0  0  0  0  0  0  0  0  0  0  0  0
    0.9961    7.5407   11.1681 O   0  0  0  0  0  0  0  0  0  0  0  0
    2.7403    6.5011    9.8023 C   0  0  0  0  0  0  0  0  0  0  0  0
    2.8722    5.1587   10.1202 C   0  0  0  0  0  0  0  0  0  0  0  0
    2.2375    4.3038   10.9729 C   0  0  0  0  0  0  0  0  0  0  0  0
    1.2312    4.4577   11.8794 C   0  0  0  0  0  0  0  0  0  0  0  0
    0.8127    3.3391   12.6120 C   0  0  0  0  0  0  0  0  0  0  0  0
    1.3735    2.0899   12.4564 C   0  0  0  0  0  0  0  0  0  0  0  0
    2.3923    1.9546   11.5328 C   0  0  0  0  0  0  0  0  0  0  0  0
    2.8230    3.0498   10.7957 C   0  0  0  0  0  0  0  0  0  0  0  0
    3.7690    3.0989    9.8917 N   0  0  0  0  0  0  0  0  0  0  0  0
    3.8192    4.3893    9.4635 C   0  0  0  0  0  0  0  0  0  0  0  0
    4.6314    4.9381    8.5021 C   0  0  0  0  0  0  0  0  0  0  0  0
    1.7858    9.6664    9.7380 H   0  0  0  0  0  0  0  0  0  0  0  0
    5.4537   -0.4492    6.7694 C   0  0  0  0  0  0  0  0  0  0  0  0
    6.0558    0.8300    6.6087 N   0  0  0  0  0  0  0  0  0  0  0  0
    6.3197    0.9851    5.6177 H   0  0  0  0  0  0  0  0  0  0  0  0
 32 33  1  0  0  0
 33  1  1  0  0  0
  1  2  1  0  0  0
  2  3  1  0  0  0
  3  4  1  0  0  0
  4  5  1  0  0  0
  5  6  1  0  0  0
  5  7  1  0  0  0
  7  8  1  0  0  0
  8  9  2  0  0  0
  9 10  1  0  0  0
 10 11  2  0  0  0
 11 12  1  0  0  0
 12 13  2  0  0  0
 13 14  1  0  0  0
 14 15  2  0  0  0
 15 16  1  0  0  0
 16 17  1  0  0  0
 17 18  1  0  0  0
 18 19  2  0  0  0
 18 20  1  0  0  0
 20 21  2  0  0  0
 21 22  1  0  0  0
 22 23  2  0  0  0
 23 24  1  0  0  0
 24 25  2  0  0  0
 25 26  1  0  0  0
 26 27  2  0  0  0
 27 28  1  0  0  0
 28 29  1  0  0  0
 29 30  2  0  0  0
  5  1  1  0  0  0
 30  7  1  0  0  0
 28  3  1  0  0  0
 13  8  1  0  0  0
 30 14  1  0  0  0
 20 15  1  0  0  0
 29 21  1  0  0  0
 27 22  1  0  0  0
 33 34  1  0  0  0
 17 31  1  0  0  0
M  END
> <minimizedAffinity>
-5.69994

> <CNNscore>
0.3710058928

> <CNNaffinity>
5.4531641006

> <CNN_VS>
2.0231559277

> <CNNaffinity_variance>
0.5127584338

$$$$
[H]c1c([H])c([H])c2c(c1[H])c1c3c(c4c5c([H])c([H])c([H])c([H])c5n5c4c1n2[C@@]1(C([H])([H])[H])O[C@]5([H])C([H])([H])[C@]1([H])N([H])C([H])([H])[H])C(=O)N([H])C3([H])[H]


 34 41  0  0  0  0  0  0  0  0999 V2000
    3.1409    6.7136   12.3473 C   0  0  0  0  0  0  0  0  0  0  0  0
    3.9024    7.6847   11.4776 C   0  0  0  0  0  0  0  0  0  0  0  0
    4.2067    6.9007   10.2201 C   0  0  0  0  0  0  0  0  0  0  0  0
    3.7147    5.6204   10.3849 O   0  0  0  0  0  0  0  0  0  0  0  0
    2.6949    5.6871   11.3834 C   0  0  0  0  0  0  0  0  0  0  0  0
    2.6840    4.2664   11.9688 C   0  0  0  0  0  0  0  0  0  0  0  0
    1.4473    5.9699   10.7012 N   0  0  0  0  0  0  0  0  0  0  0  0
    0.2148    5.5382   11.0381 C   0  0  0  0  0  0  0  0  0  0  0  0
   -0.2720    4.8155   12.1014 C   0  0  0  0  0  0  0  0  0  0  0  0
   -1.6268    4.5311   12.1953 C   0  0  0  0  0  0  0  0  0  0  0  0
   -2.5414    4.9515   11.2445 C   0  0  0  0  0  0  0  0  0  0  0  0
   -2.0574    5.6884   10.1609 C   0  0  0  0  0  0  0  0  0  0  0  0
   -0.7169    5.9531   10.0956 C   0  0  0  0  0  0  0  0  0  0  0  0
   -0.0302    6.6749    9.1434 C   0  0  0  0  0  0  0  0  0  0  0  0
   -0.3623    7.3400    7.9929 C   0  0  0  0  0  0  0  0  0  0  0  0
   -1.7093    7.4772    7.3852 C   0  0  0  0  0  0  0  0  0  0  0  0
   -1.4942    8.2412    6.1848 N   0  0  0  0  0  0  0  0  0  0  0  0
   -0.0972    8.5916    6.0717 C   0  0  0  0  0  0  0  0  0  0  0  0
    0.3223    9.2652    5.1253 O   0  0  0  0  0  0  0  0  0  0  0  0
    0.5530    8.0096    7.2130 C   0  0  0  0  0  0  0  0  0  0  0  0
    1.8739    8.0004    7.6321 C   0  0  0  0  0  0  0  0  0  0  0  0
    3.0340    8.5526    7.1736 C   0  0  0  0  0  0  0  0  0  0  0  0
    3.3454    9.3136    6.0864 C   0  0  0  0  0  0  0  0  0  0  0  0
    4.6753    9.7185    5.9109 C   0  0  0  0  0  0  0  0  0  0  0  0
    5.6824    9.3813    6.7891 C   0  0  0  0  0  0  0  0  0  0  0  0
    5.3463    8.6092    7.8848 C   0  0  0  0  0  0  0  0  0  0  0  0
    4.0346    8.1968    8.0784 C   0  0  0  0  0  0  0  0  0  0  0  0
    3.5483    7.4655    9.0497 N   0  0  0  0  0  0  0  0  0  0  0  0
    2.2191    7.3291    8.7941 C   0  0  0  0  0  0  0  0  0  0  0  0
    1.2708    6.6704    9.5370 C   0  0  0  0  0  0  0  0  0  0  0  0
   -2.2241    8.5093    5.4891 H   0  0  0  0  0  0  0  0  0  0  0  0
    3.4347    6.6941   14.7558 C   0  0  0  0  0  0  0  0  0  0  0  0
    3.8797    6.2598   13.4760 N   0  0  0  0  0  0  0  0  0  0  0  0
    3.9514    5.2255   13.4482 H   0  0  0  0  0  0  0  0  0  0  0  0
 32 33  1  0  0  0
 33  1  1  0  0  0
  1  2  1  0  0  0
  2  3  1  0  0  0
  3  4  1  0  0  0
  4  5  1  0  0  0
  5  6  1  0  0  0
  5  7  1  0  0  0
  7  8  1  0  0  0
  8  9  2  0  0  0
  9 10  1  0  0  0
 10 11  2  0  0  0
 11 12  1  0  0  0
 12 13  2  0  0  0
 13 14  1  0  0  0
 14 15  2  0  0  0
 15 16  1  0  0  0
 16 17  1  0  0  0
 17 18  1  0  0  0
 18 19  2  0  0  0
 18 20  1  0  0  0
 20 21  2  0  0  0
 21 22  1  0  0  0
 22 23  2  0  0  0
 23 24  1  0  0  0
 24 25  2  0  0  0
 25 26  1  0  0  0
 26 27  2  0  0  0
 27 28  1  0  0  0
 28 29  1  0  0  0
 29 30  2  0  0  0
  5  1  1  0  0  0
 30  7  1  0  0  0
 28  3  1  0  0  0
 13  8  1  0  0  0
 30 14  1  0  0  0
 20 15  1  0  0  0
 29 21  1  0  0  0
 27 22  1  0  0  0
 33 34  1  0  0  0
 17 31  1  0  0  0
M  END
> <minimizedAffinity>
-6.55295

> <CNNscore>
0.3459217846

> <CNNaffinity>
5.5159983635

> <CNN_VS>
1.9081039429

> <CNNaffinity_variance>
0.1325556636

$$$$
[H]c1c([H])c([H])c2c(c1[H])c1c3c(c4c5c([H])c([H])c([H])c([H])c5n5c4c1n2[C@@]1(C([H])([H])[H])O[C@]5([H])C([H])([H])[C@]1([H])N([H])C([H])([H])[H])C(=O)N([H])C3([H])[H]


 34 41  0  0  0  0  0  0  0  0999 V2000
    4.8498    7.4519   19.2213 C   0  0  0  0  0  0  0  0  0  0  0  0
    4.0979    7.7546   17.9476 C   0  0  0  0  0  0  0  0  0  0  0  0
    4.9716    7.1828   16.8530 C   0  0  0  0  0  0  0  0  0  0  0  0
    6.1077    6.6616   17.4412 O   0  0  0  0  0  0  0  0  0  0  0  0
    5.7868    6.3880   18.8064 C   0  0  0  0  0  0  0  0  0  0  0  0
    7.1503    6.4694   19.5101 C   0  0  0  0  0  0  0  0  0  0  0  0
    5.2624    5.0374   18.8593 N   0  0  0  0  0  0  0  0  0  0  0  0
    5.4037    4.1438   19.8595 C   0  0  0  0  0  0  0  0  0  0  0  0
    5.9667    4.2131   21.1118 C   0  0  0  0  0  0  0  0  0  0  0  0
    5.9460    3.1097   21.9527 C   0  0  0  0  0  0  0  0  0  0  0  0
    5.3690    1.9061   21.5842 C   0  0  0  0  0  0  0  0  0  0  0  0
    4.7923    1.8256   20.3144 C   0  0  0  0  0  0  0  0  0  0  0  0
    4.8282    2.9299   19.5078 C   0  0  0  0  0  0  0  0  0  0  0  0
    4.3060    3.0853   18.2420 C   0  0  0  0  0  0  0  0  0  0  0  0
    3.6240    2.2883   17.3610 C   0  0  0  0  0  0  0  0  0  0  0  0
    3.2175    0.8736   17.5505 C   0  0  0  0  0  0  0  0  0  0  0  0
    2.5598    0.5132   16.3223 N   0  0  0  0  0  0  0  0  0  0  0  0
    2.5261    1.6514   15.4332 C   0  0  0  0  0  0  0  0  0  0  0  0
    1.9924    1.5833   14.3214 O   0  0  0  0  0  0  0  0  0  0  0  0
    3.1966    2.7172   16.1250 C   0  0  0  0  0  0  0  0  0  0  0  0
    3.4789    4.0275   15.7733 C   0  0  0  0  0  0  0  0  0  0  0  0
    3.2084    4.8145   14.6924 C   0  0  0  0  0  0  0  0  0  0  0  0
    2.5707    4.5948   13.5078 C   0  0  0  0  0  0  0  0  0  0  0  0
    2.4713    5.6527   12.5944 C   0  0  0  0  0  0  0  0  0  0  0  0
    2.9896    6.9056   12.8408 C   0  0  0  0  0  0  0  0  0  0  0  0
    3.6324    7.1080   14.0472 C   0  0  0  0  0  0  0  0  0  0  0  0
    3.7425    6.0738   14.9672 C   0  0  0  0  0  0  0  0  0  0  0  0
    4.3170    6.0914   16.1438 N   0  0  0  0  0  0  0  0  0  0  0  0
    4.1694    4.8405   16.6578 C   0  0  0  0  0  0  0  0  0  0  0  0
    4.5802    4.3660   17.8790 C   0  0  0  0  0  0  0  0  0  0  0  0
    2.1630   -0.4236   16.0908 H   0  0  0  0  0  0  0  0  0  0  0  0
    4.8072    9.0565   21.0408 C   0  0  0  0  0  0  0  0  0  0  0  0
    5.4150    8.6042   19.8365 N   0  0  0  0  0  0  0  0  0  0  0  0
    6.4321    8.4568   19.9762 H   0  0  0  0  0  0  0  0  0  0  0  0
 32 33  1  0  0  0
 33  1  1  0  0  0
  1  2  1  0  0  0
  2  3  1  0  0  0
  3  4  1  0  0  0
  4  5  1  0  0  0
  5  6  1  0  0  0
  5  7  1  0  0  0
  7  8  1  0  0  0
  8  9  2  0  0  0
  9 10  1  0  0  0
 10 11  2  0  0  0
 11 12  1  0  0  0
 12 13  2  0  0  0
 13 14  1  0  0  0
 14 15  2  0  0  0
 15 16  1  0  0  0
 16 17  1  0  0  0
 17 18  1  0  0  0
 18 19  2  0  0  0
 18 20  1  0  0  0
 20 21  2  0  0  0
 21 22  1  0  0  0
 22 23  2  0  0  0
 23 24  1  0  0  0
 24 25  2  0  0  0
 25 26  1  0  0  0
 26 27  2  0  0  0
 27 28  1  0  0  0
 28 29  1  0  0  0
 29 30  2  0  0  0
  5  1  1  0  0  0
 30  7  1  0  0  0
 28  3  1  0  0  0
 13  8  1  0  0  0
 30 14  1  0  0  0
 20 15  1  0  0  0
 29 21  1  0  0  0
 27 22  1  0  0  0
 33 34  1  0  0  0
 17 31  1  0  0  0
M  END
> <minimizedAffinity>
-10.35048

> <CNNscore>
0.3363201022

> <CNNaffinity>
6.1313824654

> <CNN_VS>
2.0621070862

> <CNNaffinity_variance>
0.1590069234

$$$$
[H]ON([H])C(=O)C([H])([H])N(C([H])([H])c1c([H])c([H])c([N+](=O)[O-])c([H])c1[H])S(=O)(=O)c1c([H])c([H])c(-c2c([H])c([H])c([H])c([H])c2[H])c([H])c1[H]


 33 35  0  0  0  0  0  0  0  0999 V2000
    3.8826    4.6133    9.4191 N   0  0  0  0  0  0  0  0  0  0  0  0
    2.8539    4.9610   10.6870 S   0  0  0  0  0  0  0  0  0  0  0  0
    2.9073    6.4314   10.9922 O   0  0  0  0  0  0  0  0  0  0  0  0
    1.4272    4.7058   10.2015 O   0  0  0  0  0  0  0  0  0  0  0  0
    3.0141    4.1203   12.1696 C   0  0  0  0  0  0  0  0  0  0  0  0
    2.2244    3.0072   12.3628 C   0  0  0  0  0  0  0  0  0  0  0  0
    2.2851    2.2622   13.5352 C   0  0  0  0  0  0  0  0  0  0  0  0
    3.1525    2.6311   14.5431 C   0  0  0  0  0  0  0  0  0  0  0  0
    3.9304    3.7474   14.3242 C   0  0  0  0  0  0  0  0  0  0  0  0
    3.8759    4.4775   13.1841 C   0  0  0  0  0  0  0  0  0  0  0  0
    3.2452    1.8732   15.7900 C   0  0  0  0  0  0  0  0  0  0  0  0
    2.5596    0.7260   16.0322 C   0  0  0  0  0  0  0  0  0  0  0  0
    2.7244    0.0933   17.2481 C   0  0  0  0  0  0  0  0  0  0  0  0
    3.5580    0.5768   18.2322 C   0  0  0  0  0  0  0  0  0  0  0  0
    4.2586    1.7491   17.9846 C   0  0  0  0  0  0  0  0  0  0  0  0
    4.0923    2.3801   16.7681 C   0  0  0  0  0  0  0  0  0  0  0  0
    4.2013    5.8809    8.7481 C   0  0  0  0  0  0  0  0  0  0  0  0
    3.6025    6.7256    5.1343 O   0  0  0  0  0  0  0  0  0  0  0  0
    4.0678    6.8261    6.4202 N   0  0  0  0  0  0  0  0  0  0  0  0
    3.7325    5.8319    7.3564 C   0  0  0  0  0  0  0  0  0  0  0  0
    3.0087    4.8739    6.9914 O   0  0  0  0  0  0  0  0  0  0  0  0
    4.2259    6.1081    4.6725 H   0  0  0  0  0  0  0  0  0  0  0  0
    4.6450    7.6707    6.5890 H   0  0  0  0  0  0  0  0  0  0  0  0
    5.0810    3.8885    9.7236 C   0  0  0  0  0  0  0  0  0  0  0  0
    5.1047    2.4832    9.2642 C   0  0  0  0  0  0  0  0  0  0  0  0
    6.2121    1.8379    8.7873 C   0  0  0  0  0  0  0  0  0  0  0  0
    6.1975    0.5340    8.3675 C   0  0  0  0  0  0  0  0  0  0  0  0
    5.0268   -0.1779    8.4193 C   0  0  0  0  0  0  0  0  0  0  0  0
    3.8817    0.4315    8.8939 C   0  0  0  0  0  0  0  0  0  0  0  0
    3.9277    1.7449    9.3091 C   0  0  0  0  0  0  0  0  0  0  0  0
    4.9921   -1.5550    7.9810 N   0  0  0  0  0  0  0  0  0  0  0  0
    4.0320   -2.4061    8.4515 O   0  0  0  0  0  0  0  0  0  0  0  0
    5.8327   -1.9681    7.1775 O   0  0  0  0  0  0  0  0  0  0  0  0
 18 19  1  0  0  0
 19 20  1  0  0  0
 20 21  2  0  0  0
 20 17  1  0  0  0
 17  1  1  0  0  0
  1 24  1  0  0  0
 24 25  1  0  0  0
 25 26  2  0  0  0
 26 27  1  0  0  0
 27 28  2  0  0  0
 28 29  1  0  0  0
 29 30  2  0  0  0
 28 31  1  0  0  0
 31 32  1  0  0  0
 31 33  2  0  0  0
  1  2  1  0  0  0
  2  3  2  0  0  0
  2  4  2  0  0  0
  2  5  1  0  0  0
  5  6  2  0  0  0
  6  7  1  0  0  0
  7  8  2  0  0  0
  8  9  1  0  0  0
  9 10  2  0  0  0
  8 11  1  0  0  0
 11 12  2  0  0  0
 12 13  1  0  0  0
 13 14  2  0  0  0
 14 15  1  0  0  0
 15 16  2  0  0  0
 30 25  1  0  0  0
 10  5  1  0  0  0
 16 11  1  0  0  0
 18 22  1  0  0  0
 19 23  1  0  0  0
M  CHG 1  31   1
M  CHG 1  32  -1
M  END
> <minimizedAffinity>
-6.08365

> <CNNscore>
0.3528577387

> <CNNaffinity>
5.5195693970

> <CNN_VS>
1.9476227760

> <CNNaffinity_variance>
0.1411466449

$$$$
[H]ON([H])C(=O)C([H])([H])N(C([H])([H])c1c([H])c([H])c([N+](=O)[O-])c([H])c1[H])S(=O)(=O)c1c([H])c([H])c(-c2c([H])c([H])c([H])c([H])c2[H])c([H])c1[H]


 33 35  0  0  0  0  0  0  0  0999 V2000
    3.1262    3.1193    9.3655 N   0  0  0  0  0  0  0  0  0  0  0  0
    2.3645    3.8565   10.6552 S   0  0  0  0  0  0  0  0  0  0  0  0
    2.6518    5.3313   10.6357 O   0  0  0  0  0  0  0  0  0  0  0  0
    0.8581    3.7403   10.4237 O   0  0  0  0  0  0  0  0  0  0  0  0
    2.6503    3.2962   12.2473 C   0  0  0  0  0  0  0  0  0  0  0  0
    3.5390    4.0063   13.0258 C   0  0  0  0  0  0  0  0  0  0  0  0
    3.8342    3.6261   14.3302 C   0  0  0  0  0  0  0  0  0  0  0  0
    3.2315    2.5116   14.8772 C   0  0  0  0  0  0  0  0  0  0  0  0
    2.3474    1.8201   14.0777 C   0  0  0  0  0  0  0  0  0  0  0  0
    2.0556    2.1855   12.8060 C   0  0  0  0  0  0  0  0  0  0  0  0
    3.5160    2.0802   16.2451 C   0  0  0  0  0  0  0  0  0  0  0  0
    3.0500    0.9256   16.7879 C   0  0  0  0  0  0  0  0  0  0  0  0
    3.3823    0.6188   18.0922 C   0  0  0  0  0  0  0  0  0  0  0  0
    4.1701    1.4365   18.8719 C   0  0  0  0  0  0  0  0  0  0  0  0
    4.6463    2.6163   18.3172 C   0  0  0  0  0  0  0  0  0  0  0  0
    4.3127    2.9211   17.0127 C   0  0  0  0  0  0  0  0  0  0  0  0
    3.7670    4.1743    8.5688 C   0  0  0  0  0  0  0  0  0  0  0  0
    3.5825    4.5576    4.8337 O   0  0  0  0  0  0  0  0  0  0  0  0
    4.0274    4.7023    6.1226 N   0  0  0  0  0  0  0  0  0  0  0  0
    3.3394    4.0606    7.1676 C   0  0  0  0  0  0  0  0  0  0  0  0
    2.3274    3.3707    6.8943 O   0  0  0  0  0  0  0  0  0  0  0  0
    3.9518    3.6927    4.5195 H   0  0  0  0  0  0  0  0  0  0  0  0
    4.8659    5.3064    6.2080 H   0  0  0  0  0  0  0  0  0  0  0  0
    4.0604    2.0739    9.6628 C   0  0  0  0  0  0  0  0  0  0  0  0
    3.5413    0.6980    9.5075 C   0  0  0  0  0  0  0  0  0  0  0  0
    4.3023   -0.4354    9.5867 C   0  0  0  0  0  0  0  0  0  0  0  0
    3.7879   -1.6960    9.4353 C   0  0  0  0  0  0  0  0  0  0  0  0
    2.4476   -1.8525    9.1921 C   0  0  0  0  0  0  0  0  0  0  0  0
    1.6384   -0.7366    9.1038 C   0  0  0  0  0  0  0  0  0  0  0  0
    2.1851    0.5188    9.2606 C   0  0  0  0  0  0  0  0  0  0  0  0
    1.8867   -3.1750    9.0300 N   0  0  0  0  0  0  0  0  0  0  0  0
    2.5529   -4.2709    9.5018 O   0  0  0  0  0  0  0  0  0  0  0  0
    0.8002   -3.3190    8.4628 O   0  0  0  0  0  0  0  0  0  0  0  0
 18 19  1  0  0  0
 19 20  1  0  0  0
 20 21  2  0  0  0
 20 17  1  0  0  0
 17  1  1  0  0  0
  1 24  1  0  0  0
 24 25  1  0  0  0
 25 26  2  0  0  0
 26 27  1  0  0  0
 27 28  2  0  0  0
 28 29  1  0  0  0
 29 30  2  0  0  0
 28 31  1  0  0  0
 31 32  1  0  0  0
 31 33  2  0  0  0
  1  2  1  0  0  0
  2  3  2  0  0  0
  2  4  2  0  0  0
  2  5  1  0  0  0
  5  6  2  0  0  0
  6  7  1  0  0  0
  7  8  2  0  0  0
  8  9  1  0  0  0
  9 10  2  0  0  0
  8 11  1  0  0  0
 11 12  2  0  0  0
 12 13  1  0  0  0
 13 14  2  0  0  0
 14 15  1  0  0  0
 15 16  2  0  0  0
 30 25  1  0  0  0
 10  5  1  0  0  0
 16 11  1  0  0  0
 18 22  1  0  0  0
 19 23  1  0  0  0
M  CHG 1  31   1
M  CHG 1  32  -1
M  END
> <minimizedAffinity>
-6.04372

> <CNNscore>
0.2936867476

> <CNNaffinity>
5.4110436440

> <CNN_VS>
1.5891518593

> <CNNaffinity_variance>
0.2497595847

$$$$
[H]ON([H])C(=O)C([H])([H])N(C([H])([H])c1c([H])c([H])c([N+](=O)[O-])c([H])c1[H])S(=O)(=O)c1c([H])c([H])c(-c2c([H])c([H])c([H])c([H])c2[H])c([H])c1[H]


 33 35  0  0  0  0  0  0  0  0999 V2000
    2.6722    4.7093   13.2117 N   0  0  0  0  0  0  0  0  0  0  0  0
    1.7125    4.0106   12.0380 S   0  0  0  0  0  0  0  0  0  0  0  0
    0.4476    3.4926   12.6621 O   0  0  0  0  0  0  0  0  0  0  0  0
    1.2636    5.1241   11.0918 O   0  0  0  0  0  0  0  0  0  0  0  0
    2.3466    2.7661   11.0482 C   0  0  0  0  0  0  0  0  0  0  0  0
    1.6187    1.6004   10.9406 C   0  0  0  0  0  0  0  0  0  0  0  0
    2.0550    0.5354   10.1606 C   0  0  0  0  0  0  0  0  0  0  0  0
    3.2453    0.6291    9.4685 C   0  0  0  0  0  0  0  0  0  0  0  0
    3.9530    1.8049    9.5933 C   0  0  0  0  0  0  0  0  0  0  0  0
    3.5331    2.8462   10.3518 C   0  0  0  0  0  0  0  0  0  0  0  0
    3.7373   -0.4691    8.6378 C   0  0  0  0  0  0  0  0  0  0  0  0
    2.9899   -1.5477    8.2873 C   0  0  0  0  0  0  0  0  0  0  0  0
    3.5591   -2.5268    7.4978 C   0  0  0  0  0  0  0  0  0  0  0  0
    4.8589   -2.4578    7.0473 C   0  0  0  0  0  0  0  0  0  0  0  0
    5.6226   -1.3556    7.4056 C   0  0  0  0  0  0  0  0  0  0  0  0
    5.0514   -0.3778    8.1951 C   0  0  0  0  0  0  0  0  0  0  0  0
    1.8091    5.0257   14.3577 C   0  0  0  0  0  0  0  0  0  0  0  0
    2.0316    8.7743   14.5349 O   0  0  0  0  0  0  0  0  0  0  0  0
    2.4146    7.4582   14.5748 N   0  0  0  0  0  0  0  0  0  0  0  0
    1.4615    6.4532   14.3319 C   0  0  0  0  0  0  0  0  0  0  0  0
    0.2767    6.7868   14.0872 O   0  0  0  0  0  0  0  0  0  0  0  0
    2.0398    9.0255   13.5758 H   0  0  0  0  0  0  0  0  0  0  0  0
    3.4182    7.3234   14.7978 H   0  0  0  0  0  0  0  0  0  0  0  0
    3.8285    3.9775   13.6380 C   0  0  0  0  0  0  0  0  0  0  0  0
    3.6248    3.0985   14.8095 C   0  0  0  0  0  0  0  0  0  0  0  0
    4.0362    3.3875   16.0813 C   0  0  0  0  0  0  0  0  0  0  0  0
    3.8325    2.5477   17.1443 C   0  0  0  0  0  0  0  0  0  0  0  0
    3.1869    1.3543   16.9466 C   0  0  0  0  0  0  0  0  0  0  0  0
    2.7526    1.0187   15.6791 C   0  0  0  0  0  0  0  0  0  0  0  0
    2.9722    1.8844   14.6294 C   0  0  0  0  0  0  0  0  0  0  0  0
    2.9626    0.4554   18.0563 N   0  0  0  0  0  0  0  0  0  0  0  0
    3.5416    0.6979   19.2701 O   0  0  0  0  0  0  0  0  0  0  0  0
    2.2447   -0.5376   17.9105 O   0  0  0  0  0  0  0  0  0  0  0  0
 18 19  1  0  0  0
 19 20  1  0  0  0
 20 21  2  0  0  0
 20 17  1  0  0  0
 17  1  1  0  0  0
  1 24  1  0  0  0
 24 25  1  0  0  0
 25 26  2  0  0  0
 26 27  1  0  0  0
 27 28  2  0  0  0
 28 29  1  0  0  0
 29 30  2  0  0  0
 28 31  1  0  0  0
 31 32  1  0  0  0
 31 33  2  0  0  0
  1  2  1  0  0  0
  2  3  2  0  0  0
  2  4  2  0  0  0
  2  5  1  0  0  0
  5  6  2  0  0  0
  6  7  1  0  0  0
  7  8  2  0  0  0
  8  9  1  0  0  0
  9 10  2  0  0  0
  8 11  1  0  0  0
 11 12  2  0  0  0
 12 13  1  0  0  0
 13 14  2  0  0  0
 14 15  1  0  0  0
 15 16  2  0  0  0
 30 25  1  0  0  0
 10  5  1  0  0  0
 16 11  1  0  0  0
 18 22  1  0  0  0
 19 23  1  0  0  0
M  CHG 1  31   1
M  CHG 1  32  -1
M  END
> <minimizedAffinity>
-7.06160

> <CNNscore>
0.2799925506

> <CNNaffinity>
5.4778151512

> <CNN_VS>
1.5337474346

> <CNNaffinity_variance>
0.1510285437

$$$$
[H]ON([H])C(=O)C([H])([H])N(C([H])([H])c1c([H])c([H])c([N+](=O)[O-])c([H])c1[H])S(=O)(=O)c1c([H])c([H])c(-c2c([H])c([H])c([H])c([H])c2[H])c([H])c1[H]


 33 35  0  0  0  0  0  0  0  0999 V2000
    2.2282    5.4316   14.8460 N   0  0  0  0  0  0  0  0  0  0  0  0
    2.9230    3.9700   15.2555 S   0  0  0  0  0  0  0  0  0  0  0  0
    1.9852    2.8492   14.9055 O   0  0  0  0  0  0  0  0  0  0  0  0
    4.1379    3.7714   14.3493 O   0  0  0  0  0  0  0  0  0  0  0  0
    3.4693    3.7047   16.8560 C   0  0  0  0  0  0  0  0  0  0  0  0
    4.0004    2.4682   17.1543 C   0  0  0  0  0  0  0  0  0  0  0  0
    4.4686    2.1612   18.4270 C   0  0  0  0  0  0  0  0  0  0  0  0
    4.4085    3.1063   19.4309 C   0  0  0  0  0  0  0  0  0  0  0  0
    3.8732    4.3339   19.1059 C   0  0  0  0  0  0  0  0  0  0  0  0
    3.4153    4.6390   17.8677 C   0  0  0  0  0  0  0  0  0  0  0  0
    4.8908    2.8214   20.7815 C   0  0  0  0  0  0  0  0  0  0  0  0
    5.8929    1.9478   21.0597 C   0  0  0  0  0  0  0  0  0  0  0  0
    6.2665    1.7566   22.3749 C   0  0  0  0  0  0  0  0  0  0  0  0
    5.6645    2.4164   23.4235 C   0  0  0  0  0  0  0  0  0  0  0  0
    4.6405    3.3091   23.1391 C   0  0  0  0  0  0  0  0  0  0  0  0
    4.2685    3.4987   21.8233 C   0  0  0  0  0  0  0  0  0  0  0  0
    3.2842    6.2785   14.2751 C   0  0  0  0  0  0  0  0  0  0  0  0
    2.7823    9.6867   15.7800 O   0  0  0  0  0  0  0  0  0  0  0  0
    2.5833    8.5892   14.9825 N   0  0  0  0  0  0  0  0  0  0  0  0
    3.4459    7.4847   15.0986 C   0  0  0  0  0  0  0  0  0  0  0  0
    4.3841    7.5322   15.9307 O   0  0  0  0  0  0  0  0  0  0  0  0
    2.3537    9.4679   16.6469 H   0  0  0  0  0  0  0  0  0  0  0  0
    1.7804    8.6863   14.3337 H   0  0  0  0  0  0  0  0  0  0  0  0
    1.0859    5.3979   13.9810 C   0  0  0  0  0  0  0  0  0  0  0  0
    1.3693    5.6324   12.5488 C   0  0  0  0  0  0  0  0  0  0  0  0
    1.9233    4.7114   11.7032 C   0  0  0  0  0  0  0  0  0  0  0  0
    2.1746    4.9637   10.3804 C   0  0  0  0  0  0  0  0  0  0  0  0
    1.8633    6.1924    9.8574 C   0  0  0  0  0  0  0  0  0  0  0  0
    1.3016    7.1553   10.6730 C   0  0  0  0  0  0  0  0  0  0  0  0
    1.0607    6.8718   12.0001 C   0  0  0  0  0  0  0  0  0  0  0  0
    2.1208    6.4768    8.4637 N   0  0  0  0  0  0  0  0  0  0  0  0
    1.8748    7.7212    7.9553 O   0  0  0  0  0  0  0  0  0  0  0  0
    2.5654    5.5934    7.7256 O   0  0  0  0  0  0  0  0  0  0  0  0
 18 19  1  0  0  0
 19 20  1  0  0  0
 20 21  2  0  0  0
 20 17  1  0  0  0
 17  1  1  0  0  0
  1 24  1  0  0  0
 24 25  1  0  0  0
 25 26  2  0  0  0
 26 27  1  0  0  0
 27 28  2  0  0  0
 28 29  1  0  0  0
 29 30  2  0  0  0
 28 31  1  0  0  0
 31 32  1  0  0  0
 31 33  2  0  0  0
  1  2  1  0  0  0
  2  3  2  0  0  0
  2  4  2  0  0  0
  2  5  1  0  0  0
  5  6  2  0  0  0
  6  7  1  0  0  0
  7  8  2  0  0  0
  8  9  1  0  0  0
  9 10  2  0  0  0
  8 11  1  0  0  0
 11 12  2  0  0  0
 12 13  1  0  0  0
 13 14  2  0  0  0
 14 15  1  0  0  0
 15 16  2  0  0  0
 30 25  1  0  0  0
 10  5  1  0  0  0
 16 11  1  0  0  0
 18 22  1  0  0  0
 19 23  1  0  0  0
M  CHG 1  31   1
M  CHG 1  32  -1
M  END
> <minimizedAffinity>
-7.28835

> <CNNscore>
0.2799474001

> <CNNaffinity>
5.6757621765

> <CNN_VS>
1.5889148712

> <CNNaffinity_variance>
0.0493782610

$$$$
[H]ON([H])C(=O)C([H])([H])N(C([H])([H])c1c([H])c([H])c([N+](=O)[O-])c([H])c1[H])S(=O)(=O)c1c([H])c([H])c(-c2c([H])c([H])c([H])c([H])c2[H])c([H])c1[H]


 33 35  0  0  0  0  0  0  0  0999 V2000
    2.0230    4.8013   12.5187 N   0  0  0  0  0  0  0  0  0  0  0  0
    3.1567    3.6129   12.8173 S   0  0  0  0  0  0  0  0  0  0  0  0
    2.9863    2.4928   11.8302 O   0  0  0  0  0  0  0  0  0  0  0  0
    4.5321    4.2065   12.5137 O   0  0  0  0  0  0  0  0  0  0  0  0
    3.2687    2.9142   14.3761 C   0  0  0  0  0  0  0  0  0  0  0  0
    4.0980    3.5242   15.2928 C   0  0  0  0  0  0  0  0  0  0  0  0
    4.2529    3.0279   16.5823 C   0  0  0  0  0  0  0  0  0  0  0  0
    3.5667    1.8962   16.9732 C   0  0  0  0  0  0  0  0  0  0  0  0
    2.7446    1.3063   16.0376 C   0  0  0  0  0  0  0  0  0  0  0  0
    2.5894    1.7850   14.7796 C   0  0  0  0  0  0  0  0  0  0  0  0
    3.7032    1.3442   18.3203 C   0  0  0  0  0  0  0  0  0  0  0  0
    4.6236    1.7697   19.2239 C   0  0  0  0  0  0  0  0  0  0  0  0
    4.6621    1.1748   20.4690 C   0  0  0  0  0  0  0  0  0  0  0  0
    3.8033    0.1629   20.8377 C   0  0  0  0  0  0  0  0  0  0  0  0
    2.8627   -0.2719   19.9142 C   0  0  0  0  0  0  0  0  0  0  0  0
    2.8261    0.3244   18.6697 C   0  0  0  0  0  0  0  0  0  0  0  0
    2.3225    5.9315   13.4083 C   0  0  0  0  0  0  0  0  0  0  0  0
   -0.9025    6.9405   15.0556 O   0  0  0  0  0  0  0  0  0  0  0  0
    0.0780    6.8315   14.1033 N   0  0  0  0  0  0  0  0  0  0  0  0
    1.2374    6.0880   14.3868 C   0  0  0  0  0  0  0  0  0  0  0  0
    1.3488    5.5427   15.5115 O   0  0  0  0  0  0  0  0  0  0  0  0
   -1.4401    6.1107   14.9811 H   0  0  0  0  0  0  0  0  0  0  0  0
   -0.1370    7.3385   13.2247 H   0  0  0  0  0  0  0  0  0  0  0  0
    1.8800    5.2492   11.1648 C   0  0  0  0  0  0  0  0  0  0  0  0
    0.4896    5.3265   10.6672 C   0  0  0  0  0  0  0  0  0  0  0  0
   -0.0321    6.3836    9.9740 C   0  0  0  0  0  0  0  0  0  0  0  0
   -1.3273    6.4227    9.5293 C   0  0  0  0  0  0  0  0  0  0  0  0
   -2.1586    5.3615    9.7800 C   0  0  0  0  0  0  0  0  0  0  0  0
   -1.6763    4.2707   10.4768 C   0  0  0  0  0  0  0  0  0  0  0  0
   -0.3685    4.2605   10.9114 C   0  0  0  0  0  0  0  0  0  0  0  0
   -3.5283    5.3847    9.3183 N   0  0  0  0  0  0  0  0  0  0  0  0
   -4.0465    6.5135    8.7485 O   0  0  0  0  0  0  0  0  0  0  0  0
   -4.2366    4.3813    9.4377 O   0  0  0  0  0  0  0  0  0  0  0  0
 18 19  1  0  0  0
 19 20  1  0  0  0
 20 21  2  0  0  0
 20 17  1  0  0  0
 17  1  1  0  0  0
  1 24  1  0  0  0
 24 25  1  0  0  0
 25 26  2  0  0  0
 26 27  1  0  0  0
 27 28  2  0  0  0
 28 29  1  0  0  0
 29 30  2  0  0  0
 28 31  1  0  0  0
 31 32  1  0  0  0
 31 33  2  0  0  0
  1  2  1  0  0  0
  2  3  2  0  0  0
  2  4  2  0  0  0
  2  5  1  0  0  0
  5  6  2  0  0  0
  6  7  1  0  0  0
  7  8  2  0  0  0
  8  9  1  0  0  0
  9 10  2  0  0  0
  8 11  1  0  0  0
 11 12  2  0  0  0
 12 13  1  0  0  0
 13 14  2  0  0  0
 14 15  1  0  0  0
 15 16  2  0  0  0
 30 25  1  0  0  0
 10  5  1  0  0  0
 16 11  1  0  0  0
 18 22  1  0  0  0
 19 23  1  0  0  0
M  CHG 1  31   1
M  CHG 1  32  -1
M  END
> <minimizedAffinity>
-7.60811

> <CNNscore>
0.2698118389

> <CNNaffinity>
5.5659732819

> <CNN_VS>
1.5017654896

> <CNNaffinity_variance>
0.0710095316

$$$$
[H]ON([H])C(=O)C([H])([H])N(C([H])([H])c1c([H])c([H])c([N+](=O)[O-])c([H])c1[H])S(=O)(=O)c1c([H])c([H])c(-c2c([H])c([H])c([H])c([H])c2[H])c([H])c1[H]


 33 35  0  0  0  0  0  0  0  0999 V2000
    4.4947    2.9426   21.8314 N   0  0  0  0  0  0  0  0  0  0  0  0
    4.8376    1.7798   20.6838 S   0  0  0  0  0  0  0  0  0  0  0  0
    6.2854    1.3887   20.7779 O   0  0  0  0  0  0  0  0  0  0  0  0
    4.0587    0.5202   21.0622 O   0  0  0  0  0  0  0  0  0  0  0  0
    4.4909    2.0814   19.0348 C   0  0  0  0  0  0  0  0  0  0  0  0
    3.6312    1.2161   18.3928 C   0  0  0  0  0  0  0  0  0  0  0  0
    3.2920    1.3812   17.0546 C   0  0  0  0  0  0  0  0  0  0  0  0
    3.8198    2.4330   16.3336 C   0  0  0  0  0  0  0  0  0  0  0  0
    4.6763    3.2829   16.9993 C   0  0  0  0  0  0  0  0  0  0  0  0
    5.0106    3.1274   18.3031 C   0  0  0  0  0  0  0  0  0  0  0  0
    3.4871    2.6399   14.9249 C   0  0  0  0  0  0  0  0  0  0  0  0
    2.7372    1.7791   14.1891 C   0  0  0  0  0  0  0  0  0  0  0  0
    2.4858    2.0762   12.8646 C   0  0  0  0  0  0  0  0  0  0  0  0
    2.9645    3.2136   12.2528 C   0  0  0  0  0  0  0  0  0  0  0  0
    3.7307    4.0933   13.0048 C   0  0  0  0  0  0  0  0  0  0  0  0
    3.9809    3.7941   14.3291 C   0  0  0  0  0  0  0  0  0  0  0  0
    5.6531    3.0313   22.7307 C   0  0  0  0  0  0  0  0  0  0  0  0
    6.0498    1.2386   26.0111 O   0  0  0  0  0  0  0  0  0  0  0  0
    6.3812    1.9064   24.8603 N   0  0  0  0  0  0  0  0  0  0  0  0
    5.3635    2.3105   23.9780 C   0  0  0  0  0  0  0  0  0  0  0  0
    4.1710    2.0454   24.2648 O   0  0  0  0  0  0  0  0  0  0  0  0
    5.7913    1.9406   26.6619 H   0  0  0  0  0  0  0  0  0  0  0  0
    7.4012    2.0505   24.7417 H   0  0  0  0  0  0  0  0  0  0  0  0
    4.1218    4.2434   21.3593 C   0  0  0  0  0  0  0  0  0  0  0  0
    5.2065    5.2485   21.3505 C   0  0  0  0  0  0  0  0  0  0  0  0
    5.9989    5.5301   20.2721 C   0  0  0  0  0  0  0  0  0  0  0  0
    6.9976    6.4674   20.3000 C   0  0  0  0  0  0  0  0  0  0  0  0
    7.2315    7.1693   21.4544 C   0  0  0  0  0  0  0  0  0  0  0  0
    6.4564    6.9196   22.5700 C   0  0  0  0  0  0  0  0  0  0  0  0
    5.4589    5.9704   22.5113 C   0  0  0  0  0  0  0  0  0  0  0  0
    8.2807    8.1625   21.5026 N   0  0  0  0  0  0  0  0  0  0  0  0
    8.8045    8.5570   22.7016 O   0  0  0  0  0  0  0  0  0  0  0  0
    8.7085    8.6593   20.4571 O   0  0  0  0  0  0  0  0  0  0  0  0
 18 19  1  0  0  0
 19 20  1  0  0  0
 20 21  2  0  0  0
 20 17  1  0  0  0
 17  1  1  0  0  0
  1 24  1  0  0  0
 24 25  1  0  0  0
 25 26  2  0  0  0
 26 27  1  0  0  0
 27 28  2  0  0  0
 28 29  1  0  0  0
 29 30  2  0  0  0
 28 31  1  0  0  0
 31 32  1  0  0  0
 31 33  2  0  0  0
  1  2  1  0  0  0
  2  3  2  0  0  0
  2  4  2  0  0  0
  2  5  1  0  0  0
  5  6  2  0  0  0
  6  7  1  0  0  0
  7  8  2  0  0  0
  8  9  1  0  0  0
  9 10  2  0  0  0
  8 11  1  0  0  0
 11 12  2  0  0  0
 12 13  1  0  0  0
 13 14  2  0  0  0
 14 15  1  0  0  0
 15 16  2  0  0  0
 30 25  1  0  0  0
 10  5  1  0  0  0
 16 11  1  0  0  0
 18 22  1  0  0  0
 19 23  1  0  0  0
M  CHG 1  31   1
M  CHG 1  32  -1
M  END
> <minimizedAffinity>
-8.42512

> <CNNscore>
0.2667436004

> <CNNaffinity>
6.0320043564

> <CNN_VS>
1.6089985371

> <CNNaffinity_variance>
0.1256570518

$$$$
[H]ON([H])C(=O)C([H])([H])N(C([H])([H])c1c([H])c([H])c([N+](=O)[O-])c([H])c1[H])S(=O)(=O)c1c([H])c([H])c(-c2c([H])c([H])c([H])c([H])c2[H])c([H])c1[H]


 33 35  0  0  0  0  0  0  0  0999 V2000
    4.2835    5.1226   16.8227 N   0  0  0  0  0  0  0  0  0  0  0  0
    2.9861    5.2553   15.7806 S   0  0  0  0  0  0  0  0  0  0  0  0
    1.7045    5.2409   16.5651 O   0  0  0  0  0  0  0  0  0  0  0  0
    3.0497    6.6444   15.1459 O   0  0  0  0  0  0  0  0  0  0  0  0
    2.8131    4.1449   14.4893 C   0  0  0  0  0  0  0  0  0  0  0  0
    3.3955    4.4702   13.2831 C   0  0  0  0  0  0  0  0  0  0  0  0
    3.3067    3.6306   12.1783 C   0  0  0  0  0  0  0  0  0  0  0  0
    2.6219    2.4362   12.2726 C   0  0  0  0  0  0  0  0  0  0  0  0
    2.0494    2.1354   13.4895 C   0  0  0  0  0  0  0  0  0  0  0  0
    2.1324    2.9493   14.5696 C   0  0  0  0  0  0  0  0  0  0  0  0
    2.5068    1.5269   11.1334 C   0  0  0  0  0  0  0  0  0  0  0  0
    3.5696    1.0413   10.4410 C   0  0  0  0  0  0  0  0  0  0  0  0
    3.3423    0.1878    9.3801 C   0  0  0  0  0  0  0  0  0  0  0  0
    2.0779   -0.1954    8.9904 C   0  0  0  0  0  0  0  0  0  0  0  0
    0.9918    0.3009    9.6979 C   0  0  0  0  0  0  0  0  0  0  0  0
    1.2216    1.1543   10.7585 C   0  0  0  0  0  0  0  0  0  0  0  0
    3.8070    5.4701   18.1683 C   0  0  0  0  0  0  0  0  0  0  0  0
    3.5026    8.9627   19.5253 O   0  0  0  0  0  0  0  0  0  0  0  0
    3.2534    7.6272   19.3392 N   0  0  0  0  0  0  0  0  0  0  0  0
    4.0231    6.9030   18.4116 C   0  0  0  0  0  0  0  0  0  0  0  0
    4.9214    7.5004   17.7705 O   0  0  0  0  0  0  0  0  0  0  0  0
    4.2671    9.0061   20.1553 H   0  0  0  0  0  0  0  0  0  0  0  0
    2.4786    7.2630   19.9242 H   0  0  0  0  0  0  0  0  0  0  0  0
    4.9860    3.8735   16.8433 C   0  0  0  0  0  0  0  0  0  0  0  0
    4.6614    2.9834   17.9787 C   0  0  0  0  0  0  0  0  0  0  0  0
    5.1197    3.1514   19.2561 C   0  0  0  0  0  0  0  0  0  0  0  0
    4.8002    2.3048   20.2847 C   0  0  0  0  0  0  0  0  0  0  0  0
    3.9827    1.2306   20.0446 C   0  0  0  0  0  0  0  0  0  0  0  0
    3.4949    1.0198   18.7697 C   0  0  0  0  0  0  0  0  0  0  0  0
    3.8340    1.8889   17.7552 C   0  0  0  0  0  0  0  0  0  0  0  0
    3.6343    0.3267   21.1176 N   0  0  0  0  0  0  0  0  0  0  0  0
    3.9502   -1.0002   21.0335 O   0  0  0  0  0  0  0  0  0  0  0  0
    3.0484    0.7520   22.1168 O   0  0  0  0  0  0  0  0  0  0  0  0
 18 19  1  0  0  0
 19 20  1  0  0  0
 20 21  2  0  0  0
 20 17  1  0  0  0
 17  1  1  0  0  0
  1 24  1  0  0  0
 24 25  1  0  0  0
 25 26  2  0  0  0
 26 27  1  0  0  0
 27 28  2  0  0  0
 28 29  1  0  0  0
 29 30  2  0  0  0
 28 31  1  0  0  0
 31 32  1  0  0  0
 31 33  2  0  0  0
  1  2  1  0  0  0
  2  3  2  0  0  0
  2  4  2  0  0  0
  2  5  1  0  0  0
  5  6  2  0  0  0
  6  7  1  0  0  0
  7  8  2  0  0  0
  8  9  1  0  0  0
  9 10  2  0  0  0
  8 11  1  0  0  0
 11 12  2  0  0  0
 12 13  1  0  0  0
 13 14  2  0  0  0
 14 15  1  0  0  0
 15 16  2  0  0  0
 30 25  1  0  0  0
 10  5  1  0  0  0
 16 11  1  0  0  0
 18 22  1  0  0  0
 19 23  1  0  0  0
M  CHG 1  31   1
M  CHG 1  32  -1
M  END
> <minimizedAffinity>
-8.12604

> <CNNscore>
0.2645641565

> <CNNaffinity>
5.8183031082

> <CNN_VS>
1.5393145084

> <CNNaffinity_variance>
0.2035068572

$$$$
[H]ON([H])C(=O)C([H])([H])N(C([H])([H])c1c([H])c([H])c([N+](=O)[O-])c([H])c1[H])S(=O)(=O)c1c([H])c([H])c(-c2c([H])c([H])c([H])c([H])c2[H])c([H])c1[H]


 33 35  0  0  0  0  0  0  0  0999 V2000
    3.9911    2.5923   21.2103 N   0  0  0  0  0  0  0  0  0  0  0  0
    4.2730    1.3940   20.0826 S   0  0  0  0  0  0  0  0  0  0  0  0
    5.6908    0.9108   20.2027 O   0  0  0  0  0  0  0  0  0  0  0  0
    3.4084    0.1931   20.4657 O   0  0  0  0  0  0  0  0  0  0  0  0
    3.9692    1.6951   18.4251 C   0  0  0  0  0  0  0  0  0  0  0  0
    4.5656    2.7995   17.8554 C   0  0  0  0  0  0  0  0  0  0  0  0
    4.3760    3.1239   16.5167 C   0  0  0  0  0  0  0  0  0  0  0  0
    3.5733    2.3313   15.7216 C   0  0  0  0  0  0  0  0  0  0  0  0
    2.9894    1.2336   16.3160 C   0  0  0  0  0  0  0  0  0  0  0  0
    3.1703    0.9123   17.6198 C   0  0  0  0  0  0  0  0  0  0  0  0
    3.3499    2.6395   14.3098 C   0  0  0  0  0  0  0  0  0  0  0  0
    2.6101    1.8663   13.4734 C   0  0  0  0  0  0  0  0  0  0  0  0
    2.4664    2.2548   12.1565 C   0  0  0  0  0  0  0  0  0  0  0  0
    3.0434    3.3986   11.6505 C   0  0  0  0  0  0  0  0  0  0  0  0
    3.7993    4.1888   12.5053 C   0  0  0  0  0  0  0  0  0  0  0  0
    3.9417    3.7982   13.8217 C   0  0  0  0  0  0  0  0  0  0  0  0
    3.5360    1.9390   22.4450 C   0  0  0  0  0  0  0  0  0  0  0  0
    6.1737    2.2029   25.1105 O   0  0  0  0  0  0  0  0  0  0  0  0
    5.4600    1.7074   24.0498 N   0  0  0  0  0  0  0  0  0  0  0  0
    4.3403    2.4157   23.5786 C   0  0  0  0  0  0  0  0  0  0  0  0
    4.0176    3.4876   24.1458 O   0  0  0  0  0  0  0  0  0  0  0  0
    6.7881    2.8795   24.7259 H   0  0  0  0  0  0  0  0  0  0  0  0
    5.8284    0.8102   23.6830 H   0  0  0  0  0  0  0  0  0  0  0  0
    5.0640    3.5015   21.4866 C   0  0  0  0  0  0  0  0  0  0  0  0
    4.9499    4.8289   20.8449 C   0  0  0  0  0  0  0  0  0  0  0  0
    5.9203    5.7921   20.8695 C   0  0  0  0  0  0  0  0  0  0  0  0
    5.7798    7.0136   20.2653 C   0  0  0  0  0  0  0  0  0  0  0  0
    4.6184    7.3059   19.5976 C   0  0  0  0  0  0  0  0  0  0  0  0
    3.6095    6.3640   19.5455 C   0  0  0  0  0  0  0  0  0  0  0  0
    3.7801    5.1439   20.1632 C   0  0  0  0  0  0  0  0  0  0  0  0
    4.4522    8.5893   18.9536 N   0  0  0  0  0  0  0  0  0  0  0  0
    3.3443    9.3494   19.2028 O   0  0  0  0  0  0  0  0  0  0  0  0
    5.3137    9.0044   18.1736 O   0  0  0  0  0  0  0  0  0  0  0  0
 18 19  1  0  0  0
 19 20  1  0  0  0
 20 21  2  0  0  0
 20 17  1  0  0  0
 17  1  1  0  0  0
  1 24  1  0  0  0
 24 25  1  0  0  0
 25 26  2  0  0  0
 26 27  1  0  0  0
 27 28  2  0  0  0
 28 29  1  0  0  0
 29 30  2  0  0  0
 28 31  1  0  0  0
 31 32  1  0  0  0
 31 33  2  0  0  0
  1  2  1  0  0  0
  2  3  2  0  0  0
  2  4  2  0  0  0
  2  5  1  0  0  0
  5  6  2  0  0  0
  6  7  1  0  0  0
  7  8  2  0  0  0
  8  9  1  0  0  0
  9 10  2  0  0  0
  8 11  1  0  0  0
 11 12  2  0  0  0
 12 13  1  0  0  0
 13 14  2  0  0  0
 14 15  1  0  0  0
 15 16  2  0  0  0
 30 25  1  0  0  0
 10  5  1  0  0  0
 16 11  1  0  0  0
 18 22  1  0  0  0
 19 23  1  0  0  0
M  CHG 1  31   1
M  CHG 1  32  -1
M  END
> <minimizedAffinity>
-8.73894

> <CNNscore>
0.2607224286

> <CNNaffinity>
6.1231408119

> <CNN_VS>
1.5964401960

> <CNNaffinity_variance>
0.1189403683

$$$$
[H]ON([H])C(=O)C([H])([H])N(C([H])([H])c1c([H])c([H])c([N+](=O)[O-])c([H])c1[H])S(=O)(=O)c1c([H])c([H])c(-c2c([H])c([H])c([H])c([H])c2[H])c([H])c1[H]


 33 35  0  0  0  0  0  0  0  0999 V2000
    1.3064    3.8903   12.9250 N   0  0  0  0  0  0  0  0  0  0  0  0
    2.7321    3.0862   13.2530 S   0  0  0  0  0  0  0  0  0  0  0  0
    2.7933    1.8182   12.4490 O   0  0  0  0  0  0  0  0  0  0  0  0
    3.8765    3.9501   12.7234 O   0  0  0  0  0  0  0  0  0  0  0  0
    3.1361    2.6923   14.8692 C   0  0  0  0  0  0  0  0  0  0  0  0
    3.9825    3.5460   15.5436 C   0  0  0  0  0  0  0  0  0  0  0  0
    4.3666    3.3072   16.8584 C   0  0  0  0  0  0  0  0  0  0  0  0
    3.8984    2.1915   17.5221 C   0  0  0  0  0  0  0  0  0  0  0  0
    3.0538    1.3549   16.8251 C   0  0  0  0  0  0  0  0  0  0  0  0
    2.6760    1.5822   15.5439 C   0  0  0  0  0  0  0  0  0  0  0  0
    4.2793    1.9063   18.9047 C   0  0  0  0  0  0  0  0  0  0  0  0
    5.1213    2.6831   19.6344 C   0  0  0  0  0  0  0  0  0  0  0  0
    5.4115    2.3165   20.9333 C   0  0  0  0  0  0  0  0  0  0  0  0
    4.8819    1.1914   21.5255 C   0  0  0  0  0  0  0  0  0  0  0  0
    4.0215    0.3975   20.7798 C   0  0  0  0  0  0  0  0  0  0  0  0
    3.7327    0.7660   19.4811 C   0  0  0  0  0  0  0  0  0  0  0  0
    1.5723    5.3299   13.0484 C   0  0  0  0  0  0  0  0  0  0  0  0
   -1.1035    7.0157   15.0808 O   0  0  0  0  0  0  0  0  0  0  0  0
   -0.4299    6.5272   13.9909 N   0  0  0  0  0  0  0  0  0  0  0  0
    0.8034    5.8771   14.1747 C   0  0  0  0  0  0  0  0  0  0  0  0
    1.2617    5.7627   15.3372 O   0  0  0  0  0  0  0  0  0  0  0  0
   -1.5909    6.2411   15.4623 H   0  0  0  0  0  0  0  0  0  0  0  0
   -0.9152    6.6985   13.0907 H   0  0  0  0  0  0  0  0  0  0  0  0
    0.6597    3.6018   11.6790 C   0  0  0  0  0  0  0  0  0  0  0  0
    0.8155    4.6336   10.6312 C   0  0  0  0  0  0  0  0  0  0  0  0
    1.9356    4.8032    9.8652 C   0  0  0  0  0  0  0  0  0  0  0  0
    2.0466    5.7725    8.9035 C   0  0  0  0  0  0  0  0  0  0  0  0
    0.9959    6.6248    8.6810 C   0  0  0  0  0  0  0  0  0  0  0  0
   -0.1569    6.4921    9.4301 C   0  0  0  0  0  0  0  0  0  0  0  0
   -0.2388    5.5071   10.3907 C   0  0  0  0  0  0  0  0  0  0  0  0
    1.0945    7.6535    7.6701 N   0  0  0  0  0  0  0  0  0  0  0  0
    0.0568    8.5175    7.4597 O   0  0  0  0  0  0  0  0  0  0  0  0
    2.1200    7.7552    6.9913 O   0  0  0  0  0  0  0  0  0  0  0  0
 18 19  1  0  0  0
 19 20  1  0  0  0
 20 21  2  0  0  0
 20 17  1  0  0  0
 17  1  1  0  0  0
  1 24  1  0  0  0
 24 25  1  0  0  0
 25 26  2  0  0  0
 26 27  1  0  0  0
 27 28  2  0  0  0
 28 29  1  0  0  0
 29 30  2  0  0  0
 28 31  1  0  0  0
 31 32  1  0  0  0
 31 33  2  0  0  0
  1  2  1  0  0  0
  2  3  2  0  0  0
  2  4  2  0  0  0
  2  5  1  0  0  0
  5  6  2  0  0  0
  6  7  1  0  0  0
  7  8  2  0  0  0
  8  9  1  0  0  0
  9 10  2  0  0  0
  8 11  1  0  0  0
 11 12  2  0  0  0
 12 13  1  0  0  0
 13 14  2  0  0  0
 14 15  1  0  0  0
 15 16  2  0  0  0
 30 25  1  0  0  0
 10  5  1  0  0  0
 16 11  1  0  0  0
 18 22  1  0  0  0
 19 23  1  0  0  0
M  CHG 1  31   1
M  CHG 1  32  -1
M  END
> <minimizedAffinity>
-7.51582

> <CNNscore>
0.2548208833

> <CNNaffinity>
5.5050644875

> <CNN_VS>
1.4028054476

> <CNNaffinity_variance>
0.0907019526

$$$$
[H]N=C(N([H])[H])N([H])C([H])([H])C([H])([H])C([H])([H])[C@@]([H])(C([H])=O)N([H])C(=O)[C@@]1([H])N(C(=O)[C@]([H])(N([H])S(=O)(=O)C([H])([H])c2c([H])c([H])c([H])c([H])c2[H])C([H])([H])c2c([H])c([H])c([H])c([H])c2[H])C([H])([H])C([H])([H])C1([H])[H]


 45 47  0  0  0  0  0  0  0  0999 V2000
    3.6899    6.4172   16.3343 C   0  0  0  0  0  0  0  0  0  0  0  0
    4.1609    7.7569   15.8603 C   0  0  0  0  0  0  0  0  0  0  0  0
    5.5823    7.8504   16.3531 C   0  0  0  0  0  0  0  0  0  0  0  0
    5.8087    6.5968   17.1746 C   0  0  0  0  0  0  0  0  0  0  0  0
    4.4709    6.2501   17.5926 N   0  0  0  0  0  0  0  0  0  0  0  0
    3.9129    5.9230   18.8501 C   0  0  0  0  0  0  0  0  0  0  0  0
    2.5851    5.9400   18.7642 O   0  0  0  0  0  0  0  0  0  0  0  0
    3.7508    5.2525   14.0641 N   0  0  0  0  0  0  0  0  0  0  0  0
    4.0117    5.2854   15.4762 C   0  0  0  0  0  0  0  0  0  0  0  0
    4.5500    4.2539   15.9422 O   0  0  0  0  0  0  0  0  0  0  0  0
    3.3017    6.1064   13.6735 H   0  0  0  0  0  0  0  0  0  0  0  0
    4.0660    4.1513   13.2175 C   0  0  0  0  0  0  0  0  0  0  0  0
    4.7543    4.5500   11.9479 C   0  0  0  0  0  0  0  0  0  0  0  0
    4.1083    4.7375   10.9080 O   0  0  0  0  0  0  0  0  0  0  0  0
    3.0238    3.1198   13.0330 C   0  0  0  0  0  0  0  0  0  0  0  0
    2.9319    2.0027   13.9872 C   0  0  0  0  0  0  0  0  0  0  0  0
    1.8817    2.0996   15.0520 C   0  0  0  0  0  0  0  0  0  0  0  0
    2.5119    2.1877   16.3531 N   0  0  0  0  0  0  0  0  0  0  0  0
    2.7353    3.1043   16.7568 H   0  0  0  0  0  0  0  0  0  0  0  0
    3.8271    1.0234   18.0323 N   0  0  0  0  0  0  0  0  0  0  0  0
    2.8097    1.0006   17.0484 C   0  0  0  0  0  0  0  0  0  0  0  0
    2.1268   -0.0500   16.7397 N   0  0  0  0  0  0  0  0  0  0  0  0
    4.8443    0.9316   17.8249 H   0  0  0  0  0  0  0  0  0  0  0  0
    3.5362    1.1376   19.0204 H   0  0  0  0  0  0  0  0  0  0  0  0
    2.2583   -0.9846   17.1849 H   0  0  0  0  0  0  0  0  0  0  0  0
    4.3982    5.5997   20.1399 C   0  0  0  0  0  0  0  0  0  0  0  0
    4.3586    6.7426   20.9965 N   0  0  0  0  0  0  0  0  0  0  0  0
    4.3640    6.4181   21.9879 H   0  0  0  0  0  0  0  0  0  0  0  0
    5.1012    8.1593   20.6623 S   0  0  0  0  0  0  0  0  0  0  0  0
    4.9890    9.0442   21.9462 O   0  0  0  0  0  0  0  0  0  0  0  0
    4.1979    8.9578   19.6876 O   0  0  0  0  0  0  0  0  0  0  0  0
    6.7251    8.3340   20.1266 C   0  0  0  0  0  0  0  0  0  0  0  0
    7.7800    7.5088   20.7498 C   0  0  0  0  0  0  0  0  0  0  0  0
    8.9464    7.2781   20.0323 C   0  0  0  0  0  0  0  0  0  0  0  0
    9.9813    6.5705   20.5897 C   0  0  0  0  0  0  0  0  0  0  0  0
    9.9194    6.0561   21.8780 C   0  0  0  0  0  0  0  0  0  0  0  0
    8.7684    6.2839   22.5861 C   0  0  0  0  0  0  0  0  0  0  0  0
    7.7416    6.9915   22.0201 C   0  0  0  0  0  0  0  0  0  0  0  0
    5.5069    4.7006   20.5022 C   0  0  0  0  0  0  0  0  0  0  0  0
    5.3016    3.6406   21.4718 C   0  0  0  0  0  0  0  0  0  0  0  0
    4.1460    2.8406   21.2884 C   0  0  0  0  0  0  0  0  0  0  0  0
    3.8365    1.8711   22.2076 C   0  0  0  0  0  0  0  0  0  0  0  0
    4.6442    1.6730   23.3071 C   0  0  0  0  0  0  0  0  0  0  0  0
    5.7756    2.4424   23.5051 C   0  0  0  0  0  0  0  0  0  0  0  0
    6.0786    3.4282   22.5590 C   0  0  0  0  0  0  0  0  0  0  0  0
 20 21  1  0  0  0
 21 22  2  0  0  0
 21 18  1  0  0  0
 18 17  1  0  0  0
 17 16  1  0  0  0
 16 15  1  0  0  0
 15 12  1  0  0  0
 12  8  1  0  0  0
  8  9  1  0  0  0
  9 10  2  0  0  0
  9  1  1  0  0  0
  1  2  1  0  0  0
  2  3  1  0  0  0
  3  4  1  0  0  0
  4  5  1  0  0  0
  5  6  1  0  0  0
  6  7  2  0  0  0
  6 26  1  0  0  0
 26 39  1  0  0  0
 39 40  1  0  0  0
 40 41  2  0  0  0
 41 42  1  0  0  0
 42 43  2  0  0  0
 43 44  1  0  0  0
 44 45  2  0  0  0
 26 27  1  0  0  0
 27 29  1  0  0  0
 29 30  2  0  0  0
 29 31  2  0  0  0
 29 32  1  0  0  0
 32 33  1  0  0  0
 33 34  2  0  0  0
 34 35  1  0  0  0
 35 36  2  0  0  0
 36 37  1  0  0  0
 37 38  2  0  0  0
 12 13  1  0  0  0
 13 14  2  0  0  0
  5  1  1  0  0  0
 45 40  1  0  0  0
 38 33  1  0  0  0
 20 23  1  0  0  0
 20 24  1  0  0  0
 22 25  1  0  0  0
 18 19  1  0  0  0
  8 11  1  0  0  0
 27 28  1  0  0  0
M  END
> <minimizedAffinity>
-7.79318

> <CNNscore>
0.2837254107

> <CNNaffinity>
6.7438039780

> <CNN_VS>
1.9133886099

> <CNNaffinity_variance>
0.1314933002

$$$$
[H]N=C(N([H])[H])N([H])C([H])([H])C([H])([H])C([H])([H])[C@@]([H])(C([H])=O)N([H])C(=O)[C@@]1([H])N(C(=O)[C@]([H])(N([H])S(=O)(=O)C([H])([H])c2c([H])c([H])c([H])c([H])c2[H])C([H])([H])c2c([H])c([H])c([H])c([H])c2[H])C([H])([H])C([H])([H])C1([H])[H]


 45 47  0  0  0  0  0  0  0  0999 V2000
    4.3579    4.7956   15.9778 C   0  0  0  0  0  0  0  0  0  0  0  0
    3.5705    3.5662   15.6463 C   0  0  0  0  0  0  0  0  0  0  0  0
    2.2530    3.7634   16.3516 C   0  0  0  0  0  0  0  0  0  0  0  0
    2.4029    5.0520   17.1355 C   0  0  0  0  0  0  0  0  0  0  0  0
    3.8311    5.1364   17.3298 N   0  0  0  0  0  0  0  0  0  0  0  0
    4.6322    5.3705   18.4713 C   0  0  0  0  0  0  0  0  0  0  0  0
    5.9018    5.0911   18.1873 O   0  0  0  0  0  0  0  0  0  0  0  0
    4.6444    7.2644   15.3977 N   0  0  0  0  0  0  0  0  0  0  0  0
    4.1278    5.9525   15.1237 C   0  0  0  0  0  0  0  0  0  0  0  0
    3.4482    5.8563   14.0751 O   0  0  0  0  0  0  0  0  0  0  0  0
    5.2075    7.3490   16.2690 H   0  0  0  0  0  0  0  0  0  0  0  0
    4.4273    8.3998   14.5657 C   0  0  0  0  0  0  0  0  0  0  0  0
    3.0713    9.0145   14.7335 C   0  0  0  0  0  0  0  0  0  0  0  0
    2.2715    9.0539   13.7887 O   0  0  0  0  0  0  0  0  0  0  0  0
    4.8683    8.3017   13.1586 C   0  0  0  0  0  0  0  0  0  0  0  0
    6.2430    8.6875   12.8007 C   0  0  0  0  0  0  0  0  0  0  0  0
    6.8040    8.1163   11.5337 C   0  0  0  0  0  0  0  0  0  0  0  0
    6.1608    8.7342   10.3925 N   0  0  0  0  0  0  0  0  0  0  0  0
    6.2176    9.7497   10.2559 H   0  0  0  0  0  0  0  0  0  0  0  0
    6.1866    6.9825    8.7086 N   0  0  0  0  0  0  0  0  0  0  0  0
    5.4614    7.9212    9.4808 C   0  0  0  0  0  0  0  0  0  0  0  0
    4.1837    8.0862    9.4045 N   0  0  0  0  0  0  0  0  0  0  0  0
    6.6873    7.2139    7.8244 H   0  0  0  0  0  0  0  0  0  0  0  0
    6.2172    6.0038    9.0480 H   0  0  0  0  0  0  0  0  0  0  0  0
    3.5612    7.5440    8.7661 H   0  0  0  0  0  0  0  0  0  0  0  0
    4.4268    5.8069   19.8022 C   0  0  0  0  0  0  0  0  0  0  0  0
    3.6879    7.0296   19.8254 N   0  0  0  0  0  0  0  0  0  0  0  0
    2.9787    6.9776   20.5886 H   0  0  0  0  0  0  0  0  0  0  0  0
    4.3356    8.4932   19.4956 S   0  0  0  0  0  0  0  0  0  0  0  0
    3.1771    9.3890   18.9485 O   0  0  0  0  0  0  0  0  0  0  0  0
    5.2125    8.3558   18.2244 O   0  0  0  0  0  0  0  0  0  0  0  0
    5.1904    9.4818   20.6119 C   0  0  0  0  0  0  0  0  0  0  0  0
    6.3548    8.9185   21.3256 C   0  0  0  0  0  0  0  0  0  0  0  0
    6.2441    8.6908   22.6909 C   0  0  0  0  0  0  0  0  0  0  0  0
    7.2740    8.1121   23.3887 C   0  0  0  0  0  0  0  0  0  0  0  0
    8.4612    7.7298   22.7782 C   0  0  0  0  0  0  0  0  0  0  0  0
    8.5703    7.9544   21.4308 C   0  0  0  0  0  0  0  0  0  0  0  0
    7.5361    8.5326   20.7441 C   0  0  0  0  0  0  0  0  0  0  0  0
    5.3493    5.7200   20.9469 C   0  0  0  0  0  0  0  0  0  0  0  0
    5.1169    4.7503   22.0011 C   0  0  0  0  0  0  0  0  0  0  0  0
    6.0671    3.7040   22.1090 C   0  0  0  0  0  0  0  0  0  0  0  0
    5.8753    2.7024   23.0258 C   0  0  0  0  0  0  0  0  0  0  0  0
    4.7635    2.7100   23.8408 C   0  0  0  0  0  0  0  0  0  0  0  0
    3.8245    3.7207   23.7518 C   0  0  0  0  0  0  0  0  0  0  0  0
    4.0332    4.7360   22.8113 C   0  0  0  0  0  0  0  0  0  0  0  0
 20 21  1  0  0  0
 21 22  2  0  0  0
 21 18  1  0  0  0
 18 17  1  0  0  0
 17 16  1  0  0  0
 16 15  1  0  0  0
 15 12  1  0  0  0
 12  8  1  0  0  0
  8  9  1  0  0  0
  9 10  2  0  0  0
  9  1  1  0  0  0
  1  2  1  0  0  0
  2  3  1  0  0  0
  3  4  1  0  0  0
  4  5  1  0  0  0
  5  6  1  0  0  0
  6  7  2  0  0  0
  6 26  1  0  0  0
 26 39  1  0  0  0
 39 40  1  0  0  0
 40 41  2  0  0  0
 41 42  1  0  0  0
 42 43  2  0  0  0
 43 44  1  0  0  0
 44 45  2  0  0  0
 26 27  1  0  0  0
 27 29  1  0  0  0
 29 30  2  0  0  0
 29 31  2  0  0  0
 29 32  1  0  0  0
 32 33  1  0  0  0
 33 34  2  0  0  0
 34 35  1  0  0  0
 35 36  2  0  0  0
 36 37  1  0  0  0
 37 38  2  0  0  0
 12 13  1  0  0  0
 13 14  2  0  0  0
  5  1  1  0  0  0
 45 40  1  0  0  0
 38 33  1  0  0  0
 20 23  1  0  0  0
 20 24  1  0  0  0
 22 25  1  0  0  0
 18 19  1  0  0  0
  8 11  1  0  0  0
 27 28  1  0  0  0
M  END
> <minimizedAffinity>
-7.82547

> <CNNscore>
0.2481001019

> <CNNaffinity>
5.9870390892

> <CNN_VS>
1.4853850603

> <CNNaffinity_variance>
0.3665756285

$$$$
[H]N=C(N([H])[H])N([H])C([H])([H])C([H])([H])C([H])([H])[C@@]([H])(C([H])=O)N([H])C(=O)[C@@]1([H])N(C(=O)[C@]([H])(N([H])S(=O)(=O)C([H])([H])c2c([H])c([H])c([H])c([H])c2[H])C([H])([H])c2c([H])c([H])c([H])c([H])c2[H])C([H])([H])C([H])([H])C1([H])[H]


 45 47  0  0  0  0  0  0  0  0999 V2000
    3.8243    3.8055   18.2678 C   0  0  0  0  0  0  0  0  0  0  0  0
    4.4283    2.6359   17.5546 C   0  0  0  0  0  0  0  0  0  0  0  0
    5.7186    3.1690   16.9863 C   0  0  0  0  0  0  0  0  0  0  0  0
    5.7271    4.6475   17.3200 C   0  0  0  0  0  0  0  0  0  0  0  0
    4.3208    4.9479   17.4492 N   0  0  0  0  0  0  0  0  0  0  0  0
    3.5030    5.9656   16.9062 C   0  0  0  0  0  0  0  0  0  0  0  0
    2.2233    5.6619   17.1087 O   0  0  0  0  0  0  0  0  0  0  0  0
    3.8062    5.0933   20.4713 N   0  0  0  0  0  0  0  0  0  0  0  0
    4.2793    4.0268   19.6334 C   0  0  0  0  0  0  0  0  0  0  0  0
    5.1308    3.2733   20.1607 O   0  0  0  0  0  0  0  0  0  0  0  0
    3.1005    5.7227   20.0362 H   0  0  0  0  0  0  0  0  0  0  0  0
    4.2431    5.3141   21.8088 C   0  0  0  0  0  0  0  0  0  0  0  0
    5.7173    5.5543   21.9251 C   0  0  0  0  0  0  0  0  0  0  0  0
    6.1596    6.4291   22.6820 O   0  0  0  0  0  0  0  0  0  0  0  0
    3.6992    4.4222   22.8540 C   0  0  0  0  0  0  0  0  0  0  0  0
    4.6047    3.5128   23.5749 C   0  0  0  0  0  0  0  0  0  0  0  0
    4.3417    2.0431   23.4444 C   0  0  0  0  0  0  0  0  0  0  0  0
    3.3942    1.8096   22.3740 N   0  0  0  0  0  0  0  0  0  0  0  0
    2.5672    2.4093   22.2775 H   0  0  0  0  0  0  0  0  0  0  0  0
    4.9586    0.4738   21.0803 N   0  0  0  0  0  0  0  0  0  0  0  0
    3.6280    0.7521   21.4749 C   0  0  0  0  0  0  0  0  0  0  0  0
    2.5987    0.0935   21.0597 N   0  0  0  0  0  0  0  0  0  0  0  0
    5.4614    0.9785   20.3197 H   0  0  0  0  0  0  0  0  0  0  0  0
    5.4596   -0.2818   21.5823 H   0  0  0  0  0  0  0  0  0  0  0  0
    2.6472   -0.7077   20.3928 H   0  0  0  0  0  0  0  0  0  0  0  0
    3.6985    7.1855   16.2153 C   0  0  0  0  0  0  0  0  0  0  0  0
    4.3159    6.9555   14.9474 N   0  0  0  0  0  0  0  0  0  0  0  0
    5.0970    6.2757   15.0740 H   0  0  0  0  0  0  0  0  0  0  0  0
    3.5026    6.9151   13.5307 S   0  0  0  0  0  0  0  0  0  0  0  0
    4.5335    6.5108   12.4272 O   0  0  0  0  0  0  0  0  0  0  0  0
    3.1955    8.3755   13.1105 O   0  0  0  0  0  0  0  0  0  0  0  0
    2.0986    5.9765   13.2112 C   0  0  0  0  0  0  0  0  0  0  0  0
    2.1279    4.5246   13.4821 C   0  0  0  0  0  0  0  0  0  0  0  0
    1.0512    3.7540   13.0632 C   0  0  0  0  0  0  0  0  0  0  0  0
    1.0572    2.3929   13.2352 C   0  0  0  0  0  0  0  0  0  0  0  0
    2.1208    1.7244   13.8269 C   0  0  0  0  0  0  0  0  0  0  0  0
    3.1833    2.4848   14.2401 C   0  0  0  0  0  0  0  0  0  0  0  0
    3.1670    3.8427   14.0635 C   0  0  0  0  0  0  0  0  0  0  0  0
    4.0814    8.4974   16.7641 C   0  0  0  0  0  0  0  0  0  0  0  0
    4.7571    8.5849   18.0454 C   0  0  0  0  0  0  0  0  0  0  0  0
    3.9700    9.0256   19.1387 C   0  0  0  0  0  0  0  0  0  0  0  0
    4.5535    9.2135   20.3654 C   0  0  0  0  0  0  0  0  0  0  0  0
    5.9004    8.9758   20.5377 C   0  0  0  0  0  0  0  0  0  0  0  0
    6.6863    8.5458   19.4848 C   0  0  0  0  0  0  0  0  0  0  0  0
    6.0771    8.3588   18.2387 C   0  0  0  0  0  0  0  0  0  0  0  0
 20 21  1  0  0  0
 21 22  2  0  0  0
 21 18  1  0  0  0
 18 17  1  0  0  0
 17 16  1  0  0  0
 16 15  1  0  0  0
 15 12  1  0  0  0
 12  8  1  0  0  0
  8  9  1  0  0  0
  9 10  2  0  0  0
  9  1  1  0  0  0
  1  2  1  0  0  0
  2  3  1  0  0  0
  3  4  1  0  0  0
  4  5  1  0  0  0
  5  6  1  0  0  0
  6  7  2  0  0  0
  6 26  1  0  0  0
 26 39  1  0  0  0
 39 40  1  0  0  0
 40 41  2  0  0  0
 41 42  1  0  0  0
 42 43  2  0  0  0
 43 44  1  0  0  0
 44 45  2  0  0  0
 26 27  1  0  0  0
 27 29  1  0  0  0
 29 30  2  0  0  0
 29 31  2  0  0  0
 29 32  1  0  0  0
 32 33  1  0  0  0
 33 34  2  0  0  0
 34 35  1  0  0  0
 35 36  2  0  0  0
 36 37  1  0  0  0
 37 38  2  0  0  0
 12 13  1  0  0  0
 13 14  2  0  0  0
  5  1  1  0  0  0
 45 40  1  0  0  0
 38 33  1  0  0  0
 20 23  1  0  0  0
 20 24  1  0  0  0
 22 25  1  0  0  0
 18 19  1  0  0  0
  8 11  1  0  0  0
 27 28  1  0  0  0
M  END
> <minimizedAffinity>
-7.38179

> <CNNscore>
0.2188724130

> <CNNaffinity>
6.5869626999

> <CNN_VS>
1.4417043924

> <CNNaffinity_variance>
0.2973543108

$$$$
[H]N=C(N([H])[H])N([H])C([H])([H])C([H])([H])C([H])([H])[C@@]([H])(C([H])=O)N([H])C(=O)[C@@]1([H])N(C(=O)[C@]([H])(N([H])S(=O)(=O)C([H])([H])c2c([H])c([H])c([H])c([H])c2[H])C([H])([H])c2c([H])c([H])c([H])c([H])c2[H])C([H])([H])C([H])([H])C1([H])[H]


 45 47  0  0  0  0  0  0  0  0999 V2000
    3.9836    3.9581   18.2448 C   0  0  0  0  0  0  0  0  0  0  0  0
    4.6740    2.8769   17.4731 C   0  0  0  0  0  0  0  0  0  0  0  0
    5.9501    3.5174   16.9900 C   0  0  0  0  0  0  0  0  0  0  0  0
    5.8659    4.9664   17.4270 C   0  0  0  0  0  0  0  0  0  0  0  0
    4.4416    5.1814   17.5269 N   0  0  0  0  0  0  0  0  0  0  0  0
    3.5862    6.1908   17.0280 C   0  0  0  0  0  0  0  0  0  0  0  0
    2.3196    5.8056   17.1628 O   0  0  0  0  0  0  0  0  0  0  0  0
    3.8891    5.1362   20.5069 N   0  0  0  0  0  0  0  0  0  0  0  0
    4.3820    4.1041   19.6380 C   0  0  0  0  0  0  0  0  0  0  0  0
    5.1981    3.3110   20.1629 O   0  0  0  0  0  0  0  0  0  0  0  0
    3.2127    5.7983   20.0741 H   0  0  0  0  0  0  0  0  0  0  0  0
    4.2706    5.2834   21.8712 C   0  0  0  0  0  0  0  0  0  0  0  0
    5.7485    5.4324   22.0669 C   0  0  0  0  0  0  0  0  0  0  0  0
    6.2077    6.3581   22.7496 O   0  0  0  0  0  0  0  0  0  0  0  0
    3.6255    4.3883   22.8544 C   0  0  0  0  0  0  0  0  0  0  0  0
    4.4560    3.4846   23.6671 C   0  0  0  0  0  0  0  0  0  0  0  0
    4.3629    2.0190   23.3681 C   0  0  0  0  0  0  0  0  0  0  0  0
    3.4739    1.8050   22.2448 N   0  0  0  0  0  0  0  0  0  0  0  0
    2.6940    2.4497   22.0745 H   0  0  0  0  0  0  0  0  0  0  0  0
    2.5986   -0.1042   21.0227 N   0  0  0  0  0  0  0  0  0  0  0  0
    3.6986    0.7040   21.3972 C   0  0  0  0  0  0  0  0  0  0  0  0
    4.9121    0.4968   21.0099 N   0  0  0  0  0  0  0  0  0  0  0  0
    2.2132   -0.8761   21.6073 H   0  0  0  0  0  0  0  0  0  0  0  0
    2.1525    0.0874   20.1071 H   0  0  0  0  0  0  0  0  0  0  0  0
    5.2004   -0.2865   20.3835 H   0  0  0  0  0  0  0  0  0  0  0  0
    3.7355    7.4660   16.4320 C   0  0  0  0  0  0  0  0  0  0  0  0
    4.2575    7.3474   15.1073 N   0  0  0  0  0  0  0  0  0  0  0  0
    4.4939    6.3471   14.9291 H   0  0  0  0  0  0  0  0  0  0  0  0
    3.7383    8.2374   13.8391 S   0  0  0  0  0  0  0  0  0  0  0  0
    4.6538    9.5027   13.7678 O   0  0  0  0  0  0  0  0  0  0  0  0
    2.3860    8.8876   14.2292 O   0  0  0  0  0  0  0  0  0  0  0  0
    3.5991    7.6814   12.2186 C   0  0  0  0  0  0  0  0  0  0  0  0
    4.6163    6.7506   11.6885 C   0  0  0  0  0  0  0  0  0  0  0  0
    4.3308    5.3916   11.6905 C   0  0  0  0  0  0  0  0  0  0  0  0
    5.2154    4.4910   11.1529 C   0  0  0  0  0  0  0  0  0  0  0  0
    6.4219    4.8827   10.5882 C   0  0  0  0  0  0  0  0  0  0  0  0
    6.7035    6.2238   10.5861 C   0  0  0  0  0  0  0  0  0  0  0  0
    5.8134    7.1141   11.1253 C   0  0  0  0  0  0  0  0  0  0  0  0
    4.1627    8.7268   17.0621 C   0  0  0  0  0  0  0  0  0  0  0  0
    4.8666    8.7081   18.3310 C   0  0  0  0  0  0  0  0  0  0  0  0
    4.1070    9.0664   19.4728 C   0  0  0  0  0  0  0  0  0  0  0  0
    4.7185    9.1528   20.6973 C   0  0  0  0  0  0  0  0  0  0  0  0
    6.0667    8.8930   20.8204 C   0  0  0  0  0  0  0  0  0  0  0  0
    6.8260    8.5423   19.7196 C   0  0  0  0  0  0  0  0  0  0  0  0
    6.1885    8.4585   18.4765 C   0  0  0  0  0  0  0  0  0  0  0  0
 20 21  1  0  0  0
 21 22  2  0  0  0
 21 18  1  0  0  0
 18 17  1  0  0  0
 17 16  1  0  0  0
 16 15  1  0  0  0
 15 12  1  0  0  0
 12  8  1  0  0  0
  8  9  1  0  0  0
  9 10  2  0  0  0
  9  1  1  0  0  0
  1  2  1  0  0  0
  2  3  1  0  0  0
  3  4  1  0  0  0
  4  5  1  0  0  0
  5  6  1  0  0  0
  6  7  2  0  0  0
  6 26  1  0  0  0
 26 39  1  0  0  0
 39 40  1  0  0  0
 40 41  2  0  0  0
 41 42  1  0  0  0
 42 43  2  0  0  0
 43 44  1  0  0  0
 44 45  2  0  0  0
 26 27  1  0  0  0
 27 29  1  0  0  0
 29 30  2  0  0  0
 29 31  2  0  0  0
 29 32  1  0  0  0
 32 33  1  0  0  0
 33 34  2  0  0  0
 34 35  1  0  0  0
 35 36  2  0  0  0
 36 37  1  0  0  0
 37 38  2  0  0  0
 12 13  1  0  0  0
 13 14  2  0  0  0
  5  1  1  0  0  0
 45 40  1  0  0  0
 38 33  1  0  0  0
 20 23  1  0  0  0
 20 24  1  0  0  0
 22 25  1  0  0  0
 18 19  1  0  0  0
  8 11  1  0  0  0
 27 28  1  0  0  0
M  END
> <minimizedAffinity>
-7.04066

> <CNNscore>
0.2153153121

> <CNNaffinity>
6.3530492783

> <CNN_VS>
1.3679088354

> <CNNaffinity_variance>
0.3331733346

$$$$
[H]N=C(N([H])[H])N([H])C([H])([H])C([H])([H])C([H])([H])[C@@]([H])(C([H])=O)N([H])C(=O)[C@@]1([H])N(C(=O)[C@]([H])(N([H])S(=O)(=O)C([H])([H])c2c([H])c([H])c([H])c([H])c2[H])C([H])([H])c2c([H])c([H])c([H])c([H])c2[H])C([H])([H])C([H])([H])C1([H])[H]


 45 47  0  0  0  0  0  0  0  0999 V2000
    4.0234    3.5520   14.5478 C   0  0  0  0  0  0  0  0  0  0  0  0
    3.1225    2.4130   14.1841 C   0  0  0  0  0  0  0  0  0  0  0  0
    1.9664    2.5280   15.1445 C   0  0  0  0  0  0  0  0  0  0  0  0
    2.3259    3.6691   16.0752 C   0  0  0  0  0  0  0  0  0  0  0  0
    3.7682    3.6840   16.0103 N   0  0  0  0  0  0  0  0  0  0  0  0
    4.7733    3.7103   17.0047 C   0  0  0  0  0  0  0  0  0  0  0  0
    5.9537    3.4474   16.4494 O   0  0  0  0  0  0  0  0  0  0  0  0
    4.0996    6.1025   14.4945 N   0  0  0  0  0  0  0  0  0  0  0  0
    3.7076    4.8370   13.9396 C   0  0  0  0  0  0  0  0  0  0  0  0
    3.0597    4.9030   12.8688 O   0  0  0  0  0  0  0  0  0  0  0  0
    4.6360    6.0521   15.3851 H   0  0  0  0  0  0  0  0  0  0  0  0
    3.7982    7.3631   13.9040 C   0  0  0  0  0  0  0  0  0  0  0  0
    2.4355    7.4234   13.2844 C   0  0  0  0  0  0  0  0  0  0  0  0
    1.4261    7.5764   13.9854 O   0  0  0  0  0  0  0  0  0  0  0  0
    4.8540    7.9974   13.0874 C   0  0  0  0  0  0  0  0  0  0  0  0
    5.2148    7.4115   11.7861 C   0  0  0  0  0  0  0  0  0  0  0  0
    6.4338    7.9576   11.1064 C   0  0  0  0  0  0  0  0  0  0  0  0
    7.6136    7.6253   11.8783 N   0  0  0  0  0  0  0  0  0  0  0  0
    7.6887    7.9205   12.8581 H   0  0  0  0  0  0  0  0  0  0  0  0
    8.4590    6.4275    9.9404 N   0  0  0  0  0  0  0  0  0  0  0  0
    8.6475    6.8947   11.2631 C   0  0  0  0  0  0  0  0  0  0  0  0
    9.7182    6.6929   11.9548 N   0  0  0  0  0  0  0  0  0  0  0  0
    7.9526    5.5500    9.6960 H   0  0  0  0  0  0  0  0  0  0  0  0
    8.8528    6.9975    9.1697 H   0  0  0  0  0  0  0  0  0  0  0  0
   10.5487    6.1655   11.6064 H   0  0  0  0  0  0  0  0  0  0  0  0
    4.8352    3.9316   18.4014 C   0  0  0  0  0  0  0  0  0  0  0  0
    5.6529    5.0651   18.6983 N   0  0  0  0  0  0  0  0  0  0  0  0
    6.1083    5.3891   17.8174 H   0  0  0  0  0  0  0  0  0  0  0  0
    5.2712    6.1988   19.8114 S   0  0  0  0  0  0  0  0  0  0  0  0
    3.7213    6.3929   19.7482 O   0  0  0  0  0  0  0  0  0  0  0  0
    5.7512    7.5744   19.2812 O   0  0  0  0  0  0  0  0  0  0  0  0
    5.6552    6.1246   21.4852 C   0  0  0  0  0  0  0  0  0  0  0  0
    5.2690    4.9266   22.2585 C   0  0  0  0  0  0  0  0  0  0  0  0
    6.2139    3.9249   22.4376 C   0  0  0  0  0  0  0  0  0  0  0  0
    5.9259    2.8208   23.1995 C   0  0  0  0  0  0  0  0  0  0  0  0
    4.6963    2.6484   23.8211 C   0  0  0  0  0  0  0  0  0  0  0  0
    3.7639    3.6370   23.6445 C   0  0  0  0  0  0  0  0  0  0  0  0
    4.0620    4.7350   22.8821 C   0  0  0  0  0  0  0  0  0  0  0  0
    4.8918    2.9355   19.4846 C   0  0  0  0  0  0  0  0  0  0  0  0
    4.0191    1.7763   19.4582 C   0  0  0  0  0  0  0  0  0  0  0  0
    3.6386    1.2513   20.7186 C   0  0  0  0  0  0  0  0  0  0  0  0
    2.8826    0.1087   20.7798 C   0  0  0  0  0  0  0  0  0  0  0  0
    2.4929   -0.5292   19.6216 C   0  0  0  0  0  0  0  0  0  0  0  0
    2.8534   -0.0342   18.3821 C   0  0  0  0  0  0  0  0  0  0  0  0
    3.6252    1.1323   18.3353 C   0  0  0  0  0  0  0  0  0  0  0  0
 20 21  1  0  0  0
 21 22  2  0  0  0
 21 18  1  0  0  0
 18 17  1  0  0  0
 17 16  1  0  0  0
 16 15  1  0  0  0
 15 12  1  0  0  0
 12  8  1  0  0  0
  8  9  1  0  0  0
  9 10  2  0  0  0
  9  1  1  0  0  0
  1  2  1  0  0  0
  2  3  1  0  0  0
  3  4  1  0  0  0
  4  5  1  0  0  0
  5  6  1  0  0  0
  6  7  2  0  0  0
  6 26  1  0  0  0
 26 39  1  0  0  0
 39 40  1  0  0  0
 40 41  2  0  0  0
 41 42  1  0  0  0
 42 43  2  0  0  0
 43 44  1  0  0  0
 44 45  2  0  0  0
 26 27  1  0  0  0
 27 29  1  0  0  0
 29 30  2  0  0  0
 29 31  2  0  0  0
 29 32  1  0  0  0
 32 33  1  0  0  0
 33 34  2  0  0  0
 34 35  1  0  0  0
 35 36  2  0  0  0
 36 37  1  0  0  0
 37 38  2  0  0  0
 12 13  1  0  0  0
 13 14  2  0  0  0
  5  1  1  0  0  0
 45 40  1  0  0  0
 38 33  1  0  0  0
 20 23  1  0  0  0
 20 24  1  0  0  0
 22 25  1  0  0  0
 18 19  1  0  0  0
  8 11  1  0  0  0
 27 28  1  0  0  0
M  END
> <minimizedAffinity>
-7.91153

> <CNNscore>
0.2032256573

> <CNNaffinity>
6.3892784119

> <CNN_VS>
1.2984652519

> <CNNaffinity_variance>
0.1037205830

$$$$
[H]N=C(N([H])[H])N([H])C([H])([H])C([H])([H])C([H])([H])[C@@]([H])(C([H])=O)N([H])C(=O)[C@@]1([H])N(C(=O)[C@]([H])(N([H])S(=O)(=O)C([H])([H])c2c([H])c([H])c([H])c([H])c2[H])C([H])([H])c2c([H])c([H])c([H])c([H])c2[H])C([H])([H])C([H])([H])C1([H])[H]


 45 47  0  0  0  0  0  0  0  0999 V2000
    2.9893    3.1039   17.6926 C   0  0  0  0  0  0  0  0  0  0  0  0
    2.6004    1.7170   17.2846 C   0  0  0  0  0  0  0  0  0  0  0  0
    3.5027    1.4023   16.1189 C   0  0  0  0  0  0  0  0  0  0  0  0
    4.2868    2.6733   15.8599 C   0  0  0  0  0  0  0  0  0  0  0  0
    3.4145    3.6937   16.3916 N   0  0  0  0  0  0  0  0  0  0  0  0
    2.9373    4.9170   15.8669 C   0  0  0  0  0  0  0  0  0  0  0  0
    1.9501    5.3735   16.6336 O   0  0  0  0  0  0  0  0  0  0  0  0
    4.3843    2.2790   19.6643 N   0  0  0  0  0  0  0  0  0  0  0  0
    4.1220    3.2095   18.6020 C   0  0  0  0  0  0  0  0  0  0  0  0
    4.9491    4.1453   18.4976 O   0  0  0  0  0  0  0  0  0  0  0  0
    3.6984    1.5015   19.7557 H   0  0  0  0  0  0  0  0  0  0  0  0
    5.4916    2.3729   20.5552 C   0  0  0  0  0  0  0  0  0  0  0  0
    5.9729    1.0448   21.0542 C   0  0  0  0  0  0  0  0  0  0  0  0
    6.9489    0.9681   21.8127 O   0  0  0  0  0  0  0  0  0  0  0  0
    5.4333    3.4174   21.5990 C   0  0  0  0  0  0  0  0  0  0  0  0
    4.1672    3.6645   22.3081 C   0  0  0  0  0  0  0  0  0  0  0  0
    3.6851    5.0822   22.3696 C   0  0  0  0  0  0  0  0  0  0  0  0
    3.8404    5.7078   21.0725 N   0  0  0  0  0  0  0  0  0  0  0  0
    3.3141    5.3569   20.2645 H   0  0  0  0  0  0  0  0  0  0  0  0
    4.5837    7.8948   21.8271 N   0  0  0  0  0  0  0  0  0  0  0  0
    4.7206    6.7984   20.9423 C   0  0  0  0  0  0  0  0  0  0  0  0
    5.6099    6.7296   20.0096 N   0  0  0  0  0  0  0  0  0  0  0  0
    3.9037    8.6732   21.6940 H   0  0  0  0  0  0  0  0  0  0  0  0
    5.2026    7.9207   22.6580 H   0  0  0  0  0  0  0  0  0  0  0  0
    6.3140    7.4753   19.8168 H   0  0  0  0  0  0  0  0  0  0  0  0
    3.2324    5.7482   14.7598 C   0  0  0  0  0  0  0  0  0  0  0  0
    2.4833    6.9632   14.8254 N   0  0  0  0  0  0  0  0  0  0  0  0
    2.4025    7.2529   15.8243 H   0  0  0  0  0  0  0  0  0  0  0  0
    2.5630    8.1459   13.7008 S   0  0  0  0  0  0  0  0  0  0  0  0
    4.0747    8.3392   13.3523 O   0  0  0  0  0  0  0  0  0  0  0  0
    2.2583    9.4958   14.3998 O   0  0  0  0  0  0  0  0  0  0  0  0
    1.7417    8.1458   12.1909 C   0  0  0  0  0  0  0  0  0  0  0  0
    0.5144    7.3374   12.0406 C   0  0  0  0  0  0  0  0  0  0  0  0
    0.2250    6.8046   10.7913 C   0  0  0  0  0  0  0  0  0  0  0  0
   -0.8689    5.9960   10.6128 C   0  0  0  0  0  0  0  0  0  0  0  0
   -1.7302    5.6727   11.6529 C   0  0  0  0  0  0  0  0  0  0  0  0
   -1.4445    6.1984   12.8857 C   0  0  0  0  0  0  0  0  0  0  0  0
   -0.3499    7.0043   13.0527 C   0  0  0  0  0  0  0  0  0  0  0  0
    3.4910    5.3564   13.3640 C   0  0  0  0  0  0  0  0  0  0  0  0
    2.5985    4.4345   12.6861 C   0  0  0  0  0  0  0  0  0  0  0  0
    2.8170    4.2605   11.2965 C   0  0  0  0  0  0  0  0  0  0  0  0
    1.9660    3.4698   10.5675 C   0  0  0  0  0  0  0  0  0  0  0  0
    0.9011    2.8455   11.1810 C   0  0  0  0  0  0  0  0  0  0  0  0
    0.6698    3.0021   12.5350 C   0  0  0  0  0  0  0  0  0  0  0  0
    1.5463    3.8122   13.2659 C   0  0  0  0  0  0  0  0  0  0  0  0
 20 21  1  0  0  0
 21 22  2  0  0  0
 21 18  1  0  0  0
 18 17  1  0  0  0
 17 16  1  0  0  0
 16 15  1  0  0  0
 15 12  1  0  0  0
 12  8  1  0  0  0
  8  9  1  0  0  0
  9 10  2  0  0  0
  9  1  1  0  0  0
  1  2  1  0  0  0
  2  3  1  0  0  0
  3  4  1  0  0  0
  4  5  1  0  0  0
  5  6  1  0  0  0
  6  7  2  0  0  0
  6 26  1  0  0  0
 26 39  1  0  0  0
 39 40  1  0  0  0
 40 41  2  0  0  0
 41 42  1  0  0  0
 42 43  2  0  0  0
 43 44  1  0  0  0
 44 45  2  0  0  0
 26 27  1  0  0  0
 27 29  1  0  0  0
 29 30  2  0  0  0
 29 31  2  0  0  0
 29 32  1  0  0  0
 32 33  1  0  0  0
 33 34  2  0  0  0
 34 35  1  0  0  0
 35 36  2  0  0  0
 36 37  1  0  0  0
 37 38  2  0  0  0
 12 13  1  0  0  0
 13 14  2  0  0  0
  5  1  1  0  0  0
 45 40  1  0  0  0
 38 33  1  0  0  0
 20 23  1  0  0  0
 20 24  1  0  0  0
 22 25  1  0  0  0
 18 19  1  0  0  0
  8 11  1  0  0  0
 27 28  1  0  0  0
M  END
> <minimizedAffinity>
-7.15406

> <CNNscore>
0.1935299486

> <CNNaffinity>
6.3560113907

> <CNN_VS>
1.2300785780

> <CNNaffinity_variance>
0.1282257736

$$$$
[H]N=C(N([H])[H])N([H])C([H])([H])C([H])([H])C([H])([H])[C@@]([H])(C([H])=O)N([H])C(=O)[C@@]1([H])N(C(=O)[C@]([H])(N([H])S(=O)(=O)C([H])([H])c2c([H])c([H])c([H])c([H])c2[H])C([H])([H])c2c([H])c([H])c([H])c([H])c2[H])C([H])([H])C([H])([H])C1([H])[H]


 45 47  0  0  0  0  0  0  0  0999 V2000
    3.3445    4.3096   14.4059 C   0  0  0  0  0  0  0  0  0  0  0  0
    3.4264    2.9982   13.6882 C   0  0  0  0  0  0  0  0  0  0  0  0
    2.5152    2.0860   14.4690 C   0  0  0  0  0  0  0  0  0  0  0  0
    2.0443    2.9037   15.6553 C   0  0  0  0  0  0  0  0  0  0  0  0
    3.1049    3.8711   15.8101 N   0  0  0  0  0  0  0  0  0  0  0  0
    3.8606    4.2960   16.9272 C   0  0  0  0  0  0  0  0  0  0  0  0
    4.8993    5.0168   16.5119 O   0  0  0  0  0  0  0  0  0  0  0  0
    1.9711    5.6010   12.6854 N   0  0  0  0  0  0  0  0  0  0  0  0
    2.2350    5.1756   14.0318 C   0  0  0  0  0  0  0  0  0  0  0  0
    1.4310    5.6037   14.8926 O   0  0  0  0  0  0  0  0  0  0  0  0
    2.6379    5.2493   11.9678 H   0  0  0  0  0  0  0  0  0  0  0  0
    0.8862    6.4444   12.3108 C   0  0  0  0  0  0  0  0  0  0  0  0
    0.2968    6.1044   10.9761 C   0  0  0  0  0  0  0  0  0  0  0  0
    0.1806    6.9676   10.0956 O   0  0  0  0  0  0  0  0  0  0  0  0
    1.0469    7.8954   12.5404 C   0  0  0  0  0  0  0  0  0  0  0  0
    2.3920    8.4918   12.4995 C   0  0  0  0  0  0  0  0  0  0  0  0
    2.8259    9.2796   13.6983 C   0  0  0  0  0  0  0  0  0  0  0  0
    2.6497    8.4838   14.8957 N   0  0  0  0  0  0  0  0  0  0  0  0
    1.7064    8.2635   15.2342 H   0  0  0  0  0  0  0  0  0  0  0  0
    4.9380    7.6685   14.8338 N   0  0  0  0  0  0  0  0  0  0  0  0
    3.7889    8.0215   15.5811 C   0  0  0  0  0  0  0  0  0  0  0  0
    3.7124    7.9463   16.8671 N   0  0  0  0  0  0  0  0  0  0  0  0
    5.0753    6.7441   14.3726 H   0  0  0  0  0  0  0  0  0  0  0  0
    5.6881    8.3779   14.7437 H   0  0  0  0  0  0  0  0  0  0  0  0
    4.4898    7.6179   17.4810 H   0  0  0  0  0  0  0  0  0  0  0  0
    3.7954    4.1447   18.3331 C   0  0  0  0  0  0  0  0  0  0  0  0
    3.2361    2.8764   18.6800 N   0  0  0  0  0  0  0  0  0  0  0  0
    2.2724    2.8164   18.2851 H   0  0  0  0  0  0  0  0  0  0  0  0
    4.1007    1.4930   18.7735 S   0  0  0  0  0  0  0  0  0  0  0  0
    4.7588    1.2738   17.3725 O   0  0  0  0  0  0  0  0  0  0  0  0
    3.1052    0.3049   18.8082 O   0  0  0  0  0  0  0  0  0  0  0  0
    5.3407    1.1653   19.9178 C   0  0  0  0  0  0  0  0  0  0  0  0
    5.1943    1.6673   21.2994 C   0  0  0  0  0  0  0  0  0  0  0  0
    3.9176    1.7478   21.8397 C   0  0  0  0  0  0  0  0  0  0  0  0
    3.7325    2.1485   23.1387 C   0  0  0  0  0  0  0  0  0  0  0  0
    4.7927    2.4892   23.9683 C   0  0  0  0  0  0  0  0  0  0  0  0
    6.0525    2.4097   23.4352 C   0  0  0  0  0  0  0  0  0  0  0  0
    6.2259    2.0084   22.1374 C   0  0  0  0  0  0  0  0  0  0  0  0
    3.4796    5.1623   19.3498 C   0  0  0  0  0  0  0  0  0  0  0  0
    4.4380    5.4747   20.3937 C   0  0  0  0  0  0  0  0  0  0  0  0
    5.7913    5.5862   19.9871 C   0  0  0  0  0  0  0  0  0  0  0  0
    6.7686    5.7982   20.9255 C   0  0  0  0  0  0  0  0  0  0  0  0
    6.4393    5.9028   22.2600 C   0  0  0  0  0  0  0  0  0  0  0  0
    5.1258    5.7968   22.6780 C   0  0  0  0  0  0  0  0  0  0  0  0
    4.1393    5.5801   21.7092 C   0  0  0  0  0  0  0  0  0  0  0  0
 20 21  1  0  0  0
 21 22  2  0  0  0
 21 18  1  0  0  0
 18 17  1  0  0  0
 17 16  1  0  0  0
 16 15  1  0  0  0
 15 12  1  0  0  0
 12  8  1  0  0  0
  8  9  1  0  0  0
  9 10  2  0  0  0
  9  1  1  0  0  0
  1  2  1  0  0  0
  2  3  1  0  0  0
  3  4  1  0  0  0
  4  5  1  0  0  0
  5  6  1  0  0  0
  6  7  2  0  0  0
  6 26  1  0  0  0
 26 39  1  0  0  0
 39 40  1  0  0  0
 40 41  2  0  0  0
 41 42  1  0  0  0
 42 43  2  0  0  0
 43 44  1  0  0  0
 44 45  2  0  0  0
 26 27  1  0  0  0
 27 29  1  0  0  0
 29 30  2  0  0  0
 29 31  2  0  0  0
 29 32  1  0  0  0
 32 33  1  0  0  0
 33 34  2  0  0  0
 34 35  1  0  0  0
 35 36  2  0  0  0
 36 37  1  0  0  0
 37 38  2  0  0  0
 12 13  1  0  0  0
 13 14  2  0  0  0
  5  1  1  0  0  0
 45 40  1  0  0  0
 38 33  1  0  0  0
 20 23  1  0  0  0
 20 24  1  0  0  0
 22 25  1  0  0  0
 18 19  1  0  0  0
  8 11  1  0  0  0
 27 28  1  0  0  0
M  END
> <minimizedAffinity>
-7.27305

> <CNNscore>
0.1813445240

> <CNNaffinity>
6.3191132545

> <CNN_VS>
1.1459366083

> <CNNaffinity_variance>
0.1798408628

$$$$
[H]N=C(N([H])[H])N([H])C([H])([H])C([H])([H])C([H])([H])[C@@]([H])(C([H])=O)N([H])C(=O)[C@@]1([H])N(C(=O)[C@]([H])(N([H])S(=O)(=O)C([H])([H])c2c([H])c([H])c([H])c([H])c2[H])C([H])([H])c2c([H])c([H])c([H])c([H])c2[H])C([H])([H])C([H])([H])C1([H])[H]


 45 47  0  0  0  0  0  0  0  0999 V2000
    3.7109    3.3953   14.3855 C   0  0  0  0  0  0  0  0  0  0  0  0
    3.2105    2.0496   13.9613 C   0  0  0  0  0  0  0  0  0  0  0  0
    2.1123    1.7314   14.9435 C   0  0  0  0  0  0  0  0  0  0  0  0
    2.1191    2.8724   15.9413 C   0  0  0  0  0  0  0  0  0  0  0  0
    3.4775    3.3546   15.8570 N   0  0  0  0  0  0  0  0  0  0  0  0
    4.4548    3.6462   16.8364 C   0  0  0  0  0  0  0  0  0  0  0  0
    5.6373    3.8094   16.2484 O   0  0  0  0  0  0  0  0  0  0  0  0
    2.9234    5.8191   14.5233 N   0  0  0  0  0  0  0  0  0  0  0  0
    2.9793    4.5428   13.8668 C   0  0  0  0  0  0  0  0  0  0  0  0
    2.3446    4.4705   12.7885 O   0  0  0  0  0  0  0  0  0  0  0  0
    3.4474    5.8826   15.4203 H   0  0  0  0  0  0  0  0  0  0  0  0
    2.2136    6.9471   14.0208 C   0  0  0  0  0  0  0  0  0  0  0  0
    2.9161    8.2494   14.2549 C   0  0  0  0  0  0  0  0  0  0  0  0
    2.2912    9.3186   14.2413 O   0  0  0  0  0  0  0  0  0  0  0  0
    0.7588    6.9992   14.2755 C   0  0  0  0  0  0  0  0  0  0  0  0
   -0.1784    6.9496   13.1415 C   0  0  0  0  0  0  0  0  0  0  0  0
   -1.6195    6.6869   13.4584 C   0  0  0  0  0  0  0  0  0  0  0  0
   -2.1053    5.5884   12.6491 N   0  0  0  0  0  0  0  0  0  0  0  0
   -3.1048    5.3563   12.6413 H   0  0  0  0  0  0  0  0  0  0  0  0
   -0.4543    3.8114   12.5011 N   0  0  0  0  0  0  0  0  0  0  0  0
   -1.1869    4.8506   11.8788 C   0  0  0  0  0  0  0  0  0  0  0  0
   -1.0678    5.1735   10.6350 N   0  0  0  0  0  0  0  0  0  0  0  0
    0.4178    3.9588   13.0523 H   0  0  0  0  0  0  0  0  0  0  0  0
   -0.8119    2.8443   12.3978 H   0  0  0  0  0  0  0  0  0  0  0  0
   -0.4200    4.7005    9.9674 H   0  0  0  0  0  0  0  0  0  0  0  0
    4.4906    3.7956   18.2436 C   0  0  0  0  0  0  0  0  0  0  0  0
    4.9814    5.0886   18.6027 N   0  0  0  0  0  0  0  0  0  0  0  0
    5.4015    5.5335   17.7579 H   0  0  0  0  0  0  0  0  0  0  0  0
    4.2571    6.0693   19.6907 S   0  0  0  0  0  0  0  0  0  0  0  0
    2.7455    5.6720   19.7239 O   0  0  0  0  0  0  0  0  0  0  0  0
    4.1640    7.4880   19.0724 O   0  0  0  0  0  0  0  0  0  0  0  0
    4.7192    6.2493   21.3365 C   0  0  0  0  0  0  0  0  0  0  0  0
    4.9674    5.0410   22.1494 C   0  0  0  0  0  0  0  0  0  0  0  0
    3.9577    4.5946   22.9918 C   0  0  0  0  0  0  0  0  0  0  0  0
    4.1143    3.4432   23.7213 C   0  0  0  0  0  0  0  0  0  0  0  0
    5.2700    2.6760   23.6577 C   0  0  0  0  0  0  0  0  0  0  0  0
    6.2663    3.1165   22.8263 C   0  0  0  0  0  0  0  0  0  0  0  0
    6.0994    4.2671   22.1026 C   0  0  0  0  0  0  0  0  0  0  0  0
    4.8402    2.7912   19.2623 C   0  0  0  0  0  0  0  0  0  0  0  0
    3.9715    1.6521   19.4942 C   0  0  0  0  0  0  0  0  0  0  0  0
    3.7178    1.3249   20.8498 C   0  0  0  0  0  0  0  0  0  0  0  0
    2.9738    0.2137   21.1539 C   0  0  0  0  0  0  0  0  0  0  0  0
    2.4734   -0.5842   20.1473 C   0  0  0  0  0  0  0  0  0  0  0  0
    2.7093   -0.2833   18.8187 C   0  0  0  0  0  0  0  0  0  0  0  0
    3.4705    0.8535   18.5236 C   0  0  0  0  0  0  0  0  0  0  0  0
 20 21  1  0  0  0
 21 22  2  0  0  0
 21 18  1  0  0  0
 18 17  1  0  0  0
 17 16  1  0  0  0
 16 15  1  0  0  0
 15 12  1  0  0  0
 12  8  1  0  0  0
  8  9  1  0  0  0
  9 10  2  0  0  0
  9  1  1  0  0  0
  1  2  1  0  0  0
  2  3  1  0  0  0
  3  4  1  0  0  0
  4  5  1  0  0  0
  5  6  1  0  0  0
  6  7  2  0  0  0
  6 26  1  0  0  0
 26 39  1  0  0  0
 39 40  1  0  0  0
 40 41  2  0  0  0
 41 42  1  0  0  0
 42 43  2  0  0  0
 43 44  1  0  0  0
 44 45  2  0  0  0
 26 27  1  0  0  0
 27 29  1  0  0  0
 29 30  2  0  0  0
 29 31  2  0  0  0
 29 32  1  0  0  0
 32 33  1  0  0  0
 33 34  2  0  0  0
 34 35  1  0  0  0
 35 36  2  0  0  0
 36 37  1  0  0  0
 37 38  2  0  0  0
 12 13  1  0  0  0
 13 14  2  0  0  0
  5  1  1  0  0  0
 45 40  1  0  0  0
 38 33  1  0  0  0
 20 23  1  0  0  0
 20 24  1  0  0  0
 22 25  1  0  0  0
 18 19  1  0  0  0
  8 11  1  0  0  0
 27 28  1  0  0  0
M  END
> <minimizedAffinity>
-7.74754

> <CNNscore>
0.1613798440

> <CNNaffinity>
6.1241111755

> <CNN_VS>
0.9883081317

> <CNNaffinity_variance>
0.4898713231

$$$$
[H]N=C(N([H])[H])N([H])C([H])([H])C([H])([H])C([H])([H])[C@@]([H])(C([H])=O)N([H])C(=O)[C@@]1([H])N(C(=O)[C@]([H])(N([H])S(=O)(=O)C([H])([H])c2c([H])c([H])c([H])c([H])c2[H])C([H])([H])c2c([H])c([H])c([H])c([H])c2[H])C([H])([H])C([H])([H])C1([H])[H]


 45 47  0  0  0  0  0  0  0  0999 V2000
    3.4817    3.2499   18.4823 C   0  0  0  0  0  0  0  0  0  0  0  0
    3.5869    1.7695   18.2856 C   0  0  0  0  0  0  0  0  0  0  0  0
    4.7094    1.6020   17.2936 C   0  0  0  0  0  0  0  0  0  0  0  0
    5.1133    3.0085   16.8988 C   0  0  0  0  0  0  0  0  0  0  0  0
    3.9080    3.7629   17.1495 N   0  0  0  0  0  0  0  0  0  0  0  0
    3.1773    4.6905   16.3716 C   0  0  0  0  0  0  0  0  0  0  0  0
    1.9940    4.9107   16.9392 O   0  0  0  0  0  0  0  0  0  0  0  0
    4.4556    5.2350   19.7571 N   0  0  0  0  0  0  0  0  0  0  0  0
    4.3794    3.8292   19.4720 C   0  0  0  0  0  0  0  0  0  0  0  0
    5.1517    3.1070   20.1447 O   0  0  0  0  0  0  0  0  0  0  0  0
    3.8173    5.8385   19.1989 H   0  0  0  0  0  0  0  0  0  0  0  0
    5.3277    5.8089   20.7259 C   0  0  0  0  0  0  0  0  0  0  0  0
    4.7147    5.9273   22.0878 C   0  0  0  0  0  0  0  0  0  0  0  0
    3.6812    5.3080   22.3742 O   0  0  0  0  0  0  0  0  0  0  0  0
    6.1061    6.9964   20.3162 C   0  0  0  0  0  0  0  0  0  0  0  0
    7.1109    6.8720   19.2478 C   0  0  0  0  0  0  0  0  0  0  0  0
    8.1554    7.9437   19.1652 C   0  0  0  0  0  0  0  0  0  0  0  0
    9.1735    7.7119   20.1690 N   0  0  0  0  0  0  0  0  0  0  0  0
    9.7923    6.8965   20.0970 H   0  0  0  0  0  0  0  0  0  0  0  0
    9.0625    8.1591   22.5550 N   0  0  0  0  0  0  0  0  0  0  0  0
    9.2972    8.6200   21.2374 C   0  0  0  0  0  0  0  0  0  0  0  0
    9.6206    9.8343   20.9438 N   0  0  0  0  0  0  0  0  0  0  0  0
    8.1175    8.0752   22.9863 H   0  0  0  0  0  0  0  0  0  0  0  0
    9.8866    7.8904   23.1230 H   0  0  0  0  0  0  0  0  0  0  0  0
    9.7403   10.5943   21.6488 H   0  0  0  0  0  0  0  0  0  0  0  0
    3.3800    5.4154   15.1727 C   0  0  0  0  0  0  0  0  0  0  0  0
    2.5089    6.5464   15.1119 N   0  0  0  0  0  0  0  0  0  0  0  0
    2.2356    6.8109   16.0834 H   0  0  0  0  0  0  0  0  0  0  0  0
    2.6499    7.7484   14.0141 S   0  0  0  0  0  0  0  0  0  0  0  0
    4.1717    7.8842   13.6830 O   0  0  0  0  0  0  0  0  0  0  0  0
    2.3963    9.0948   14.7397 O   0  0  0  0  0  0  0  0  0  0  0  0
    1.8438    7.8158   12.4975 C   0  0  0  0  0  0  0  0  0  0  0  0
    0.9288    6.7190   12.1207 C   0  0  0  0  0  0  0  0  0  0  0  0
   -0.0161    6.3008   13.0485 C   0  0  0  0  0  0  0  0  0  0  0  0
   -0.9292    5.3288   12.7263 C   0  0  0  0  0  0  0  0  0  0  0  0
   -0.9573    4.7216   11.4778 C   0  0  0  0  0  0  0  0  0  0  0  0
   -0.0250    5.1344   10.5622 C   0  0  0  0  0  0  0  0  0  0  0  0
    0.8817    6.1055   10.8943 C   0  0  0  0  0  0  0  0  0  0  0  0
    3.6721    4.8949   13.8264 C   0  0  0  0  0  0  0  0  0  0  0  0
    2.8953    3.7963   13.2829 C   0  0  0  0  0  0  0  0  0  0  0  0
    3.1623    3.4484   11.9349 C   0  0  0  0  0  0  0  0  0  0  0  0
    2.4144    2.4760   11.3221 C   0  0  0  0  0  0  0  0  0  0  0  0
    1.4058    1.8374   12.0116 C   0  0  0  0  0  0  0  0  0  0  0  0
    1.1287    2.1616   13.3267 C   0  0  0  0  0  0  0  0  0  0  0  0
    1.9000    3.1562   13.9389 C   0  0  0  0  0  0  0  0  0  0  0  0
 20 21  1  0  0  0
 21 22  2  0  0  0
 21 18  1  0  0  0
 18 17  1  0  0  0
 17 16  1  0  0  0
 16 15  1  0  0  0
 15 12  1  0  0  0
 12  8  1  0  0  0
  8  9  1  0  0  0
  9 10  2  0  0  0
  9  1  1  0  0  0
  1  2  1  0  0  0
  2  3  1  0  0  0
  3  4  1  0  0  0
  4  5  1  0  0  0
  5  6  1  0  0  0
  6  7  2  0  0  0
  6 26  1  0  0  0
 26 39  1  0  0  0
 39 40  1  0  0  0
 40 41  2  0  0  0
 41 42  1  0  0  0
 42 43  2  0  0  0
 43 44  1  0  0  0
 44 45  2  0  0  0
 26 27  1  0  0  0
 27 29  1  0  0  0
 29 30  2  0  0  0
 29 31  2  0  0  0
 29 32  1  0  0  0
 32 33  1  0  0  0
 33 34  2  0  0  0
 34 35  1  0  0  0
 35 36  2  0  0  0
 36 37  1  0  0  0
 37 38  2  0  0  0
 12 13  1  0  0  0
 13 14  2  0  0  0
  5  1  1  0  0  0
 45 40  1  0  0  0
 38 33  1  0  0  0
 20 23  1  0  0  0
 20 24  1  0  0  0
 22 25  1  0  0  0
 18 19  1  0  0  0
  8 11  1  0  0  0
 27 28  1  0  0  0
M  END
> <minimizedAffinity>
-6.56122

> <CNNscore>
0.1608013213

> <CNNaffinity>
6.0477209091

> <CNN_VS>
0.9724814892

> <CNNaffinity_variance>
0.2447408140

$$$$
[H]c1nc(N2C([H])([H])C([H])([H])c3nc(N4C([H])([H])C([H])([H])C([H])([H])C([H])([H])C4([H])[H])nc(N([H])c4nc([H])c(C(F)(F)F)c([H])c4[H])c3C([H])([H])C2([H])[H])c(C(F)(F)F)c([H])c1[H]


 39 43  0  0  0  0  0  0  0  0999 V2000
    3.2089    3.1685   15.3293 C   0  0  0  0  0  0  0  0  0  0  0  0
    3.2781    4.2922   16.0364 N   0  0  0  0  0  0  0  0  0  0  0  0
    3.5287    5.4957   15.4443 C   0  0  0  0  0  0  0  0  0  0  0  0
    3.7097    5.6202   14.1032 N   0  0  0  0  0  0  0  0  0  0  0  0
    3.6378    4.5226   13.3492 C   0  0  0  0  0  0  0  0  0  0  0  0
    3.7692    4.8399   11.8810 C   0  0  0  0  0  0  0  0  0  0  0  0
    2.4736    4.3457   11.2398 C   0  0  0  0  0  0  0  0  0  0  0  0
    2.3942    2.9180   11.2490 N   0  0  0  0  0  0  0  0  0  0  0  0
    2.0250    2.0329   12.3385 C   0  0  0  0  0  0  0  0  0  0  0  0
    3.2203    1.9896   13.3403 C   0  0  0  0  0  0  0  0  0  0  0  0
    3.3991    3.3207   13.9480 C   0  0  0  0  0  0  0  0  0  0  0  0
    2.7374    2.2457   10.0525 C   0  0  0  0  0  0  0  0  0  0  0  0
    4.0834    2.1639    9.7172 N   0  0  0  0  0  0  0  0  0  0  0  0
    4.5141    1.5676    8.6117 C   0  0  0  0  0  0  0  0  0  0  0  0
    3.5597    1.0257    7.7834 C   0  0  0  0  0  0  0  0  0  0  0  0
    2.2230    1.0930    8.0868 C   0  0  0  0  0  0  0  0  0  0  0  0
    1.7672    1.7121    9.2494 C   0  0  0  0  0  0  0  0  0  0  0  0
    0.3437    1.7286    9.5566 C   0  0  0  0  0  0  0  0  0  0  0  0
   -0.1847    2.9139    9.9588 F   0  0  0  0  0  0  0  0  0  0  0  0
   -0.1131    0.7033   10.3699 F   0  0  0  0  0  0  0  0  0  0  0  0
   -0.3436    1.4627    8.3282 F   0  0  0  0  0  0  0  0  0  0  0  0
    3.7932    6.7083   16.1742 N   0  0  0  0  0  0  0  0  0  0  0  0
    4.0072    7.9035   15.3588 C   0  0  0  0  0  0  0  0  0  0  0  0
    3.9454    9.1332   16.2344 C   0  0  0  0  0  0  0  0  0  0  0  0
    4.9436    9.0248   17.3771 C   0  0  0  0  0  0  0  0  0  0  0  0
    4.7523    7.7902   18.1819 C   0  0  0  0  0  0  0  0  0  0  0  0
    3.8259    6.7935   17.5842 C   0  0  0  0  0  0  0  0  0  0  0  0
    3.2069    1.9048   15.9175 N   0  0  0  0  0  0  0  0  0  0  0  0
    3.0580    1.1037   15.1787 H   0  0  0  0  0  0  0  0  0  0  0  0
    3.5534    0.5495   19.8551 C   0  0  0  0  0  0  0  0  0  0  0  0
    4.3941    1.5515   19.3979 C   0  0  0  0  0  0  0  0  0  0  0  0
    4.3357    1.9919   18.0938 C   0  0  0  0  0  0  0  0  0  0  0  0
    3.4289    1.4471   17.2112 C   0  0  0  0  0  0  0  0  0  0  0  0
    2.6218    0.4516   17.6933 N   0  0  0  0  0  0  0  0  0  0  0  0
    2.6610    0.0016   18.9528 C   0  0  0  0  0  0  0  0  0  0  0  0
    2.5616    0.7195   21.9720 F   0  0  0  0  0  0  0  0  0  0  0  0
    3.5601    0.0811   21.2473 C   0  0  0  0  0  0  0  0  0  0  0  0
    3.4499   -1.2571   21.3989 F   0  0  0  0  0  0  0  0  0  0  0  0
    4.7645    0.5468   21.7910 F   0  0  0  0  0  0  0  0  0  0  0  0
 36 37  1  0  0  0
 37 38  1  0  0  0
 37 39  1  0  0  0
 37 30  1  0  0  0
 30 31  2  0  0  0
 31 32  1  0  0  0
 32 33  2  0  0  0
 33 28  1  0  0  0
 28  1  1  0  0  0
  1  2  2  0  0  0
  2  3  1  0  0  0
  3  4  2  0  0  0
  4  5  1  0  0  0
  5  6  1  0  0  0
  6  7  1  0  0  0
  7  8  1  0  0  0
  8  9  1  0  0  0
  9 10  1  0  0  0
 10 11  1  0  0  0
  8 12  1  0  0  0
 12 13  2  0  0  0
 13 14  1  0  0  0
 14 15  2  0  0  0
 15 16  1  0  0  0
 16 17  2  0  0  0
 17 18  1  0  0  0
 18 19  1  0  0  0
 18 20  1  0  0  0
 18 21  1  0  0  0
  3 22  1  0  0  0
 22 23  1  0  0  0
 23 24  1  0  0  0
 24 25  1  0  0  0
 25 26  1  0  0  0
 26 27  1  0  0  0
 33 34  1  0  0  0
 34 35  2  0  0  0
 35 30  1  0  0  0
 11  1  1  0  0  0
 17 12  1  0  0  0
 27 22  1  0  0  0
 11  5  2  0  0  0
 28 29  1  0  0  0
M  END
> <minimizedAffinity>
-8.05222

> <CNNscore>
0.4297513366

> <CNNaffinity>
7.3455481529

> <CNN_VS>
3.1567590237

> <CNNaffinity_variance>
0.5033656359

$$$$
[H]c1nc(N2C([H])([H])C([H])([H])c3nc(N4C([H])([H])C([H])([H])C([H])([H])C([H])([H])C4([H])[H])nc(N([H])c4nc([H])c(C(F)(F)F)c([H])c4[H])c3C([H])([H])C2([H])[H])c(C(F)(F)F)c([H])c1[H]


 39 43  0  0  0  0  0  0  0  0999 V2000
    3.1270    3.1578   14.9975 C   0  0  0  0  0  0  0  0  0  0  0  0
    3.4357    4.2832   15.6346 N   0  0  0  0  0  0  0  0  0  0  0  0
    3.4618    5.4858   14.9904 C   0  0  0  0  0  0  0  0  0  0  0  0
    3.1642    5.6075   13.6700 N   0  0  0  0  0  0  0  0  0  0  0  0
    2.8366    4.5081   12.9899 C   0  0  0  0  0  0  0  0  0  0  0  0
    2.4480    4.8224   11.5673 C   0  0  0  0  0  0  0  0  0  0  0  0
    1.0112    4.3249   11.4181 C   0  0  0  0  0  0  0  0  0  0  0  0
    0.9431    2.8971   11.4567 N   0  0  0  0  0  0  0  0  0  0  0  0
    0.9783    2.0138   12.6079 C   0  0  0  0  0  0  0  0  0  0  0  0
    2.4477    1.9745   13.1309 C   0  0  0  0  0  0  0  0  0  0  0  0
    2.8241    3.3072   13.6362 C   0  0  0  0  0  0  0  0  0  0  0  0
    0.8496    2.2226   10.2166 C   0  0  0  0  0  0  0  0  0  0  0  0
   -0.4036    2.1235    9.6246 N   0  0  0  0  0  0  0  0  0  0  0  0
   -0.6059    1.5013    8.4692 C   0  0  0  0  0  0  0  0  0  0  0  0
    0.4923    0.9365    7.8647 C   0  0  0  0  0  0  0  0  0  0  0  0
    1.7420    1.0160    8.4263 C   0  0  0  0  0  0  0  0  0  0  0  0
    1.9597    1.6739    9.6356 C   0  0  0  0  0  0  0  0  0  0  0  0
    3.3069    1.7714   10.1803 C   0  0  0  0  0  0  0  0  0  0  0  0
    3.5832    1.0166   11.2756 F   0  0  0  0  0  0  0  0  0  0  0  0
    3.8010    3.0553   10.3499 F   0  0  0  0  0  0  0  0  0  0  0  0
    4.1904    1.2416    9.1850 F   0  0  0  0  0  0  0  0  0  0  0  0
    3.9613    6.7003   15.5806 N   0  0  0  0  0  0  0  0  0  0  0  0
    4.2995    6.6206   17.0014 C   0  0  0  0  0  0  0  0  0  0  0  0
    5.1020    7.8366   17.4012 C   0  0  0  0  0  0  0  0  0  0  0  0
    4.3467    9.1111   17.0559 C   0  0  0  0  0  0  0  0  0  0  0  0
    3.9675    9.1741   15.6203 C   0  0  0  0  0  0  0  0  0  0  0  0
    4.1560    7.9055   14.8693 C   0  0  0  0  0  0  0  0  0  0  0  0
    3.3327    1.8954   15.5516 N   0  0  0  0  0  0  0  0  0  0  0  0
    3.4491    1.1185   14.7818 H   0  0  0  0  0  0  0  0  0  0  0  0
    3.5070    0.5352   19.4989 C   0  0  0  0  0  0  0  0  0  0  0  0
    4.3961    1.5068   19.0681 C   0  0  0  0  0  0  0  0  0  0  0  0
    4.3943    1.9469   17.7626 C   0  0  0  0  0  0  0  0  0  0  0  0
    3.4976    1.4324   16.8519 C   0  0  0  0  0  0  0  0  0  0  0  0
    2.6417    0.4661   17.3087 N   0  0  0  0  0  0  0  0  0  0  0  0
    2.6252    0.0171   18.5691 C   0  0  0  0  0  0  0  0  0  0  0  0
    2.2443    0.4316   21.4709 F   0  0  0  0  0  0  0  0  0  0  0  0
    3.4534    0.0691   20.8908 C   0  0  0  0  0  0  0  0  0  0  0  0
    3.6603   -1.2559   21.0565 F   0  0  0  0  0  0  0  0  0  0  0  0
    4.4258    0.8142   21.5708 F   0  0  0  0  0  0  0  0  0  0  0  0
 36 37  1  0  0  0
 37 38  1  0  0  0
 37 39  1  0  0  0
 37 30  1  0  0  0
 30 31  2  0  0  0
 31 32  1  0  0  0
 32 33  2  0  0  0
 33 28  1  0  0  0
 28  1  1  0  0  0
  1  2  2  0  0  0
  2  3  1  0  0  0
  3  4  2  0  0  0
  4  5  1  0  0  0
  5  6  1  0  0  0
  6  7  1  0  0  0
  7  8  1  0  0  0
  8  9  1  0  0  0
  9 10  1  0  0  0
 10 11  1  0  0  0
  8 12  1  0  0  0
 12 13  2  0  0  0
 13 14  1  0  0  0
 14 15  2  0  0  0
 15 16  1  0  0  0
 16 17  2  0  0  0
 17 18  1  0  0  0
 18 19  1  0  0  0
 18 20  1  0  0  0
 18 21  1  0  0  0
  3 22  1  0  0  0
 22 23  1  0  0  0
 23 24  1  0  0  0
 24 25  1  0  0  0
 25 26  1  0  0  0
 26 27  1  0  0  0
 33 34  1  0  0  0
 34 35  2  0  0  0
 35 30  1  0  0  0
 11  1  1  0  0  0
 17 12  1  0  0  0
 27 22  1  0  0  0
 11  5  2  0  0  0
 28 29  1  0  0  0
M  END
> <minimizedAffinity>
-8.08709

> <CNNscore>
0.3680641651

> <CNNaffinity>
7.3196144104

> <CNN_VS>
2.6940877438

> <CNNaffinity_variance>
0.4058954120

$$$$
[H]c1nc(N2C([H])([H])C([H])([H])c3nc(N4C([H])([H])C([H])([H])C([H])([H])C([H])([H])C4([H])[H])nc(N([H])c4nc([H])c(C(F)(F)F)c([H])c4[H])c3C([H])([H])C2([H])[H])c(C(F)(F)F)c([H])c1[H]


 39 43  0  0  0  0  0  0  0  0999 V2000
    3.9128    2.4016    8.8499 C   0  0  0  0  0  0  0  0  0  0  0  0
    4.4616    2.5277    7.6456 N   0  0  0  0  0  0  0  0  0  0  0  0
    4.0761    3.5124    6.7833 C   0  0  0  0  0  0  0  0  0  0  0  0
    3.1224    4.4255    7.1052 N   0  0  0  0  0  0  0  0  0  0  0  0
    2.5504    4.3479    8.3074 C   0  0  0  0  0  0  0  0  0  0  0  0
    1.5842    5.4809    8.5441 C   0  0  0  0  0  0  0  0  0  0  0  0
    2.1128    6.2169    9.7741 C   0  0  0  0  0  0  0  0  0  0  0  0
    1.9722    5.4285   10.9587 N   0  0  0  0  0  0  0  0  0  0  0  0
    2.8041    4.3369   11.4309 C   0  0  0  0  0  0  0  0  0  0  0  0
    2.4984    3.0899   10.5445 C   0  0  0  0  0  0  0  0  0  0  0  0
    2.9312    3.3542    9.1604 C   0  0  0  0  0  0  0  0  0  0  0  0
    0.8676    5.7136   11.7952 C   0  0  0  0  0  0  0  0  0  0  0  0
   -0.2803    4.9463   11.6387 N   0  0  0  0  0  0  0  0  0  0  0  0
   -1.3774    5.1377   12.3617 C   0  0  0  0  0  0  0  0  0  0  0  0
   -1.3433    6.1514   13.2900 C   0  0  0  0  0  0  0  0  0  0  0  0
   -0.2251    6.9274   13.4657 C   0  0  0  0  0  0  0  0  0  0  0  0
    0.9308    6.7255   12.7135 C   0  0  0  0  0  0  0  0  0  0  0  0
    2.1109    7.5436   12.9564 C   0  0  0  0  0  0  0  0  0  0  0  0
    2.4421    8.4454   11.9957 F   0  0  0  0  0  0  0  0  0  0  0  0
    3.2420    6.8651   13.3826 F   0  0  0  0  0  0  0  0  0  0  0  0
    1.8126    8.3665   14.0903 F   0  0  0  0  0  0  0  0  0  0  0  0
    4.5014    3.5866    5.4097 N   0  0  0  0  0  0  0  0  0  0  0  0
    5.6735    2.7820    5.0662 C   0  0  0  0  0  0  0  0  0  0  0  0
    5.8067    2.6945    3.5638 C   0  0  0  0  0  0  0  0  0  0  0  0
    5.8592    4.0860    2.9513 C   0  0  0  0  0  0  0  0  0  0  0  0
    4.6883    4.9178    3.3327 C   0  0  0  0  0  0  0  0  0  0  0  0
    3.8459    4.3491    4.4171 C   0  0  0  0  0  0  0  0  0  0  0  0
    4.0957    1.2743    9.6491 N   0  0  0  0  0  0  0  0  0  0  0  0
    4.5245    1.5264   10.6300 H   0  0  0  0  0  0  0  0  0  0  0  0
    2.8671   -2.7079    9.3419 C   0  0  0  0  0  0  0  0  0  0  0  0
    4.1353   -2.4160    9.8175 C   0  0  0  0  0  0  0  0  0  0  0  0
    4.5878   -1.1167    9.8914 C   0  0  0  0  0  0  0  0  0  0  0  0
    3.7812   -0.0714    9.4982 C   0  0  0  0  0  0  0  0  0  0  0  0
    2.5391   -0.3968    9.0227 N   0  0  0  0  0  0  0  0  0  0  0  0
    2.0766   -1.6493    8.9356 C   0  0  0  0  0  0  0  0  0  0  0  0
    2.2303   -4.6028   10.5657 F   0  0  0  0  0  0  0  0  0  0  0  0
    2.3361   -4.0763    9.2845 C   0  0  0  0  0  0  0  0  0  0  0  0
    1.1554   -4.2029    8.6398 F   0  0  0  0  0  0  0  0  0  0  0  0
    3.3314   -4.8358    8.6555 F   0  0  0  0  0  0  0  0  0  0  0  0
 36 37  1  0  0  0
 37 38  1  0  0  0
 37 39  1  0  0  0
 37 30  1  0  0  0
 30 31  2  0  0  0
 31 32  1  0  0  0
 32 33  2  0  0  0
 33 28  1  0  0  0
 28  1  1  0  0  0
  1  2  2  0  0  0
  2  3  1  0  0  0
  3  4  2  0  0  0
  4  5  1  0  0  0
  5  6  1  0  0  0
  6  7  1  0  0  0
  7  8  1  0  0  0
  8  9  1  0  0  0
  9 10  1  0  0  0
 10 11  1  0  0  0
  8 12  1  0  0  0
 12 13  2  0  0  0
 13 14  1  0  0  0
 14 15  2  0  0  0
 15 16  1  0  0  0
 16 17  2  0  0  0
 17 18  1  0  0  0
 18 19  1  0  0  0
 18 20  1  0  0  0
 18 21  1  0  0  0
  3 22  1  0  0  0
 22 23  1  0  0  0
 23 24  1  0  0  0
 24 25  1  0  0  0
 25 26  1  0  0  0
 26 27  1  0  0  0
 33 34  1  0  0  0
 34 35  2  0  0  0
 35 30  1  0  0  0
 11  1  1  0  0  0
 17 12  1  0  0  0
 27 22  1  0  0  0
 11  5  2  0  0  0
 28 29  1  0  0  0
M  END
> <minimizedAffinity>
-5.52734

> <CNNscore>
0.3399966657

> <CNNaffinity>
6.5678467751

> <CNN_VS>
2.2330460548

> <CNNaffinity_variance>
0.8306927681

$$$$
[H]c1nc(N2C([H])([H])C([H])([H])c3nc(N4C([H])([H])C([H])([H])C([H])([H])C([H])([H])C4([H])[H])nc(N([H])c4nc([H])c(C(F)(F)F)c([H])c4[H])c3C([H])([H])C2([H])[H])c(C(F)(F)F)c([H])c1[H]


 39 43  0  0  0  0  0  0  0  0999 V2000
    2.8185    3.6216   15.0785 C   0  0  0  0  0  0  0  0  0  0  0  0
    2.9329    4.8913   15.4556 N   0  0  0  0  0  0  0  0  0  0  0  0
    3.3285    5.8636   14.5838 C   0  0  0  0  0  0  0  0  0  0  0  0
    3.6164    5.5972   13.2826 N   0  0  0  0  0  0  0  0  0  0  0  0
    3.5050    4.3395   12.8533 C   0  0  0  0  0  0  0  0  0  0  0  0
    3.7694    4.2256   11.3732 C   0  0  0  0  0  0  0  0  0  0  0  0
    2.4860    3.6544   10.7728 C   0  0  0  0  0  0  0  0  0  0  0  0
    2.2834    2.2939   11.1637 N   0  0  0  0  0  0  0  0  0  0  0  0
    1.7612    1.7730   12.4138 C   0  0  0  0  0  0  0  0  0  0  0  0
    2.8725    1.9361   13.4966 C   0  0  0  0  0  0  0  0  0  0  0  0
    3.1208    3.3700   13.7322 C   0  0  0  0  0  0  0  0  0  0  0  0
    2.6532    1.2943   10.2335 C   0  0  0  0  0  0  0  0  0  0  0  0
    3.9889    0.9142   10.1859 N   0  0  0  0  0  0  0  0  0  0  0  0
    4.4457   -0.0040    9.3426 C   0  0  0  0  0  0  0  0  0  0  0  0
    3.5318   -0.5768    8.4897 C   0  0  0  0  0  0  0  0  0  0  0  0
    2.2067   -0.2202    8.5117 C   0  0  0  0  0  0  0  0  0  0  0  0
    1.7220    0.7384    9.3999 C   0  0  0  0  0  0  0  0  0  0  0  0
    0.3021    1.0615    9.4203 C   0  0  0  0  0  0  0  0  0  0  0  0
   -0.4276    0.6942    8.3347 F   0  0  0  0  0  0  0  0  0  0  0  0
   -0.0198    2.3569    9.7942 F   0  0  0  0  0  0  0  0  0  0  0  0
   -0.2776    0.2928   10.4810 F   0  0  0  0  0  0  0  0  0  0  0  0
    3.6429    7.2126   14.9767 N   0  0  0  0  0  0  0  0  0  0  0  0
    3.3075    8.2499   14.0017 C   0  0  0  0  0  0  0  0  0  0  0  0
    3.3815    9.6080   14.6595 C   0  0  0  0  0  0  0  0  0  0  0  0
    4.7507    9.8229   15.2863 C   0  0  0  0  0  0  0  0  0  0  0  0
    5.1093    8.7476   16.2474 C   0  0  0  0  0  0  0  0  0  0  0  0
    4.2117    7.5633   16.2217 C   0  0  0  0  0  0  0  0  0  0  0  0
    2.6650    2.5750   15.9862 N   0  0  0  0  0  0  0  0  0  0  0  0
    1.8850    1.8655   15.6731 H   0  0  0  0  0  0  0  0  0  0  0  0
    4.3889    1.3891   19.6034 C   0  0  0  0  0  0  0  0  0  0  0  0
    4.7775    2.5829   19.0170 C   0  0  0  0  0  0  0  0  0  0  0  0
    4.2609    2.9831   17.8040 C   0  0  0  0  0  0  0  0  0  0  0  0
    3.3349    2.2035   17.1463 C   0  0  0  0  0  0  0  0  0  0  0  0
    2.9824    1.0254   17.7486 N   0  0  0  0  0  0  0  0  0  0  0  0
    3.4718    0.6105   18.9228 C   0  0  0  0  0  0  0  0  0  0  0  0
    4.9699    2.0281   21.7824 F   0  0  0  0  0  0  0  0  0  0  0  0
    4.8883    0.9481   20.9125 C   0  0  0  0  0  0  0  0  0  0  0  0
    4.1789   -0.0483   21.4869 F   0  0  0  0  0  0  0  0  0  0  0  0
    6.2141    0.5527   20.6913 F   0  0  0  0  0  0  0  0  0  0  0  0
 36 37  1  0  0  0
 37 38  1  0  0  0
 37 39  1  0  0  0
 37 30  1  0  0  0
 30 31  2  0  0  0
 31 32  1  0  0  0
 32 33  2  0  0  0
 33 28  1  0  0  0
 28  1  1  0  0  0
  1  2  2  0  0  0
  2  3  1  0  0  0
  3  4  2  0  0  0
  4  5  1  0  0  0
  5  6  1  0  0  0
  6  7  1  0  0  0
  7  8  1  0  0  0
  8  9  1  0  0  0
  9 10  1  0  0  0
 10 11  1  0  0  0
  8 12  1  0  0  0
 12 13  2  0  0  0
 13 14  1  0  0  0
 14 15  2  0  0  0
 15 16  1  0  0  0
 16 17  2  0  0  0
 17 18  1  0  0  0
 18 19  1  0  0  0
 18 20  1  0  0  0
 18 21  1  0  0  0
  3 22  1  0  0  0
 22 23  1  0  0  0
 23 24  1  0  0  0
 24 25  1  0  0  0
 25 26  1  0  0  0
 26 27  1  0  0  0
 33 34  1  0  0  0
 34 35  2  0  0  0
 35 30  1  0  0  0
 11  1  1  0  0  0
 17 12  1  0  0  0
 27 22  1  0  0  0
 11  5  2  0  0  0
 28 29  1  0  0  0
M  END
> <minimizedAffinity>
-7.75255

> <CNNscore>
0.3215621114

> <CNNaffinity>
7.1869611740

> <CNN_VS>
2.3110544682

> <CNNaffinity_variance>
0.4949581623

$$$$
[H]c1nc(N2C([H])([H])C([H])([H])c3nc(N4C([H])([H])C([H])([H])C([H])([H])C([H])([H])C4([H])[H])nc(N([H])c4nc([H])c(C(F)(F)F)c([H])c4[H])c3C([H])([H])C2([H])[H])c(C(F)(F)F)c([H])c1[H]


 39 43  0  0  0  0  0  0  0  0999 V2000
    4.2978    2.8789   16.7401 C   0  0  0  0  0  0  0  0  0  0  0  0
    3.7694    2.6164   15.5487 N   0  0  0  0  0  0  0  0  0  0  0  0
    3.1543    3.5847   14.8099 C   0  0  0  0  0  0  0  0  0  0  0  0
    3.0553    4.8705   15.2386 N   0  0  0  0  0  0  0  0  0  0  0  0
    3.5809    5.1862   16.4229 C   0  0  0  0  0  0  0  0  0  0  0  0
    3.4695    6.6619   16.7116 C   0  0  0  0  0  0  0  0  0  0  0  0
    4.9057    7.1520   16.8886 C   0  0  0  0  0  0  0  0  0  0  0  0
    5.4919    6.6383   18.0875 N   0  0  0  0  0  0  0  0  0  0  0  0
    6.0606    5.3259   18.3341 C   0  0  0  0  0  0  0  0  0  0  0  0
    4.8802    4.3132   18.4576 C   0  0  0  0  0  0  0  0  0  0  0  0
    4.1838    4.2116   17.1622 C   0  0  0  0  0  0  0  0  0  0  0  0
    5.5165    7.4966   19.2118 C   0  0  0  0  0  0  0  0  0  0  0  0
    4.6999    7.1775   20.2899 N   0  0  0  0  0  0  0  0  0  0  0  0
    4.6361    7.9206   21.3884 C   0  0  0  0  0  0  0  0  0  0  0  0
    5.4191    9.0503   21.4232 C   0  0  0  0  0  0  0  0  0  0  0  0
    6.2337    9.3926   20.3731 C   0  0  0  0  0  0  0  0  0  0  0  0
    6.3086    8.6117   19.2209 C   0  0  0  0  0  0  0  0  0  0  0  0
    7.2146    8.9863   18.1440 C   0  0  0  0  0  0  0  0  0  0  0  0
    6.6988    9.7470   17.1434 F   0  0  0  0  0  0  0  0  0  0  0  0
    7.9841    7.9619   17.6149 F   0  0  0  0  0  0  0  0  0  0  0  0
    8.2102    9.8375   18.7237 F   0  0  0  0  0  0  0  0  0  0  0  0
    2.4104    3.3224   13.6054 N   0  0  0  0  0  0  0  0  0  0  0  0
    3.2107    3.1409   12.3947 C   0  0  0  0  0  0  0  0  0  0  0  0
    2.3487    2.5587   11.2989 C   0  0  0  0  0  0  0  0  0  0  0  0
    1.1270    3.4330   11.0603 C   0  0  0  0  0  0  0  0  0  0  0  0
    0.3353    3.6509   12.2990 C   0  0  0  0  0  0  0  0  0  0  0  0
    1.0030    3.2104   13.5515 C   0  0  0  0  0  0  0  0  0  0  0  0
    4.7040    1.8797   17.6230 N   0  0  0  0  0  0  0  0  0  0  0  0
    5.1869    1.0388   17.1040 H   0  0  0  0  0  0  0  0  0  0  0  0
    4.4009    1.6818   21.7861 C   0  0  0  0  0  0  0  0  0  0  0  0
    5.5894    2.0916   21.2034 C   0  0  0  0  0  0  0  0  0  0  0  0
    5.7374    2.1274   19.8341 C   0  0  0  0  0  0  0  0  0  0  0  0
    4.6975    1.7609   19.0080 C   0  0  0  0  0  0  0  0  0  0  0  0
    3.5420    1.3505   19.6173 N   0  0  0  0  0  0  0  0  0  0  0  0
    3.3731    1.3014   20.9438 C   0  0  0  0  0  0  0  0  0  0  0  0
    3.4638    0.5437   23.6082 F   0  0  0  0  0  0  0  0  0  0  0  0
    4.1931    1.6673   23.2401 C   0  0  0  0  0  0  0  0  0  0  0  0
    5.3228    1.7403   23.9780 F   0  0  0  0  0  0  0  0  0  0  0  0
    3.3522    2.7557   23.5070 F   0  0  0  0  0  0  0  0  0  0  0  0
 36 37  1  0  0  0
 37 38  1  0  0  0
 37 39  1  0  0  0
 37 30  1  0  0  0
 30 31  2  0  0  0
 31 32  1  0  0  0
 32 33  2  0  0  0
 33 28  1  0  0  0
 28  1  1  0  0  0
  1  2  2  0  0  0
  2  3  1  0  0  0
  3  4  2  0  0  0
  4  5  1  0  0  0
  5  6  1  0  0  0
  6  7  1  0  0  0
  7  8  1  0  0  0
  8  9  1  0  0  0
  9 10  1  0  0  0
 10 11  1  0  0  0
  8 12  1  0  0  0
 12 13  2  0  0  0
 13 14  1  0  0  0
 14 15  2  0  0  0
 15 16  1  0  0  0
 16 17  2  0  0  0
 17 18  1  0  0  0
 18 19  1  0  0  0
 18 20  1  0  0  0
 18 21  1  0  0  0
  3 22  1  0  0  0
 22 23  1  0  0  0
 23 24  1  0  0  0
 24 25  1  0  0  0
 25 26  1  0  0  0
 26 27  1  0  0  0
 33 34  1  0  0  0
 34 35  2  0  0  0
 35 30  1  0  0  0
 11  1  1  0  0  0
 17 12  1  0  0  0
 27 22  1  0  0  0
 11  5  2  0  0  0
 28 29  1  0  0  0
M  END
> <minimizedAffinity>
-7.38558

> <CNNscore>
0.3052276373

> <CNNaffinity>
7.1826767921

> <CNN_VS>
2.1923515797

> <CNNaffinity_variance>
0.4848530293

$$$$
[H]c1nc(N2C([H])([H])C([H])([H])c3nc(N4C([H])([H])C([H])([H])C([H])([H])C([H])([H])C4([H])[H])nc(N([H])c4nc([H])c(C(F)(F)F)c([H])c4[H])c3C([H])([H])C2([H])[H])c(C(F)(F)F)c([H])c1[H]


 39 43  0  0  0  0  0  0  0  0999 V2000
    3.6124    4.7820   12.9986 C   0  0  0  0  0  0  0  0  0  0  0  0
    2.5870    5.2646   12.3035 N   0  0  0  0  0  0  0  0  0  0  0  0
    1.3275    5.3121   12.8262 C   0  0  0  0  0  0  0  0  0  0  0  0
    1.0484    4.8829   14.0851 N   0  0  0  0  0  0  0  0  0  0  0  0
    2.0466    4.4009   14.8265 C   0  0  0  0  0  0  0  0  0  0  0  0
    1.5931    4.0538   16.2220 C   0  0  0  0  0  0  0  0  0  0  0  0
    2.4406    4.9193   17.1529 C   0  0  0  0  0  0  0  0  0  0  0  0
    3.8095    4.5059   17.1530 N   0  0  0  0  0  0  0  0  0  0  0  0
    4.8471    4.7892   16.1784 C   0  0  0  0  0  0  0  0  0  0  0  0
    4.5654    3.9139   14.9180 C   0  0  0  0  0  0  0  0  0  0  0  0
    3.3011    4.3447   14.2944 C   0  0  0  0  0  0  0  0  0  0  0  0
    4.2361    3.6898   18.2269 C   0  0  0  0  0  0  0  0  0  0  0  0
    4.1125    2.3130   18.0847 N   0  0  0  0  0  0  0  0  0  0  0  0
    4.4696    1.4570   19.0348 C   0  0  0  0  0  0  0  0  0  0  0  0
    4.9722    1.9907   20.1980 C   0  0  0  0  0  0  0  0  0  0  0  0
    5.1039    3.3461   20.3685 C   0  0  0  0  0  0  0  0  0  0  0  0
    4.7364    4.2478   19.3712 C   0  0  0  0  0  0  0  0  0  0  0  0
    4.9281    5.6771   19.5739 C   0  0  0  0  0  0  0  0  0  0  0  0
    5.4622    6.3784   18.5400 F   0  0  0  0  0  0  0  0  0  0  0  0
    5.5374    6.0447   20.7635 F   0  0  0  0  0  0  0  0  0  0  0  0
    3.6228    6.2490   19.7190 F   0  0  0  0  0  0  0  0  0  0  0  0
    0.1552    5.6522   12.0626 N   0  0  0  0  0  0  0  0  0  0  0  0
   -1.0920    5.0316   12.5082 C   0  0  0  0  0  0  0  0  0  0  0  0
   -2.2646    5.7153   11.8447 C   0  0  0  0  0  0  0  0  0  0  0  0
   -2.1118    5.6872   10.3315 C   0  0  0  0  0  0  0  0  0  0  0  0
   -0.8264    6.2814    9.8805 C   0  0  0  0  0  0  0  0  0  0  0  0
    0.1546    6.5430   10.9659 C   0  0  0  0  0  0  0  0  0  0  0  0
    4.8453    4.4865   12.4193 N   0  0  0  0  0  0  0  0  0  0  0  0
    5.4265    3.7734   13.0221 H   0  0  0  0  0  0  0  0  0  0  0  0
    6.8722    5.2952    8.8556 C   0  0  0  0  0  0  0  0  0  0  0  0
    6.6035    6.3263    9.7413 C   0  0  0  0  0  0  0  0  0  0  0  0
    5.9001    6.1024   10.9046 C   0  0  0  0  0  0  0  0  0  0  0  0
    5.4515    4.8383   11.2188 C   0  0  0  0  0  0  0  0  0  0  0  0
    5.7246    3.8457   10.3160 N   0  0  0  0  0  0  0  0  0  0  0  0
    6.4007    4.0362    9.1772 C   0  0  0  0  0  0  0  0  0  0  0  0
    8.9556    5.8514    7.9370 F   0  0  0  0  0  0  0  0  0  0  0  0
    7.6515    5.4878    7.6255 C   0  0  0  0  0  0  0  0  0  0  0  0
    7.6608    4.4298    6.7852 F   0  0  0  0  0  0  0  0  0  0  0  0
    7.0941    6.6131    7.0041 F   0  0  0  0  0  0  0  0  0  0  0  0
 36 37  1  0  0  0
 37 38  1  0  0  0
 37 39  1  0  0  0
 37 30  1  0  0  0
 30 31  2  0  0  0
 31 32  1  0  0  0
 32 33  2  0  0  0
 33 28  1  0  0  0
 28  1  1  0  0  0
  1  2  2  0  0  0
  2  3  1  0  0  0
  3  4  2  0  0  0
  4  5  1  0  0  0
  5  6  1  0  0  0
  6  7  1  0  0  0
  7  8  1  0  0  0
  8  9  1  0  0  0
  9 10  1  0  0  0
 10 11  1  0  0  0
  8 12  1  0  0  0
 12 13  2  0  0  0
 13 14  1  0  0  0
 14 15  2  0  0  0
 15 16  1  0  0  0
 16 17  2  0  0  0
 17 18  1  0  0  0
 18 19  1  0  0  0
 18 20  1  0  0  0
 18 21  1  0  0  0
  3 22  1  0  0  0
 22 23  1  0  0  0
 23 24  1  0  0  0
 24 25  1  0  0  0
 25 26  1  0  0  0
 26 27  1  0  0  0
 33 34  1  0  0  0
 34 35  2  0  0  0
 35 30  1  0  0  0
 11  1  1  0  0  0
 17 12  1  0  0  0
 27 22  1  0  0  0
 11  5  2  0  0  0
 28 29  1  0  0  0
M  END
> <minimizedAffinity>
-6.71759

> <CNNscore>
0.2395165712

> <CNNaffinity>
6.6113815308

> <CNN_VS>
1.5835354328

> <CNNaffinity_variance>
1.4961537123

$$$$
[H]c1nc(N2C([H])([H])C([H])([H])c3nc(N4C([H])([H])C([H])([H])C([H])([H])C([H])([H])C4([H])[H])nc(N([H])c4nc([H])c(C(F)(F)F)c([H])c4[H])c3C([H])([H])C2([H])[H])c(C(F)(F)F)c([H])c1[H]


 39 43  0  0  0  0  0  0  0  0999 V2000
    3.9832    3.0925    9.8755 C   0  0  0  0  0  0  0  0  0  0  0  0
    4.6470    3.9351    9.0901 N   0  0  0  0  0  0  0  0  0  0  0  0
    5.2059    3.5272    7.9139 C   0  0  0  0  0  0  0  0  0  0  0  0
    5.1084    2.2462    7.4708 N   0  0  0  0  0  0  0  0  0  0  0  0
    4.4415    1.3658    8.2182 C   0  0  0  0  0  0  0  0  0  0  0  0
    4.3463    0.0183    7.5484 C   0  0  0  0  0  0  0  0  0  0  0  0
    2.8512   -0.2538    7.3913 C   0  0  0  0  0  0  0  0  0  0  0  0
    2.2235   -0.4837    8.6554 N   0  0  0  0  0  0  0  0  0  0  0  0
    1.7977    0.4831    9.6506 C   0  0  0  0  0  0  0  0  0  0  0  0
    3.0756    1.0229   10.3646 C   0  0  0  0  0  0  0  0  0  0  0  0
    3.8956    1.7764    9.3986 C   0  0  0  0  0  0  0  0  0  0  0  0
    1.9916   -1.8296    9.0244 C   0  0  0  0  0  0  0  0  0  0  0  0
    3.0805   -2.5845    9.4434 N   0  0  0  0  0  0  0  0  0  0  0  0
    2.9772   -3.8595    9.7995 C   0  0  0  0  0  0  0  0  0  0  0  0
    1.7264   -4.4264    9.7315 C   0  0  0  0  0  0  0  0  0  0  0  0
    0.6328   -3.7069    9.3193 C   0  0  0  0  0  0  0  0  0  0  0  0
    0.7358   -2.3666    8.9510 C   0  0  0  0  0  0  0  0  0  0  0  0
   -0.4543   -1.6253    8.5571 C   0  0  0  0  0  0  0  0  0  0  0  0
   -0.4576   -1.0855    7.3103 F   0  0  0  0  0  0  0  0  0  0  0  0
   -0.9258   -0.7017    9.4770 F   0  0  0  0  0  0  0  0  0  0  0  0
   -1.5287   -2.5715    8.5081 F   0  0  0  0  0  0  0  0  0  0  0  0
    6.0838    4.3448    7.1179 N   0  0  0  0  0  0  0  0  0  0  0  0
    5.7615    5.7710    7.0831 C   0  0  0  0  0  0  0  0  0  0  0  0
    6.9235    6.5400    6.4992 C   0  0  0  0  0  0  0  0  0  0  0  0
    7.2880    5.9947    5.1268 C   0  0  0  0  0  0  0  0  0  0  0  0
    7.5766    4.5371    5.1543 C   0  0  0  0  0  0  0  0  0  0  0  0
    7.2106    3.8527    6.4218 C   0  0  0  0  0  0  0  0  0  0  0  0
    3.6213    3.4060   11.1846 N   0  0  0  0  0  0  0  0  0  0  0  0
    4.3170    2.9778   11.9210 H   0  0  0  0  0  0  0  0  0  0  0  0
    0.4110    5.6039   12.7093 C   0  0  0  0  0  0  0  0  0  0  0  0
    1.4839    6.2657   12.1342 C   0  0  0  0  0  0  0  0  0  0  0  0
    2.5775    5.5745   11.6604 C   0  0  0  0  0  0  0  0  0  0  0  0
    2.6257    4.2000   11.7420 C   0  0  0  0  0  0  0  0  0  0  0  0
    1.5540    3.5797   12.3264 N   0  0  0  0  0  0  0  0  0  0  0  0
    0.4822    4.2264   12.7990 C   0  0  0  0  0  0  0  0  0  0  0  0
   -0.8367    7.5876   12.6630 F   0  0  0  0  0  0  0  0  0  0  0  0
   -0.7879    6.3032   13.1902 C   0  0  0  0  0  0  0  0  0  0  0  0
   -1.9547    5.6659   12.9489 F   0  0  0  0  0  0  0  0  0  0  0  0
   -0.5904    6.4775   14.5663 F   0  0  0  0  0  0  0  0  0  0  0  0
 36 37  1  0  0  0
 37 38  1  0  0  0
 37 39  1  0  0  0
 37 30  1  0  0  0
 30 31  2  0  0  0
 31 32  1  0  0  0
 32 33  2  0  0  0
 33 28  1  0  0  0
 28  1  1  0  0  0
  1  2  2  0  0  0
  2  3  1  0  0  0
  3  4  2  0  0  0
  4  5  1  0  0  0
  5  6  1  0  0  0
  6  7  1  0  0  0
  7  8  1  0  0  0
  8  9  1  0  0  0
  9 10  1  0  0  0
 10 11  1  0  0  0
  8 12  1  0  0  0
 12 13  2  0  0  0
 13 14  1  0  0  0
 14 15  2  0  0  0
 15 16  1  0  0  0
 16 17  2  0  0  0
 17 18  1  0  0  0
 18 19  1  0  0  0
 18 20  1  0  0  0
 18 21  1  0  0  0
  3 22  1  0  0  0
 22 23  1  0  0  0
 23 24  1  0  0  0
 24 25  1  0  0  0
 25 26  1  0  0  0
 26 27  1  0  0  0
 33 34  1  0  0  0
 34 35  2  0  0  0
 35 30  1  0  0  0
 11  1  1  0  0  0
 17 12  1  0  0  0
 27 22  1  0  0  0
 11  5  2  0  0  0
 28 29  1  0  0  0
M  END
> <minimizedAffinity>
-5.54553

> <CNNscore>
0.2217991203

> <CNNaffinity>
6.3070893288

> <CNN_VS>
1.3989068270

> <CNNaffinity_variance>
0.2697856426

$$$$
[H]c1nc(N2C([H])([H])C([H])([H])c3nc(N4C([H])([H])C([H])([H])C([H])([H])C([H])([H])C4([H])[H])nc(N([H])c4nc([H])c(C(F)(F)F)c([H])c4[H])c3C([H])([H])C2([H])[H])c(C(F)(F)F)c([H])c1[H]


 39 43  0  0  0  0  0  0  0  0999 V2000
    3.6308    3.8943   15.5529 C   0  0  0  0  0  0  0  0  0  0  0  0
    4.1222    4.9148   16.2491 N   0  0  0  0  0  0  0  0  0  0  0  0
    4.2355    6.1619   15.7072 C   0  0  0  0  0  0  0  0  0  0  0  0
    3.8445    6.4379   14.4353 N   0  0  0  0  0  0  0  0  0  0  0  0
    3.3338    5.4492   13.7003 C   0  0  0  0  0  0  0  0  0  0  0  0
    2.8668    5.9352   12.3516 C   0  0  0  0  0  0  0  0  0  0  0  0
    1.3740    5.6146   12.2975 C   0  0  0  0  0  0  0  0  0  0  0  0
    1.1418    4.2055   12.2239 N   0  0  0  0  0  0  0  0  0  0  0  0
    1.1693    3.2205   13.2896 C   0  0  0  0  0  0  0  0  0  0  0  0
    2.6626    2.9716   13.6669 C   0  0  0  0  0  0  0  0  0  0  0  0
    3.2343    4.2021   14.2433 C   0  0  0  0  0  0  0  0  0  0  0  0
    0.8657    3.6637   10.9466 C   0  0  0  0  0  0  0  0  0  0  0  0
    1.8621    2.9177   10.3288 N   0  0  0  0  0  0  0  0  0  0  0  0
    1.7133    2.3756    9.1259 C   0  0  0  0  0  0  0  0  0  0  0  0
    0.5125    2.5878    8.4907 C   0  0  0  0  0  0  0  0  0  0  0  0
   -0.4893    3.3221    9.0744 C   0  0  0  0  0  0  0  0  0  0  0  0
   -0.3396    3.8873   10.3397 C   0  0  0  0  0  0  0  0  0  0  0  0
   -1.4399    4.6266   10.9428 C   0  0  0  0  0  0  0  0  0  0  0  0
   -1.4327    5.9761   10.7860 F   0  0  0  0  0  0  0  0  0  0  0  0
   -1.7412    4.3015   12.2562 F   0  0  0  0  0  0  0  0  0  0  0  0
   -2.6301    4.2225   10.2557 F   0  0  0  0  0  0  0  0  0  0  0  0
    4.9223    7.2540   16.3463 N   0  0  0  0  0  0  0  0  0  0  0  0
    5.0599    8.4701   15.5454 C   0  0  0  0  0  0  0  0  0  0  0  0
    5.4928    9.6150   16.4311 C   0  0  0  0  0  0  0  0  0  0  0  0
    6.7732    9.2613   17.1722 C   0  0  0  0  0  0  0  0  0  0  0  0
    6.6467    8.0039   17.9543 C   0  0  0  0  0  0  0  0  0  0  0  0
    5.4227    7.2113   17.6670 C   0  0  0  0  0  0  0  0  0  0  0  0
    3.7323    2.5709   15.9787 N   0  0  0  0  0  0  0  0  0  0  0  0
    3.8112    1.8689   15.1358 H   0  0  0  0  0  0  0  0  0  0  0  0
    3.7080    0.7604   19.7448 C   0  0  0  0  0  0  0  0  0  0  0  0
    4.5344    1.8479   19.5117 C   0  0  0  0  0  0  0  0  0  0  0  0
    4.5988    2.4417   18.2701 C   0  0  0  0  0  0  0  0  0  0  0  0
    3.8323    1.9687   17.2277 C   0  0  0  0  0  0  0  0  0  0  0  0
    3.0362    0.8860   17.4901 N   0  0  0  0  0  0  0  0  0  0  0  0
    2.9582    0.2874   18.6843 C   0  0  0  0  0  0  0  0  0  0  0  0
    2.3854    0.4943   21.6615 F   0  0  0  0  0  0  0  0  0  0  0  0
    3.5840    0.1258   21.0637 C   0  0  0  0  0  0  0  0  0  0  0  0
    3.6981   -1.2206   21.0613 F   0  0  0  0  0  0  0  0  0  0  0  0
    4.5837    0.7092   21.8532 F   0  0  0  0  0  0  0  0  0  0  0  0
 36 37  1  0  0  0
 37 38  1  0  0  0
 37 39  1  0  0  0
 37 30  1  0  0  0
 30 31  2  0  0  0
 31 32  1  0  0  0
 32 33  2  0  0  0
 33 28  1  0  0  0
 28  1  1  0  0  0
  1  2  2  0  0  0
  2  3  1  0  0  0
  3  4  2  0  0  0
  4  5  1  0  0  0
  5  6  1  0  0  0
  6  7  1  0  0  0
  7  8  1  0  0  0
  8  9  1  0  0  0
  9 10  1  0  0  0
 10 11  1  0  0  0
  8 12  1  0  0  0
 12 13  2  0  0  0
 13 14  1  0  0  0
 14 15  2  0  0  0
 15 16  1  0  0  0
 16 17  2  0  0  0
 17 18  1  0  0  0
 18 19  1  0  0  0
 18 20  1  0  0  0
 18 21  1  0  0  0
  3 22  1  0  0  0
 22 23  1  0  0  0
 23 24  1  0  0  0
 24 25  1  0  0  0
 25 26  1  0  0  0
 26 27  1  0  0  0
 33 34  1  0  0  0
 34 35  2  0  0  0
 35 30  1  0  0  0
 11  1  1  0  0  0
 17 12  1  0  0  0
 27 22  1  0  0  0
 11  5  2  0  0  0
 28 29  1  0  0  0
M  END
> <minimizedAffinity>
-8.20751

> <CNNscore>
0.1921564788

> <CNNaffinity>
6.9446129799

> <CNN_VS>
1.3344523907

> <CNNaffinity_variance>
0.4136191905

$$$$
[H]c1nc(N2C([H])([H])C([H])([H])c3nc(N4C([H])([H])C([H])([H])C([H])([H])C([H])([H])C4([H])[H])nc(N([H])c4nc([H])c(C(F)(F)F)c([H])c4[H])c3C([H])([H])C2([H])[H])c(C(F)(F)F)c([H])c1[H]


 39 43  0  0  0  0  0  0  0  0999 V2000
    3.4456    1.7560   10.0358 C   0  0  0  0  0  0  0  0  0  0  0  0
    3.0075    0.5042   10.1285 N   0  0  0  0  0  0  0  0  0  0  0  0
    3.1499   -0.3816    9.1004 C   0  0  0  0  0  0  0  0  0  0  0  0
    3.7547   -0.0440    7.9312 N   0  0  0  0  0  0  0  0  0  0  0  0
    4.2218    1.1976    7.7943 C   0  0  0  0  0  0  0  0  0  0  0  0
    4.9417    1.3857    6.4829 C   0  0  0  0  0  0  0  0  0  0  0  0
    6.3666    1.7921    6.8551 C   0  0  0  0  0  0  0  0  0  0  0  0
    6.4066    3.1013    7.4286 N   0  0  0  0  0  0  0  0  0  0  0  0
    6.0878    3.5128    8.7835 C   0  0  0  0  0  0  0  0  0  0  0  0
    4.5358    3.4743    8.9381 C   0  0  0  0  0  0  0  0  0  0  0  0
    4.0658    2.0820    8.8207 C   0  0  0  0  0  0  0  0  0  0  0  0
    6.7847    4.1664    6.5777 C   0  0  0  0  0  0  0  0  0  0  0  0
    5.7814    4.9949    6.0899 N   0  0  0  0  0  0  0  0  0  0  0  0
    6.0239    6.0146    5.2748 C   0  0  0  0  0  0  0  0  0  0  0  0
    7.3335    6.2259    4.9131 C   0  0  0  0  0  0  0  0  0  0  0  0
    8.3454    5.4231    5.3767 C   0  0  0  0  0  0  0  0  0  0  0  0
    8.0960    4.3557    6.2376 C   0  0  0  0  0  0  0  0  0  0  0  0
    9.2008    3.5507    6.7399 C   0  0  0  0  0  0  0  0  0  0  0  0
    9.4183    2.3564    6.1297 F   0  0  0  0  0  0  0  0  0  0  0  0
    9.2652    3.4006    8.1164 F   0  0  0  0  0  0  0  0  0  0  0  0
   10.4003    4.2836    6.4641 F   0  0  0  0  0  0  0  0  0  0  0  0
    2.5387   -1.6849    9.0752 N   0  0  0  0  0  0  0  0  0  0  0  0
    1.0798   -1.6975    8.9715 C   0  0  0  0  0  0  0  0  0  0  0  0
    0.6071   -3.0910    8.6288 C   0  0  0  0  0  0  0  0  0  0  0  0
    1.1243   -4.0951    9.6478 C   0  0  0  0  0  0  0  0  0  0  0  0
    2.6038   -4.0547    9.7829 C   0  0  0  0  0  0  0  0  0  0  0  0
    3.2596   -2.8994    9.1166 C   0  0  0  0  0  0  0  0  0  0  0  0
    3.0989    2.7474   10.9522 N   0  0  0  0  0  0  0  0  0  0  0  0
    3.9820    3.2077   11.4191 H   0  0  0  0  0  0  0  0  0  0  0  0
   -0.5364    4.6193   11.8139 C   0  0  0  0  0  0  0  0  0  0  0  0
    0.4937    4.6621   12.7396 C   0  0  0  0  0  0  0  0  0  0  0  0
    1.6899    4.0197   12.5059 C   0  0  0  0  0  0  0  0  0  0  0  0
    1.8924    3.3217   11.3355 C   0  0  0  0  0  0  0  0  0  0  0  0
    0.8497    3.2905   10.4486 N   0  0  0  0  0  0  0  0  0  0  0  0
   -0.3235    3.9008   10.6523 C   0  0  0  0  0  0  0  0  0  0  0  0
   -2.8702    4.4294   11.9196 F   0  0  0  0  0  0  0  0  0  0  0  0
   -1.8105    5.3231   12.0107 C   0  0  0  0  0  0  0  0  0  0  0  0
   -1.9023    6.0244   13.1621 F   0  0  0  0  0  0  0  0  0  0  0  0
   -1.9448    6.1676   10.9008 F   0  0  0  0  0  0  0  0  0  0  0  0
 36 37  1  0  0  0
 37 38  1  0  0  0
 37 39  1  0  0  0
 37 30  1  0  0  0
 30 31  2  0  0  0
 31 32  1  0  0  0
 32 33  2  0  0  0
 33 28  1  0  0  0
 28  1  1  0  0  0
  1  2  2  0  0  0
  2  3  1  0  0  0
  3  4  2  0  0  0
  4  5  1  0  0  0
  5  6  1  0  0  0
  6  7  1  0  0  0
  7  8  1  0  0  0
  8  9  1  0  0  0
  9 10  1  0  0  0
 10 11  1  0  0  0
  8 12  1  0  0  0
 12 13  2  0  0  0
 13 14  1  0  0  0
 14 15  2  0  0  0
 15 16  1  0  0  0
 16 17  2  0  0  0
 17 18  1  0  0  0
 18 19  1  0  0  0
 18 20  1  0  0  0
 18 21  1  0  0  0
  3 22  1  0  0  0
 22 23  1  0  0  0
 23 24  1  0  0  0
 24 25  1  0  0  0
 25 26  1  0  0  0
 26 27  1  0  0  0
 33 34  1  0  0  0
 34 35  2  0  0  0
 35 30  1  0  0  0
 11  1  1  0  0  0
 17 12  1  0  0  0
 27 22  1  0  0  0
 11  5  2  0  0  0
 28 29  1  0  0  0
M  END
> <minimizedAffinity>
-5.48188

> <CNNscore>
0.1823037565

> <CNNaffinity>
6.0739216805

> <CNN_VS>
1.1072987318

> <CNNaffinity_variance>
0.3164617121

$$$$
[H]c1nc(N([H])[H])c2c([H])c(-c3c([H])c(N([H])C(=O)c4c([H])c([H])c(C([H])([H])N5C([H])([H])C([H])([H])N(C([H])([H])[H])C([H])([H])C5([H])[H])c(C(F)(F)F)c4[H])c([H])c([H])c3C([H])([H])[H])c([H])n2n1


 41 45  0  0  0  0  0  0  0  0999 V2000
    4.4566    8.8253   18.6839 C   0  0  0  0  0  0  0  0  0  0  0  0
    3.2652    9.1011   18.9141 O   0  0  0  0  0  0  0  0  0  0  0  0
    5.0198    8.5797   17.4261 N   0  0  0  0  0  0  0  0  0  0  0  0
    6.0684    8.3376   17.3368 H   0  0  0  0  0  0  0  0  0  0  0  0
    4.2557    8.6340   16.2302 C   0  0  0  0  0  0  0  0  0  0  0  0
    3.8312    9.7907   15.6418 C   0  0  0  0  0  0  0  0  0  0  0  0
    3.0658    9.7146   14.4887 C   0  0  0  0  0  0  0  0  0  0  0  0
    2.7268    8.4858   13.9258 C   0  0  0  0  0  0  0  0  0  0  0  0
    1.9095    8.4117   12.6836 C   0  0  0  0  0  0  0  0  0  0  0  0
    3.1429    7.3099   14.4999 C   0  0  0  0  0  0  0  0  0  0  0  0
    3.8973    7.4053   15.6376 C   0  0  0  0  0  0  0  0  0  0  0  0
    2.7806    6.0129   13.9155 C   0  0  0  0  0  0  0  0  0  0  0  0
    1.8024    5.1421   14.2797 C   0  0  0  0  0  0  0  0  0  0  0  0
    1.8600    4.0927   13.4459 N   0  0  0  0  0  0  0  0  0  0  0  0
    1.1382    2.9643   13.3559 N   0  0  0  0  0  0  0  0  0  0  0  0
    1.3759    2.0259   12.4186 C   0  0  0  0  0  0  0  0  0  0  0  0
    2.3740    2.1691   11.4970 N   0  0  0  0  0  0  0  0  0  0  0  0
    3.1041    3.2905   11.5731 C   0  0  0  0  0  0  0  0  0  0  0  0
    4.1502    3.4860   10.6417 N   0  0  0  0  0  0  0  0  0  0  0  0
    2.8424    4.2463   12.5481 C   0  0  0  0  0  0  0  0  0  0  0  0
    3.4336    5.4551   12.8315 C   0  0  0  0  0  0  0  0  0  0  0  0
    4.2215    4.4234   10.1504 H   0  0  0  0  0  0  0  0  0  0  0  0
    4.8631    2.7733   10.3981 H   0  0  0  0  0  0  0  0  0  0  0  0
    7.0582    8.6033   22.1029 C   0  0  0  0  0  0  0  0  0  0  0  0
    5.8255    9.1980   22.1730 C   0  0  0  0  0  0  0  0  0  0  0  0
    4.9539    9.2860   21.0889 C   0  0  0  0  0  0  0  0  0  0  0  0
    5.3232    8.7596   19.8777 C   0  0  0  0  0  0  0  0  0  0  0  0
    6.5599    8.1629   19.8055 C   0  0  0  0  0  0  0  0  0  0  0  0
    7.4186    8.0767   20.8774 C   0  0  0  0  0  0  0  0  0  0  0  0
    8.7245    7.4091   20.6907 C   0  0  0  0  0  0  0  0  0  0  0  0
    8.8630    6.9927   19.3585 F   0  0  0  0  0  0  0  0  0  0  0  0
    8.8208    6.2177   21.4173 F   0  0  0  0  0  0  0  0  0  0  0  0
    9.8035    8.2401   20.9159 F   0  0  0  0  0  0  0  0  0  0  0  0
    7.9410    8.5641   23.2707 C   0  0  0  0  0  0  0  0  0  0  0  0
   11.9029    9.3309   25.3088 C   0  0  0  0  0  0  0  0  0  0  0  0
   10.5288    9.2780   24.8946 N   0  0  0  0  0  0  0  0  0  0  0  0
    9.6336    9.8599   25.8549 C   0  0  0  0  0  0  0  0  0  0  0  0
    8.1780    9.5294   25.4861 C   0  0  0  0  0  0  0  0  0  0  0  0
    8.0187    9.7151   24.0830 N   0  0  0  0  0  0  0  0  0  0  0  0
    9.0263   10.6189   23.5916 C   0  0  0  0  0  0  0  0  0  0  0  0
   10.3784    9.9805   23.6386 C   0  0  0  0  0  0  0  0  0  0  0  0
 35 36  1  0  0  0
 36 37  1  0  0  0
 37 38  1  0  0  0
 38 39  1  0  0  0
 39 34  1  0  0  0
 34 24  1  0  0  0
 24 25  2  0  0  0
 25 26  1  0  0  0
 26 27  2  0  0  0
 27 28  1  0  0  0
 28 29  2  0  0  0
 29 30  1  0  0  0
 30 31  1  0  0  0
 30 32  1  0  0  0
 30 33  1  0  0  0
 27  1  1  0  0  0
  1  2  2  0  0  0
  1  3  1  0  0  0
  3  5  1  0  0  0
  5  6  2  0  0  0
  6  7  1  0  0  0
  7  8  2  0  0  0
  8  9  1  0  0  0
  8 10  1  0  0  0
 10 11  2  0  0  0
 10 12  1  0  0  0
 12 13  2  0  0  0
 13 14  1  0  0  0
 14 15  1  0  0  0
 15 16  2  0  0  0
 16 17  1  0  0  0
 17 18  2  0  0  0
 18 19  1  0  0  0
 18 20  1  0  0  0
 20 21  2  0  0  0
 39 40  1  0  0  0
 40 41  1  0  0  0
 41 36  1  0  0  0
 29 24  1  0  0  0
 11  5  1  0  0  0
 21 12  1  0  0  0
 20 14  1  0  0  0
  3  4  1  0  0  0
 19 22  1  0  0  0
 19 23  1  0  0  0
M  END
> <minimizedAffinity>
-7.70345

> <CNNscore>
0.2150407881

> <CNNaffinity>
5.9583711624

> <CNN_VS>
1.2812927961

> <CNNaffinity_variance>
0.2923056483

$$$$
[H]c1nc(N([H])[H])c2c([H])c(-c3c([H])c(N([H])C(=O)c4c([H])c([H])c(C([H])([H])N5C([H])([H])C([H])([H])N(C([H])([H])[H])C([H])([H])C5([H])[H])c(C(F)(F)F)c4[H])c([H])c([H])c3C([H])([H])[H])c([H])n2n1


 41 45  0  0  0  0  0  0  0  0999 V2000
    2.7919    3.2319   14.5679 C   0  0  0  0  0  0  0  0  0  0  0  0
    2.5011    4.1572   15.3475 O   0  0  0  0  0  0  0  0  0  0  0  0
    3.1531    1.9288   14.9301 N   0  0  0  0  0  0  0  0  0  0  0  0
    3.3974    1.2005   14.1712 H   0  0  0  0  0  0  0  0  0  0  0  0
    3.2161    1.5092   16.2855 C   0  0  0  0  0  0  0  0  0  0  0  0
    2.7222    0.3225   16.7459 C   0  0  0  0  0  0  0  0  0  0  0  0
    2.8180    0.0362   18.0987 C   0  0  0  0  0  0  0  0  0  0  0  0
    3.4064    0.9335   18.9877 C   0  0  0  0  0  0  0  0  0  0  0  0
    3.5114    0.6167   20.4386 C   0  0  0  0  0  0  0  0  0  0  0  0
    3.9103    2.1324   18.5471 C   0  0  0  0  0  0  0  0  0  0  0  0
    3.8064    2.3972   17.2087 C   0  0  0  0  0  0  0  0  0  0  0  0
    4.5229    3.0847   19.4814 C   0  0  0  0  0  0  0  0  0  0  0  0
    5.5029    2.8857   20.4021 C   0  0  0  0  0  0  0  0  0  0  0  0
    5.7272    4.0562   21.0180 N   0  0  0  0  0  0  0  0  0  0  0  0
    6.5748    4.4209   21.9931 N   0  0  0  0  0  0  0  0  0  0  0  0
    6.6313    5.6801   22.4695 C   0  0  0  0  0  0  0  0  0  0  0  0
    5.8223    6.6679   21.9838 N   0  0  0  0  0  0  0  0  0  0  0  0
    4.9701    6.3201   21.0096 C   0  0  0  0  0  0  0  0  0  0  0  0
    4.1103    7.3067   20.4733 N   0  0  0  0  0  0  0  0  0  0  0  0
    4.9277    5.0151   20.5322 C   0  0  0  0  0  0  0  0  0  0  0  0
    4.1605    4.4170   19.5602 C   0  0  0  0  0  0  0  0  0  0  0  0
    4.0312    7.3898   19.4188 H   0  0  0  0  0  0  0  0  0  0  0  0
    3.5432    7.9650   21.0395 H   0  0  0  0  0  0  0  0  0  0  0  0
    2.6447    4.1605   10.3699 C   0  0  0  0  0  0  0  0  0  0  0  0
    2.3945    5.1091   11.3268 C   0  0  0  0  0  0  0  0  0  0  0  0
    2.4362    4.8474   12.6952 C   0  0  0  0  0  0  0  0  0  0  0  0
    2.7398    3.5846   13.1350 C   0  0  0  0  0  0  0  0  0  0  0  0
    2.9906    2.6315   12.1762 C   0  0  0  0  0  0  0  0  0  0  0  0
    2.9494    2.8922   10.8256 C   0  0  0  0  0  0  0  0  0  0  0  0
    3.2405    1.7937    9.8799 C   0  0  0  0  0  0  0  0  0  0  0  0
    3.4165    0.5920   10.5816 F   0  0  0  0  0  0  0  0  0  0  0  0
    4.4619    1.9694    9.2211 F   0  0  0  0  0  0  0  0  0  0  0  0
    2.2095    1.5407    8.9976 F   0  0  0  0  0  0  0  0  0  0  0  0
    2.5606    4.4897    8.9454 C   0  0  0  0  0  0  0  0  0  0  0  0
    1.7954    7.1791    5.3930 C   0  0  0  0  0  0  0  0  0  0  0  0
    2.3331    6.2990    6.3923 N   0  0  0  0  0  0  0  0  0  0  0  0
    3.6175    5.7659    6.0340 C   0  0  0  0  0  0  0  0  0  0  0  0
    4.0071    4.6354    7.0005 C   0  0  0  0  0  0  0  0  0  0  0  0
    3.6964    5.0530    8.3262 N   0  0  0  0  0  0  0  0  0  0  0  0
    3.6500    6.4911    8.3879 C   0  0  0  0  0  0  0  0  0  0  0  0
    2.4632    7.0149    7.6430 C   0  0  0  0  0  0  0  0  0  0  0  0
 35 36  1  0  0  0
 36 37  1  0  0  0
 37 38  1  0  0  0
 38 39  1  0  0  0
 39 34  1  0  0  0
 34 24  1  0  0  0
 24 25  2  0  0  0
 25 26  1  0  0  0
 26 27  2  0  0  0
 27 28  1  0  0  0
 28 29  2  0  0  0
 29 30  1  0  0  0
 30 31  1  0  0  0
 30 32  1  0  0  0
 30 33  1  0  0  0
 27  1  1  0  0  0
  1  2  2  0  0  0
  1  3  1  0  0  0
  3  5  1  0  0  0
  5  6  2  0  0  0
  6  7  1  0  0  0
  7  8  2  0  0  0
  8  9  1  0  0  0
  8 10  1  0  0  0
 10 11  2  0  0  0
 10 12  1  0  0  0
 12 13  2  0  0  0
 13 14  1  0  0  0
 14 15  1  0  0  0
 15 16  2  0  0  0
 16 17  1  0  0  0
 17 18  2  0  0  0
 18 19  1  0  0  0
 18 20  1  0  0  0
 20 21  2  0  0  0
 39 40  1  0  0  0
 40 41  1  0  0  0
 41 36  1  0  0  0
 29 24  1  0  0  0
 11  5  1  0  0  0
 21 12  1  0  0  0
 20 14  1  0  0  0
  3  4  1  0  0  0
 19 22  1  0  0  0
 19 23  1  0  0  0
M  END
> <minimizedAffinity>
-8.38337

> <CNNscore>
0.1531863511

> <CNNaffinity>
6.2587752342

> <CNN_VS>
0.9587589502

> <CNNaffinity_variance>
0.1447925717

$$$$
[H]c1nc(N([H])[H])c2c([H])c(-c3c([H])c(N([H])C(=O)c4c([H])c([H])c(C([H])([H])N5C([H])([H])C([H])([H])N(C([H])([H])[H])C([H])([H])C5([H])[H])c(C(F)(F)F)c4[H])c([H])c([H])c3C([H])([H])[H])c([H])n2n1


 41 45  0  0  0  0  0  0  0  0999 V2000
    2.5792    5.5634   16.8639 C   0  0  0  0  0  0  0  0  0  0  0  0
    1.9126    4.5420   17.1107 O   0  0  0  0  0  0  0  0  0  0  0  0
    2.6191    6.2495   15.6444 N   0  0  0  0  0  0  0  0  0  0  0  0
    3.2419    7.1245   15.5319 H   0  0  0  0  0  0  0  0  0  0  0  0
    1.8594    5.8366   14.5176 C   0  0  0  0  0  0  0  0  0  0  0  0
    0.5833    6.2476   14.2593 C   0  0  0  0  0  0  0  0  0  0  0  0
   -0.0669    5.7522   13.1398 C   0  0  0  0  0  0  0  0  0  0  0  0
    0.5576    4.8493   12.2815 C   0  0  0  0  0  0  0  0  0  0  0  0
   -0.1445    4.3261   11.0775 C   0  0  0  0  0  0  0  0  0  0  0  0
    1.8405    4.4226   12.5213 C   0  0  0  0  0  0  0  0  0  0  0  0
    2.4657    4.9225   13.6310 C   0  0  0  0  0  0  0  0  0  0  0  0
    2.4991    3.4647   11.6248 C   0  0  0  0  0  0  0  0  0  0  0  0
    2.3745    2.1126   11.5602 C   0  0  0  0  0  0  0  0  0  0  0  0
    3.1780    1.6759   10.5786 N   0  0  0  0  0  0  0  0  0  0  0  0
    3.4374    0.4503   10.0958 N   0  0  0  0  0  0  0  0  0  0  0  0
    4.2994    0.2394    9.0819 C   0  0  0  0  0  0  0  0  0  0  0  0
    4.9656    1.2693    8.4806 N   0  0  0  0  0  0  0  0  0  0  0  0
    4.7176    2.4996    8.9509 C   0  0  0  0  0  0  0  0  0  0  0  0
    5.3830    3.6001    8.3622 N   0  0  0  0  0  0  0  0  0  0  0  0
    3.8245    2.6956    9.9980 C   0  0  0  0  0  0  0  0  0  0  0  0
    3.4062    3.8329   10.6480 C   0  0  0  0  0  0  0  0  0  0  0  0
    4.8116    4.4532    8.0957 H   0  0  0  0  0  0  0  0  0  0  0  0
    6.4010    3.6380    8.1679 H   0  0  0  0  0  0  0  0  0  0  0  0
    4.9413    6.9325   20.1886 C   0  0  0  0  0  0  0  0  0  0  0  0
    4.7846    7.6885   19.0564 C   0  0  0  0  0  0  0  0  0  0  0  0
    4.0249    7.2807   17.9612 C   0  0  0  0  0  0  0  0  0  0  0  0
    3.3914    6.0650   17.9905 C   0  0  0  0  0  0  0  0  0  0  0  0
    3.5479    5.3050   19.1256 C   0  0  0  0  0  0  0  0  0  0  0  0
    4.2980    5.7098   20.2060 C   0  0  0  0  0  0  0  0  0  0  0  0
    4.3961    4.8153   21.3791 C   0  0  0  0  0  0  0  0  0  0  0  0
    3.7567    3.5970   21.1068 F   0  0  0  0  0  0  0  0  0  0  0  0
    3.6977    5.3111   22.4851 F   0  0  0  0  0  0  0  0  0  0  0  0
    5.6936    4.4703   21.6999 F   0  0  0  0  0  0  0  0  0  0  0  0
    5.7736    7.4037   21.2975 C   0  0  0  0  0  0  0  0  0  0  0  0
    8.6204    7.9164   24.7719 C   0  0  0  0  0  0  0  0  0  0  0  0
    7.9064    7.9726   23.5271 N   0  0  0  0  0  0  0  0  0  0  0  0
    8.3481    9.0432   22.6781 C   0  0  0  0  0  0  0  0  0  0  0  0
    7.3750    9.2177   21.5007 C   0  0  0  0  0  0  0  0  0  0  0  0
    7.0485    7.9270   20.9948 N   0  0  0  0  0  0  0  0  0  0  0  0
    8.0818    6.9878   21.3470 C   0  0  0  0  0  0  0  0  0  0  0  0
    8.0764    6.7221   22.8191 C   0  0  0  0  0  0  0  0  0  0  0  0
 35 36  1  0  0  0
 36 37  1  0  0  0
 37 38  1  0  0  0
 38 39  1  0  0  0
 39 34  1  0  0  0
 34 24  1  0  0  0
 24 25  2  0  0  0
 25 26  1  0  0  0
 26 27  2  0  0  0
 27 28  1  0  0  0
 28 29  2  0  0  0
 29 30  1  0  0  0
 30 31  1  0  0  0
 30 32  1  0  0  0
 30 33  1  0  0  0
 27  1  1  0  0  0
  1  2  2  0  0  0
  1  3  1  0  0  0
  3  5  1  0  0  0
  5  6  2  0  0  0
  6  7  1  0  0  0
  7  8  2  0  0  0
  8  9  1  0  0  0
  8 10  1  0  0  0
 10 11  2  0  0  0
 10 12  1  0  0  0
 12 13  2  0  0  0
 13 14  1  0  0  0
 14 15  1  0  0  0
 15 16  2  0  0  0
 16 17  1  0  0  0
 17 18  2  0  0  0
 18 19  1  0  0  0
 18 20  1  0  0  0
 20 21  2  0  0  0
 39 40  1  0  0  0
 40 41  1  0  0  0
 41 36  1  0  0  0
 29 24  1  0  0  0
 11  5  1  0  0  0
 21 12  1  0  0  0
 20 14  1  0  0  0
  3  4  1  0  0  0
 19 22  1  0  0  0
 19 23  1  0  0  0
M  END
> <minimizedAffinity>
-8.22696

> <CNNscore>
0.1454431713

> <CNNaffinity>
5.9569306374

> <CNN_VS>
0.8663948774

> <CNNaffinity_variance>
0.6353983283

$$$$
[H]c1nc(N([H])[H])c2c([H])c(-c3c([H])c(N([H])C(=O)c4c([H])c([H])c(C([H])([H])N5C([H])([H])C([H])([H])N(C([H])([H])[H])C([H])([H])C5([H])[H])c(C(F)(F)F)c4[H])c([H])c([H])c3C([H])([H])[H])c([H])n2n1


 41 45  0  0  0  0  0  0  0  0999 V2000
    2.3697    2.6123   13.7596 C   0  0  0  0  0  0  0  0  0  0  0  0
    3.5677    2.9197   13.6225 O   0  0  0  0  0  0  0  0  0  0  0  0
    1.7851    2.0553   14.9031 N   0  0  0  0  0  0  0  0  0  0  0  0
    0.7323    1.8151   14.9146 H   0  0  0  0  0  0  0  0  0  0  0  0
    2.5323    1.7826   16.0797 C   0  0  0  0  0  0  0  0  0  0  0  0
    2.6283    0.5506   16.6603 C   0  0  0  0  0  0  0  0  0  0  0  0
    3.3661    0.4144   17.8258 C   0  0  0  0  0  0  0  0  0  0  0  0
    4.0061    1.5067   18.4080 C   0  0  0  0  0  0  0  0  0  0  0  0
    4.8021    1.3520   19.6567 C   0  0  0  0  0  0  0  0  0  0  0  0
    3.9238    2.7548   17.8415 C   0  0  0  0  0  0  0  0  0  0  0  0
    3.1910    2.8693   16.6916 C   0  0  0  0  0  0  0  0  0  0  0  0
    4.5889    3.9101   18.4562 C   0  0  0  0  0  0  0  0  0  0  0  0
    5.7000    4.5834   18.0562 C   0  0  0  0  0  0  0  0  0  0  0  0
    5.9211    5.5669   18.9415 N   0  0  0  0  0  0  0  0  0  0  0  0
    6.8673    6.5155   19.0266 N   0  0  0  0  0  0  0  0  0  0  0  0
    6.8966    7.4209   20.0242 C   0  0  0  0  0  0  0  0  0  0  0  0
    5.9570    7.4267   21.0157 N   0  0  0  0  0  0  0  0  0  0  0  0
    5.0050    6.4859   20.9451 C   0  0  0  0  0  0  0  0  0  0  0  0
    4.0091    6.4491   21.9486 N   0  0  0  0  0  0  0  0  0  0  0  0
    4.9929    5.5609   19.9075 C   0  0  0  0  0  0  0  0  0  0  0  0
    4.1437    4.5196   19.6150 C   0  0  0  0  0  0  0  0  0  0  0  0
    2.9943    6.3652   21.6513 H   0  0  0  0  0  0  0  0  0  0  0  0
    4.1968    6.4986   22.9673 H   0  0  0  0  0  0  0  0  0  0  0  0
   -0.1008    3.2796   10.3015 C   0  0  0  0  0  0  0  0  0  0  0  0
    0.0631    4.2394   11.2658 C   0  0  0  0  0  0  0  0  0  0  0  0
    0.8574    4.0617   12.3973 C   0  0  0  0  0  0  0  0  0  0  0  0
    1.5199    2.8752   12.5810 C   0  0  0  0  0  0  0  0  0  0  0  0
    1.3561    1.9109   11.6145 C   0  0  0  0  0  0  0  0  0  0  0  0
    0.5718    2.0888   10.4979 C   0  0  0  0  0  0  0  0  0  0  0  0
    0.4689    0.9865    9.5180 C   0  0  0  0  0  0  0  0  0  0  0  0
    1.1569    1.3244    8.3434 F   0  0  0  0  0  0  0  0  0  0  0  0
   -0.8446    0.7850    9.0810 F   0  0  0  0  0  0  0  0  0  0  0  0
    1.0561   -0.1867    9.9473 F   0  0  0  0  0  0  0  0  0  0  0  0
   -0.9697    3.5156    9.1465 C   0  0  0  0  0  0  0  0  0  0  0  0
   -3.8870    5.4035    6.2546 C   0  0  0  0  0  0  0  0  0  0  0  0
   -2.7620    4.8070    6.9187 N   0  0  0  0  0  0  0  0  0  0  0  0
   -1.7065    4.4468    6.0140 C   0  0  0  0  0  0  0  0  0  0  0  0
   -0.6662    3.5765    6.7381 C   0  0  0  0  0  0  0  0  0  0  0  0
   -0.4135    4.1514    8.0164 N   0  0  0  0  0  0  0  0  0  0  0  0
   -0.7540    5.5506    7.9994 C   0  0  0  0  0  0  0  0  0  0  0  0
   -2.2351    5.7337    7.8970 C   0  0  0  0  0  0  0  0  0  0  0  0
 35 36  1  0  0  0
 36 37  1  0  0  0
 37 38  1  0  0  0
 38 39  1  0  0  0
 39 34  1  0  0  0
 34 24  1  0  0  0
 24 25  2  0  0  0
 25 26  1  0  0  0
 26 27  2  0  0  0
 27 28  1  0  0  0
 28 29  2  0  0  0
 29 30  1  0  0  0
 30 31  1  0  0  0
 30 32  1  0  0  0
 30 33  1  0  0  0
 27  1  1  0  0  0
  1  2  2  0  0  0
  1  3  1  0  0  0
  3  5  1  0  0  0
  5  6  2  0  0  0
  6  7  1  0  0  0
  7  8  2  0  0  0
  8  9  1  0  0  0
  8 10  1  0  0  0
 10 11  2  0  0  0
 10 12  1  0  0  0
 12 13  2  0  0  0
 13 14  1  0  0  0
 14 15  1  0  0  0
 15 16  2  0  0  0
 16 17  1  0  0  0
 17 18  2  0  0  0
 18 19  1  0  0  0
 18 20  1  0  0  0
 20 21  2  0  0  0
 39 40  1  0  0  0
 40 41  1  0  0  0
 41 36  1  0  0  0
 29 24  1  0  0  0
 11  5  1  0  0  0
 21 12  1  0  0  0
 20 14  1  0  0  0
  3  4  1  0  0  0
 19 22  1  0  0  0
 19 23  1  0  0  0
M  END
> <minimizedAffinity>
-8.09362

> <CNNscore>
0.1237563118

> <CNNaffinity>
5.9252257347

> <CNN_VS>
0.7332840562

> <CNNaffinity_variance>
0.1364999712

$$$$
[H]c1nc(N([H])[H])c2c([H])c(-c3c([H])c(N([H])C(=O)c4c([H])c([H])c(C([H])([H])N5C([H])([H])C([H])([H])N(C([H])([H])[H])C([H])([H])C5([H])[H])c(C(F)(F)F)c4[H])c([H])c([H])c3C([H])([H])[H])c([H])n2n1


 41 45  0  0  0  0  0  0  0  0999 V2000
    3.5894    6.1180   15.8698 C   0  0  0  0  0  0  0  0  0  0  0  0
    4.1414    5.0031   15.8956 O   0  0  0  0  0  0  0  0  0  0  0  0
    3.3095    6.9274   16.9771 N   0  0  0  0  0  0  0  0  0  0  0  0
    2.8154    7.8785   16.8455 H   0  0  0  0  0  0  0  0  0  0  0  0
    3.6532    6.5451   18.3011 C   0  0  0  0  0  0  0  0  0  0  0  0
    3.1998    5.4135   18.9159 C   0  0  0  0  0  0  0  0  0  0  0  0
    3.5835    5.1615   20.2238 C   0  0  0  0  0  0  0  0  0  0  0  0
    4.4183    6.0382   20.9139 C   0  0  0  0  0  0  0  0  0  0  0  0
    4.8314    5.7580   22.3166 C   0  0  0  0  0  0  0  0  0  0  0  0
    4.8867    7.1818   20.3156 C   0  0  0  0  0  0  0  0  0  0  0  0
    4.4970    7.4134   19.0245 C   0  0  0  0  0  0  0  0  0  0  0  0
    5.7590    8.1128   21.0418 C   0  0  0  0  0  0  0  0  0  0  0  0
    5.4307    9.1618   21.8416 C   0  0  0  0  0  0  0  0  0  0  0  0
    6.5726    9.7128   22.2800 N   0  0  0  0  0  0  0  0  0  0  0  0
    6.8260   10.7572   23.0846 N   0  0  0  0  0  0  0  0  0  0  0  0
    8.0787   11.1425   23.3976 C   0  0  0  0  0  0  0  0  0  0  0  0
    9.1738   10.4872   22.9103 N   0  0  0  0  0  0  0  0  0  0  0  0
    8.9379    9.4418   22.1054 C   0  0  0  0  0  0  0  0  0  0  0  0
   10.0386    8.7301   21.5742 N   0  0  0  0  0  0  0  0  0  0  0  0
    7.6376    9.0606   21.7949 C   0  0  0  0  0  0  0  0  0  0  0  0
    7.1400    8.0467   21.0105 C   0  0  0  0  0  0  0  0  0  0  0  0
   10.0298    7.6707   21.6284 H   0  0  0  0  0  0  0  0  0  0  0  0
   10.8658    9.1701   21.1296 H   0  0  0  0  0  0  0  0  0  0  0  0
    2.3862    7.4719   11.9677 C   0  0  0  0  0  0  0  0  0  0  0  0
    3.5938    7.8239   12.5117 C   0  0  0  0  0  0  0  0  0  0  0  0
    4.0197    7.4025   13.7702 C   0  0  0  0  0  0  0  0  0  0  0  0
    3.2089    6.5942   14.5248 C   0  0  0  0  0  0  0  0  0  0  0  0
    1.9967    6.2404   13.9806 C   0  0  0  0  0  0  0  0  0  0  0  0
    1.5784    6.6572   12.7376 C   0  0  0  0  0  0  0  0  0  0  0  0
    0.2565    6.2136   12.2463 C   0  0  0  0  0  0  0  0  0  0  0  0
   -0.4533    5.5872   13.2812 F   0  0  0  0  0  0  0  0  0  0  0  0
    0.3595    5.2166   11.2706 F   0  0  0  0  0  0  0  0  0  0  0  0
   -0.5553    7.2530   11.8388 F   0  0  0  0  0  0  0  0  0  0  0  0
    1.9827    7.9674   10.6500 C   0  0  0  0  0  0  0  0  0  0  0  0
    1.1915    9.9019    6.6412 C   0  0  0  0  0  0  0  0  0  0  0  0
    1.4633    9.0172    7.7394 N   0  0  0  0  0  0  0  0  0  0  0  0
    1.4052    7.6314    7.3673 C   0  0  0  0  0  0  0  0  0  0  0  0
    1.4313    6.7468    8.6246 C   0  0  0  0  0  0  0  0  0  0  0  0
    2.4211    7.2586    9.5115 N   0  0  0  0  0  0  0  0  0  0  0  0
    3.3886    8.0283    8.7730 C   0  0  0  0  0  0  0  0  0  0  0  0
    2.7806    9.2984    8.2679 C   0  0  0  0  0  0  0  0  0  0  0  0
 35 36  1  0  0  0
 36 37  1  0  0  0
 37 38  1  0  0  0
 38 39  1  0  0  0
 39 34  1  0  0  0
 34 24  1  0  0  0
 24 25  2  0  0  0
 25 26  1  0  0  0
 26 27  2  0  0  0
 27 28  1  0  0  0
 28 29  2  0  0  0
 29 30  1  0  0  0
 30 31  1  0  0  0
 30 32  1  0  0  0
 30 33  1  0  0  0
 27  1  1  0  0  0
  1  2  2  0  0  0
  1  3  1  0  0  0
  3  5  1  0  0  0
  5  6  2  0  0  0
  6  7  1  0  0  0
  7  8  2  0  0  0
  8  9  1  0  0  0
  8 10  1  0  0  0
 10 11  2  0  0  0
 10 12  1  0  0  0
 12 13  2  0  0  0
 13 14  1  0  0  0
 14 15  1  0  0  0
 15 16  2  0  0  0
 16 17  1  0  0  0
 17 18  2  0  0  0
 18 19  1  0  0  0
 18 20  1  0  0  0
 20 21  2  0  0  0
 39 40  1  0  0  0
 40 41  1  0  0  0
 41 36  1  0  0  0
 29 24  1  0  0  0
 11  5  1  0  0  0
 21 12  1  0  0  0
 20 14  1  0  0  0
  3  4  1  0  0  0
 19 22  1  0  0  0
 19 23  1  0  0  0
M  END
> <minimizedAffinity>
-8.30577

> <CNNscore>
0.1179415211

> <CNNaffinity>
5.4533481598

> <CNN_VS>
0.6431761980

> <CNNaffinity_variance>
0.2657138109

$$$$
[H]c1nc(N([H])[H])c2c([H])c(-c3c([H])c(N([H])C(=O)c4c([H])c([H])c(C([H])([H])N5C([H])([H])C([H])([H])N(C([H])([H])[H])C([H])([H])C5([H])[H])c(C(F)(F)F)c4[H])c([H])c([H])c3C([H])([H])[H])c([H])n2n1


 41 45  0  0  0  0  0  0  0  0999 V2000
    3.3476    3.9641   14.6762 C   0  0  0  0  0  0  0  0  0  0  0  0
    3.4971    2.9161   14.0221 O   0  0  0  0  0  0  0  0  0  0  0  0
    2.6600    5.1090   14.2567 N   0  0  0  0  0  0  0  0  0  0  0  0
    2.5973    5.9733   14.9010 H   0  0  0  0  0  0  0  0  0  0  0  0
    2.0252    5.1895   12.9887 C   0  0  0  0  0  0  0  0  0  0  0  0
    0.8697    4.5380   12.6656 C   0  0  0  0  0  0  0  0  0  0  0  0
    0.3603    4.6724   11.3835 C   0  0  0  0  0  0  0  0  0  0  0  0
    1.0044    5.4563   10.4283 C   0  0  0  0  0  0  0  0  0  0  0  0
    0.4483    5.6011    9.0549 C   0  0  0  0  0  0  0  0  0  0  0  0
    2.1672    6.1208   10.7310 C   0  0  0  0  0  0  0  0  0  0  0  0
    2.6545    5.9758   12.0013 C   0  0  0  0  0  0  0  0  0  0  0  0
    2.8539    6.9405    9.7252 C   0  0  0  0  0  0  0  0  0  0  0  0
    2.4866    8.1305    9.1804 C   0  0  0  0  0  0  0  0  0  0  0  0
    3.4375    8.4883    8.3044 N   0  0  0  0  0  0  0  0  0  0  0  0
    3.5767    9.5554    7.5016 N   0  0  0  0  0  0  0  0  0  0  0  0
    4.6370    9.7133    6.6851 C   0  0  0  0  0  0  0  0  0  0  0  0
    5.6410    8.7889    6.6260 N   0  0  0  0  0  0  0  0  0  0  0  0
    5.5171    7.7175    7.4216 C   0  0  0  0  0  0  0  0  0  0  0  0
    6.5302    6.7309    7.3970 N   0  0  0  0  0  0  0  0  0  0  0  0
    4.4151    7.5736    8.2567 C   0  0  0  0  0  0  0  0  0  0  0  0
    4.0610    6.5890    9.1490 C   0  0  0  0  0  0  0  0  0  0  0  0
    6.9145    6.3772    8.3202 H   0  0  0  0  0  0  0  0  0  0  0  0
    6.9324    6.3207    6.5335 H   0  0  0  0  0  0  0  0  0  0  0  0
    5.1410    3.8467   18.5848 C   0  0  0  0  0  0  0  0  0  0  0  0
    5.2930    4.9263   17.7546 C   0  0  0  0  0  0  0  0  0  0  0  0
    4.7248    5.0025   16.4840 C   0  0  0  0  0  0  0  0  0  0  0  0
    3.9708    3.9577   16.0148 C   0  0  0  0  0  0  0  0  0  0  0  0
    3.8177    2.8734   16.8464 C   0  0  0  0  0  0  0  0  0  0  0  0
    4.3791    2.8006   18.1008 C   0  0  0  0  0  0  0  0  0  0  0  0
    4.1470    1.5883   18.9146 C   0  0  0  0  0  0  0  0  0  0  0  0
    3.3815    0.6639   18.1888 F   0  0  0  0  0  0  0  0  0  0  0  0
    3.3623    1.8482   20.0430 F   0  0  0  0  0  0  0  0  0  0  0  0
    5.3067    0.9124   19.2365 F   0  0  0  0  0  0  0  0  0  0  0  0
    5.7840    3.8138   19.9001 C   0  0  0  0  0  0  0  0  0  0  0  0
    4.7230    2.3519   24.0444 C   0  0  0  0  0  0  0  0  0  0  0  0
    4.8889    3.0756   22.8151 N   0  0  0  0  0  0  0  0  0  0  0  0
    4.0554    4.2424   22.7374 C   0  0  0  0  0  0  0  0  0  0  0  0
    4.0750    4.8097   21.3085 C   0  0  0  0  0  0  0  0  0  0  0  0
    5.4204    4.7999   20.8415 N   0  0  0  0  0  0  0  0  0  0  0  0
    6.3267    4.7949   21.9607 C   0  0  0  0  0  0  0  0  0  0  0  0
    6.2702    3.4855   22.6819 C   0  0  0  0  0  0  0  0  0  0  0  0
 35 36  1  0  0  0
 36 37  1  0  0  0
 37 38  1  0  0  0
 38 39  1  0  0  0
 39 34  1  0  0  0
 34 24  1  0  0  0
 24 25  2  0  0  0
 25 26  1  0  0  0
 26 27  2  0  0  0
 27 28  1  0  0  0
 28 29  2  0  0  0
 29 30  1  0  0  0
 30 31  1  0  0  0
 30 32  1  0  0  0
 30 33  1  0  0  0
 27  1  1  0  0  0
  1  2  2  0  0  0
  1  3  1  0  0  0
  3  5  1  0  0  0
  5  6  2  0  0  0
  6  7  1  0  0  0
  7  8  2  0  0  0
  8  9  1  0  0  0
  8 10  1  0  0  0
 10 11  2  0  0  0
 10 12  1  0  0  0
 12 13  2  0  0  0
 13 14  1  0  0  0
 14 15  1  0  0  0
 15 16  2  0  0  0
 16 17  1  0  0  0
 17 18  2  0  0  0
 18 19  1  0  0  0
 18 20  1  0  0  0
 20 21  2  0  0  0
 39 40  1  0  0  0
 40 41  1  0  0  0
 41 36  1  0  0  0
 29 24  1  0  0  0
 11  5  1  0  0  0
 21 12  1  0  0  0
 20 14  1  0  0  0
  3  4  1  0  0  0
 19 22  1  0  0  0
 19 23  1  0  0  0
M  END
> <minimizedAffinity>
-7.85912

> <CNNscore>
0.1167804301

> <CNNaffinity>
6.0840120316

> <CNN_VS>
0.7104935646

> <CNNaffinity_variance>
0.3780001998

$$$$
[H]c1nc(N([H])[H])c2c([H])c(-c3c([H])c(N([H])C(=O)c4c([H])c([H])c(C([H])([H])N5C([H])([H])C([H])([H])N(C([H])([H])[H])C([H])([H])C5([H])[H])c(C(F)(F)F)c4[H])c([H])c([H])c3C([H])([H])[H])c([H])n2n1


 41 45  0  0  0  0  0  0  0  0999 V2000
    3.0019    4.6804   16.4544 C   0  0  0  0  0  0  0  0  0  0  0  0
    2.6258    3.5380   16.7735 O   0  0  0  0  0  0  0  0  0  0  0  0
    3.0207    5.2127   15.1598 N   0  0  0  0  0  0  0  0  0  0  0  0
    3.3776    6.2175   14.9891 H   0  0  0  0  0  0  0  0  0  0  0  0
    2.5819    4.4725   14.0299 C   0  0  0  0  0  0  0  0  0  0  0  0
    3.3039    3.4774   13.4360 C   0  0  0  0  0  0  0  0  0  0  0  0
    2.7810    2.8450   12.3188 C   0  0  0  0  0  0  0  0  0  0  0  0
    1.5400    3.2063   11.7981 C   0  0  0  0  0  0  0  0  0  0  0  0
    0.9817    2.5185   10.6016 C   0  0  0  0  0  0  0  0  0  0  0  0
    0.7963    4.2036   12.3792 C   0  0  0  0  0  0  0  0  0  0  0  0
    1.3291    4.8162   13.4807 C   0  0  0  0  0  0  0  0  0  0  0  0
   -0.5075    4.5938   11.8288 C   0  0  0  0  0  0  0  0  0  0  0  0
   -1.0012    4.4298   10.5729 C   0  0  0  0  0  0  0  0  0  0  0  0
   -2.2381    4.9488   10.5505 N   0  0  0  0  0  0  0  0  0  0  0  0
   -3.1614    5.0525    9.5813 N   0  0  0  0  0  0  0  0  0  0  0  0
   -4.3642    5.6244    9.7858 C   0  0  0  0  0  0  0  0  0  0  0  0
   -4.7176    6.1366   11.0019 N   0  0  0  0  0  0  0  0  0  0  0  0
   -3.8068    6.0408   11.9805 C   0  0  0  0  0  0  0  0  0  0  0  0
   -4.1244    6.5568   13.2584 N   0  0  0  0  0  0  0  0  0  0  0  0
   -2.5715    5.4469   11.7486 C   0  0  0  0  0  0  0  0  0  0  0  0
   -1.4882    5.2303   12.5674 C   0  0  0  0  0  0  0  0  0  0  0  0
   -3.9320    5.9537   14.1096 H   0  0  0  0  0  0  0  0  0  0  0  0
   -4.5369    7.4926   13.4303 H   0  0  0  0  0  0  0  0  0  0  0  0
    4.3668    7.0438   19.7798 C   0  0  0  0  0  0  0  0  0  0  0  0
    4.1818    7.5891   18.5363 C   0  0  0  0  0  0  0  0  0  0  0  0
    3.7378    6.8570   17.4364 C   0  0  0  0  0  0  0  0  0  0  0  0
    3.4653    5.5205   17.5769 C   0  0  0  0  0  0  0  0  0  0  0  0
    3.6508    4.9717   18.8239 C   0  0  0  0  0  0  0  0  0  0  0  0
    4.0887    5.6965   19.9086 C   0  0  0  0  0  0  0  0  0  0  0  0
    4.2499    5.0072   21.2065 C   0  0  0  0  0  0  0  0  0  0  0  0
    3.9411    3.6461   21.0673 F   0  0  0  0  0  0  0  0  0  0  0  0
    3.3324    5.4543   22.1631 F   0  0  0  0  0  0  0  0  0  0  0  0
    5.5451    5.0294   21.6833 F   0  0  0  0  0  0  0  0  0  0  0  0
    4.8603    7.8589   20.8919 C   0  0  0  0  0  0  0  0  0  0  0  0
    7.3284    8.9854   24.5082 C   0  0  0  0  0  0  0  0  0  0  0  0
    6.6788    8.8912   23.2309 N   0  0  0  0  0  0  0  0  0  0  0  0
    6.8707   10.0604   22.4195 C   0  0  0  0  0  0  0  0  0  0  0  0
    5.9377   10.0133   21.1984 C   0  0  0  0  0  0  0  0  0  0  0  0
    5.9724    8.6956   20.6593 N   0  0  0  0  0  0  0  0  0  0  0  0
    7.1940    8.0398   21.0485 C   0  0  0  0  0  0  0  0  0  0  0  0
    7.1917    7.7433   22.5147 C   0  0  0  0  0  0  0  0  0  0  0  0
 35 36  1  0  0  0
 36 37  1  0  0  0
 37 38  1  0  0  0
 38 39  1  0  0  0
 39 34  1  0  0  0
 34 24  1  0  0  0
 24 25  2  0  0  0
 25 26  1  0  0  0
 26 27  2  0  0  0
 27 28  1  0  0  0
 28 29  2  0  0  0
 29 30  1  0  0  0
 30 31  1  0  0  0
 30 32  1  0  0  0
 30 33  1  0  0  0
 27  1  1  0  0  0
  1  2  2  0  0  0
  1  3  1  0  0  0
  3  5  1  0  0  0
  5  6  2  0  0  0
  6  7  1  0  0  0
  7  8  2  0  0  0
  8  9  1  0  0  0
  8 10  1  0  0  0
 10 11  2  0  0  0
 10 12  1  0  0  0
 12 13  2  0  0  0
 13 14  1  0  0  0
 14 15  1  0  0  0
 15 16  2  0  0  0
 16 17  1  0  0  0
 17 18  2  0  0  0
 18 19  1  0  0  0
 18 20  1  0  0  0
 20 21  2  0  0  0
 39 40  1  0  0  0
 40 41  1  0  0  0
 41 36  1  0  0  0
 29 24  1  0  0  0
 11  5  1  0  0  0
 21 12  1  0  0  0
 20 14  1  0  0  0
  3  4  1  0  0  0
 19 22  1  0  0  0
 19 23  1  0  0  0
M  END
> <minimizedAffinity>
-8.90419

> <CNNscore>
0.1162899584

> <CNNaffinity>
5.8959155083

> <CNN_VS>
0.6856357455

> <CNNaffinity_variance>
0.3320712447

$$$$
[H]c1nc(N([H])[H])c2c([H])c(-c3c([H])c(N([H])C(=O)c4c([H])c([H])c(C([H])([H])N5C([H])([H])C([H])([H])N(C([H])([H])[H])C([H])([H])C5([H])[H])c(C(F)(F)F)c4[H])c([H])c([H])c3C([H])([H])[H])c([H])n2n1


 41 45  0  0  0  0  0  0  0  0999 V2000
    4.0022    3.7625   15.3261 C   0  0  0  0  0  0  0  0  0  0  0  0
    3.7829    2.5385   15.2811 O   0  0  0  0  0  0  0  0  0  0  0  0
    3.9206    4.6568   14.2522 N   0  0  0  0  0  0  0  0  0  0  0  0
    4.1421    5.7037   14.3971 H   0  0  0  0  0  0  0  0  0  0  0  0
    3.5514    4.2398   12.9456 C   0  0  0  0  0  0  0  0  0  0  0  0
    2.2900    3.8578   12.5890 C   0  0  0  0  0  0  0  0  0  0  0  0
    2.0581    3.4433   11.2868 C   0  0  0  0  0  0  0  0  0  0  0  0
    3.0842    3.4117   10.3446 C   0  0  0  0  0  0  0  0  0  0  0  0
    2.8265    2.9712    8.9460 C   0  0  0  0  0  0  0  0  0  0  0  0
    4.3601    3.7919   10.6806 C   0  0  0  0  0  0  0  0  0  0  0  0
    4.5695    4.1977   11.9704 C   0  0  0  0  0  0  0  0  0  0  0  0
    5.4461    3.7517    9.6936 C   0  0  0  0  0  0  0  0  0  0  0  0
    6.1709    2.6922    9.2464 C   0  0  0  0  0  0  0  0  0  0  0  0
    7.0517    3.1524    8.3452 N   0  0  0  0  0  0  0  0  0  0  0  0
    7.9940    2.5463    7.6057 N   0  0  0  0  0  0  0  0  0  0  0  0
    8.7828    3.2194    6.7452 C   0  0  0  0  0  0  0  0  0  0  0  0
    8.6687    4.5698    6.5735 N   0  0  0  0  0  0  0  0  0  0  0  0
    7.7322    5.1902    7.3046 C   0  0  0  0  0  0  0  0  0  0  0  0
    7.5747    6.5886    7.1637 N   0  0  0  0  0  0  0  0  0  0  0  0
    6.9287    4.4770    8.1868 C   0  0  0  0  0  0  0  0  0  0  0  0
    5.9181    4.8708    9.0322 C   0  0  0  0  0  0  0  0  0  0  0  0
    6.5957    6.9773    7.0378 H   0  0  0  0  0  0  0  0  0  0  0  0
    8.3535    7.2733    7.1737 H   0  0  0  0  0  0  0  0  0  0  0  0
    5.1191    5.1721   19.2342 C   0  0  0  0  0  0  0  0  0  0  0  0
    5.0572    6.0144   18.1550 C   0  0  0  0  0  0  0  0  0  0  0  0
    4.6964    5.5959   16.8753 C   0  0  0  0  0  0  0  0  0  0  0  0
    4.3828    4.2792   16.6560 C   0  0  0  0  0  0  0  0  0  0  0  0
    4.4447    3.4326   17.7377 C   0  0  0  0  0  0  0  0  0  0  0  0
    4.8007    3.8481   19.0004 C   0  0  0  0  0  0  0  0  0  0  0  0
    4.8307    2.8539   20.0943 C   0  0  0  0  0  0  0  0  0  0  0  0
    4.5342    1.5789   19.5906 F   0  0  0  0  0  0  0  0  0  0  0  0
    3.8238    3.0740   21.0400 F   0  0  0  0  0  0  0  0  0  0  0  0
    6.0723    2.7221   20.6830 F   0  0  0  0  0  0  0  0  0  0  0  0
    5.5300    5.6659   20.5502 C   0  0  0  0  0  0  0  0  0  0  0  0
    6.5996    9.3740   22.9048 C   0  0  0  0  0  0  0  0  0  0  0  0
    6.5642    8.2190   22.0520 N   0  0  0  0  0  0  0  0  0  0  0  0
    7.7237    8.1097   21.2118 C   0  0  0  0  0  0  0  0  0  0  0  0
    7.5010    7.0250   20.1452 C   0  0  0  0  0  0  0  0  0  0  0  0
    6.9041    5.8950   20.7738 N   0  0  0  0  0  0  0  0  0  0  0  0
    7.1958    5.9089   22.1840 C   0  0  0  0  0  0  0  0  0  0  0  0
    6.4685    7.0253   22.8640 C   0  0  0  0  0  0  0  0  0  0  0  0
 35 36  1  0  0  0
 36 37  1  0  0  0
 37 38  1  0  0  0
 38 39  1  0  0  0
 39 34  1  0  0  0
 34 24  1  0  0  0
 24 25  2  0  0  0
 25 26  1  0  0  0
 26 27  2  0  0  0
 27 28  1  0  0  0
 28 29  2  0  0  0
 29 30  1  0  0  0
 30 31  1  0  0  0
 30 32  1  0  0  0
 30 33  1  0  0  0
 27  1  1  0  0  0
  1  2  2  0  0  0
  1  3  1  0  0  0
  3  5  1  0  0  0
  5  6  2  0  0  0
  6  7  1  0  0  0
  7  8  2  0  0  0
  8  9  1  0  0  0
  8 10  1  0  0  0
 10 11  2  0  0  0
 10 12  1  0  0  0
 12 13  2  0  0  0
 13 14  1  0  0  0
 14 15  1  0  0  0
 15 16  2  0  0  0
 16 17  1  0  0  0
 17 18  2  0  0  0
 18 19  1  0  0  0
 18 20  1  0  0  0
 20 21  2  0  0  0
 39 40  1  0  0  0
 40 41  1  0  0  0
 41 36  1  0  0  0
 29 24  1  0  0  0
 11  5  1  0  0  0
 21 12  1  0  0  0
 20 14  1  0  0  0
  3  4  1  0  0  0
 19 22  1  0  0  0
 19 23  1  0  0  0
M  END
> <minimizedAffinity>
-7.83605

> <CNNscore>
0.1101247594

> <CNNaffinity>
6.0542488098

> <CNN_VS>
0.6667227149

> <CNNaffinity_variance>
0.3936662972

$$$$
[H]c1nc(N([H])[H])c2c([H])c(-c3c([H])c(N([H])C(=O)c4c([H])c([H])c(C([H])([H])N5C([H])([H])C([H])([H])N(C([H])([H])[H])C([H])([H])C5([H])[H])c(C(F)(F)F)c4[H])c([H])c([H])c3C([H])([H])[H])c([H])n2n1


 41 45  0  0  0  0  0  0  0  0999 V2000
    3.3731    3.4000   16.1117 C   0  0  0  0  0  0  0  0  0  0  0  0
    2.4616    4.0212   16.6876 O   0  0  0  0  0  0  0  0  0  0  0  0
    4.3757    2.6432   16.7294 N   0  0  0  0  0  0  0  0  0  0  0  0
    5.1296    2.1491   16.1347 H   0  0  0  0  0  0  0  0  0  0  0  0
    4.4506    2.4921   18.1397 C   0  0  0  0  0  0  0  0  0  0  0  0
    3.9988    1.3979   18.8199 C   0  0  0  0  0  0  0  0  0  0  0  0
    4.1015    1.3783   20.2021 C   0  0  0  0  0  0  0  0  0  0  0  0
    4.6548    2.4493   20.9012 C   0  0  0  0  0  0  0  0  0  0  0  0
    4.7676    2.4188   22.3854 C   0  0  0  0  0  0  0  0  0  0  0  0
    5.1160    3.5596   20.2380 C   0  0  0  0  0  0  0  0  0  0  0  0
    5.0059    3.5606   18.8741 C   0  0  0  0  0  0  0  0  0  0  0  0
    5.6913    4.6940   20.9709 C   0  0  0  0  0  0  0  0  0  0  0  0
    6.8545    4.7729   21.6699 C   0  0  0  0  0  0  0  0  0  0  0  0
    6.9492    6.0164   22.1642 N   0  0  0  0  0  0  0  0  0  0  0  0
    7.8797    6.6257   22.9163 N   0  0  0  0  0  0  0  0  0  0  0  0
    7.7675    7.9107   23.3059 C   0  0  0  0  0  0  0  0  0  0  0  0
    6.6913    8.6754   22.9553 N   0  0  0  0  0  0  0  0  0  0  0  0
    5.7532    8.0819   22.2042 C   0  0  0  0  0  0  0  0  0  0  0  0
    4.6185    8.8311   21.8152 N   0  0  0  0  0  0  0  0  0  0  0  0
    5.8880    6.7548   21.8129 C   0  0  0  0  0  0  0  0  0  0  0  0
    5.0838    5.9333   21.0585 C   0  0  0  0  0  0  0  0  0  0  0  0
    4.3156    8.7998   20.7991 H   0  0  0  0  0  0  0  0  0  0  0  0
    4.0515    9.4174   22.4557 H   0  0  0  0  0  0  0  0  0  0  0  0
    3.2499    3.6282   11.8176 C   0  0  0  0  0  0  0  0  0  0  0  0
    4.0989    4.4099   12.5565 C   0  0  0  0  0  0  0  0  0  0  0  0
    4.1700    4.3618   13.9477 C   0  0  0  0  0  0  0  0  0  0  0  0
    3.3598    3.4977   14.6384 C   0  0  0  0  0  0  0  0  0  0  0  0
    2.5070    2.7129   13.8985 C   0  0  0  0  0  0  0  0  0  0  0  0
    2.4388    2.7617   12.5249 C   0  0  0  0  0  0  0  0  0  0  0  0
    1.4881    1.8696   11.8278 C   0  0  0  0  0  0  0  0  0  0  0  0
    2.1801    1.0317   10.9410 F   0  0  0  0  0  0  0  0  0  0  0  0
    0.6115    2.5736   10.9956 F   0  0  0  0  0  0  0  0  0  0  0  0
    0.8176    1.0111   12.6758 F   0  0  0  0  0  0  0  0  0  0  0  0
    3.2022    3.7420   10.3583 C   0  0  0  0  0  0  0  0  0  0  0  0
    3.9408    5.3590    6.2016 C   0  0  0  0  0  0  0  0  0  0  0  0
    3.8504    4.5813    7.4055 N   0  0  0  0  0  0  0  0  0  0  0  0
    4.2132    3.2057    7.2099 C   0  0  0  0  0  0  0  0  0  0  0  0
    3.8364    2.3799    8.4509 C   0  0  0  0  0  0  0  0  0  0  0  0
    4.2198    3.1133    9.6099 N   0  0  0  0  0  0  0  0  0  0  0  0
    5.2590    4.0518    9.2734 C   0  0  0  0  0  0  0  0  0  0  0  0
    4.7217    5.1499    8.4111 C   0  0  0  0  0  0  0  0  0  0  0  0
 35 36  1  0  0  0
 36 37  1  0  0  0
 37 38  1  0  0  0
 38 39  1  0  0  0
 39 34  1  0  0  0
 34 24  1  0  0  0
 24 25  2  0  0  0
 25 26  1  0  0  0
 26 27  2  0  0  0
 27 28  1  0  0  0
 28 29  2  0  0  0
 29 30  1  0  0  0
 30 31  1  0  0  0
 30 32  1  0  0  0
 30 33  1  0  0  0
 27  1  1  0  0  0
  1  2  2  0  0  0
  1  3  1  0  0  0
  3  5  1  0  0  0
  5  6  2  0  0  0
  6  7  1  0  0  0
  7  8  2  0  0  0
  8  9  1  0  0  0
  8 10  1  0  0  0
 10 11  2  0  0  0
 10 12  1  0  0  0
 12 13  2  0  0  0
 13 14  1  0  0  0
 14 15  1  0  0  0
 15 16  2  0  0  0
 16 17  1  0  0  0
 17 18  2  0  0  0
 18 19  1  0  0  0
 18 20  1  0  0  0
 20 21  2  0  0  0
 39 40  1  0  0  0
 40 41  1  0  0  0
 41 36  1  0  0  0
 29 24  1  0  0  0
 11  5  1  0  0  0
 21 12  1  0  0  0
 20 14  1  0  0  0
  3  4  1  0  0  0
 19 22  1  0  0  0
 19 23  1  0  0  0
M  END
> <minimizedAffinity>
-8.74432

> <CNNscore>
0.1094122678

> <CNNaffinity>
6.0773162842

> <CNN_VS>
0.6649329662

> <CNNaffinity_variance>
0.3255894780

$$$$
[H]OC(=O)c1c([H])c([H])c(-c2c([H])c([H])c(N3C(=O)N(c4nc([H])nc(C([H])([H])[H])c4[H])C4(C3=O)C([H])([H])C([H])([H])N(C([H])([H])c3nc([H])c([H])c([H])c3C([H])([H])[H])C([H])([H])C4([H])[H])c([H])c2[H])c([H])c1[H]


 43 48  0  0  0  0  0  0  0  0999 V2000
   -0.2418    5.8000    8.9095 N   0  0  0  0  0  0  0  0  0  0  0  0
    0.7838    6.4490    9.6740 C   0  0  0  0  0  0  0  0  0  0  0  0
    0.5816    7.3845   10.4901 O   0  0  0  0  0  0  0  0  0  0  0  0
    2.0633    5.8650    9.3608 N   0  0  0  0  0  0  0  0  0  0  0  0
    1.7404    4.8509    8.3807 C   0  0  0  0  0  0  0  0  0  0  0  0
    2.5224    4.3950    7.5215 O   0  0  0  0  0  0  0  0  0  0  0  0
    0.3255    4.4897    8.6170 C   0  0  0  0  0  0  0  0  0  0  0  0
    0.2312    3.6383    9.8629 C   0  0  0  0  0  0  0  0  0  0  0  0
   -0.4635    2.3207    9.5578 C   0  0  0  0  0  0  0  0  0  0  0  0
    0.1790    1.6530    8.4405 N   0  0  0  0  0  0  0  0  0  0  0  0
    0.1989    2.4349    7.2565 C   0  0  0  0  0  0  0  0  0  0  0  0
   -0.3518    3.8115    7.4835 C   0  0  0  0  0  0  0  0  0  0  0  0
   -5.2085    6.1552    9.3184 C   0  0  0  0  0  0  0  0  0  0  0  0
   -3.8991    6.5485    8.7362 C   0  0  0  0  0  0  0  0  0  0  0  0
   -2.7001    5.9814    9.1089 C   0  0  0  0  0  0  0  0  0  0  0  0
   -1.4944    6.3539    8.5599 C   0  0  0  0  0  0  0  0  0  0  0  0
   -1.5160    7.3169    7.6204 N   0  0  0  0  0  0  0  0  0  0  0  0
   -2.6771    7.8904    7.2357 C   0  0  0  0  0  0  0  0  0  0  0  0
   -3.8474    7.5124    7.7842 N   0  0  0  0  0  0  0  0  0  0  0  0
    3.3411    6.1900    9.8869 C   0  0  0  0  0  0  0  0  0  0  0  0
    4.0552    7.2521    9.3395 C   0  0  0  0  0  0  0  0  0  0  0  0
    5.2964    7.5819    9.8208 C   0  0  0  0  0  0  0  0  0  0  0  0
    5.8665    6.8710   10.8565 C   0  0  0  0  0  0  0  0  0  0  0  0
    5.1902    5.8130   11.4244 C   0  0  0  0  0  0  0  0  0  0  0  0
    3.9346    5.4977   10.9205 C   0  0  0  0  0  0  0  0  0  0  0  0
    7.2010    7.2880   11.3090 C   0  0  0  0  0  0  0  0  0  0  0  0
    8.3431    6.6265   10.9089 C   0  0  0  0  0  0  0  0  0  0  0  0
    9.6139    7.0087   11.3296 C   0  0  0  0  0  0  0  0  0  0  0  0
    9.7633    8.0889   12.1806 C   0  0  0  0  0  0  0  0  0  0  0  0
    8.6175    8.7442   12.5755 C   0  0  0  0  0  0  0  0  0  0  0  0
    7.3532    8.3644   12.1575 C   0  0  0  0  0  0  0  0  0  0  0  0
   11.0697    8.5281   12.6501 C   0  0  0  0  0  0  0  0  0  0  0  0
   11.1637    9.0951   13.9092 O   0  0  0  0  0  0  0  0  0  0  0  0
   12.1156    8.4183   11.9691 O   0  0  0  0  0  0  0  0  0  0  0  0
   11.1400   10.1069   14.0039 H   0  0  0  0  0  0  0  0  0  0  0  0
   -0.4131    0.3542    8.3325 C   0  0  0  0  0  0  0  0  0  0  0  0
    0.4598   -0.7731    8.6271 C   0  0  0  0  0  0  0  0  0  0  0  0
    1.7600   -0.6180    8.8426 N   0  0  0  0  0  0  0  0  0  0  0  0
    2.5689   -1.6433    9.1184 C   0  0  0  0  0  0  0  0  0  0  0  0
    2.0665   -2.9125    9.1878 C   0  0  0  0  0  0  0  0  0  0  0  0
    0.7357   -3.1386    8.9755 C   0  0  0  0  0  0  0  0  0  0  0  0
   -0.0664   -2.0426    8.6920 C   0  0  0  0  0  0  0  0  0  0  0  0
   -1.5140   -2.2457    8.4549 C   0  0  0  0  0  0  0  0  0  0  0  0
 13 14  1  0  0  0
 14 15  2  0  0  0
 15 16  1  0  0  0
 16 17  2  0  0  0
 17 18  1  0  0  0
 18 19  2  0  0  0
 16  1  1  0  0  0
  1  2  1  0  0  0
  2  3  2  0  0  0
  2  4  1  0  0  0
  4  5  1  0  0  0
  5  6  2  0  0  0
  5  7  1  0  0  0
  7  8  1  0  0  0
  8  9  1  0  0  0
  9 10  1  0  0  0
 10 36  1  0  0  0
 36 37  1  0  0  0
 37 38  2  0  0  0
 38 39  1  0  0  0
 39 40  2  0  0  0
 40 41  1  0  0  0
 41 42  2  0  0  0
 42 43  1  0  0  0
 10 11  1  0  0  0
 11 12  1  0  0  0
  4 20  1  0  0  0
 20 21  2  0  0  0
 21 22  1  0  0  0
 22 23  2  0  0  0
 23 24  1  0  0  0
 24 25  2  0  0  0
 23 26  1  0  0  0
 26 27  2  0  0  0
 27 28  1  0  0  0
 28 29  2  0  0  0
 29 30  1  0  0  0
 30 31  2  0  0  0
 29 32  1  0  0  0
 32 33  1  0  0  0
 32 34  2  0  0  0
 19 14  1  0  0  0
  7  1  1  0  0  0
 12  7  1  0  0  0
 25 20  1  0  0  0
 31 26  1  0  0  0
 42 37  1  0  0  0
 33 35  1  0  0  0
M  END
> <minimizedAffinity>
-6.88695

> <CNNscore>
0.3111311197

> <CNNaffinity>
5.9063925743

> <CNN_VS>
1.8376625776

> <CNNaffinity_variance>
0.4287201762

$$$$
[H]OC(=O)c1c([H])c([H])c(-c2c([H])c([H])c(N3C(=O)N(c4nc([H])nc(C([H])([H])[H])c4[H])C4(C3=O)C([H])([H])C([H])([H])N(C([H])([H])c3nc([H])c([H])c([H])c3C([H])([H])[H])C([H])([H])C4([H])[H])c([H])c2[H])c([H])c1[H]


 43 48  0  0  0  0  0  0  0  0999 V2000
    2.1260    8.0426    7.5829 N   0  0  0  0  0  0  0  0  0  0  0  0
    1.7185    7.2095    8.6772 C   0  0  0  0  0  0  0  0  0  0  0  0
    0.5313    6.8637    8.9073 O   0  0  0  0  0  0  0  0  0  0  0  0
    2.8713    6.8385    9.4581 N   0  0  0  0  0  0  0  0  0  0  0  0
    3.9663    7.4920    8.7745 C   0  0  0  0  0  0  0  0  0  0  0  0
    5.0540    7.8197    9.2913 O   0  0  0  0  0  0  0  0  0  0  0  0
    3.5221    7.6787    7.3760 C   0  0  0  0  0  0  0  0  0  0  0  0
    3.5687    6.3489    6.6580 C   0  0  0  0  0  0  0  0  0  0  0  0
    4.4271    6.4474    5.4069 C   0  0  0  0  0  0  0  0  0  0  0  0
    5.7368    6.9843    5.7289 N   0  0  0  0  0  0  0  0  0  0  0  0
    5.6832    8.2644    6.3389 C   0  0  0  0  0  0  0  0  0  0  0  0
    4.2731    8.7010    6.6050 C   0  0  0  0  0  0  0  0  0  0  0  0
   -0.8834    9.4028    3.8341 C   0  0  0  0  0  0  0  0  0  0  0  0
   -0.1475    9.6627    5.0985 C   0  0  0  0  0  0  0  0  0  0  0  0
    0.6345    8.7209    5.7307 C   0  0  0  0  0  0  0  0  0  0  0  0
    1.3125    8.9758    6.9008 C   0  0  0  0  0  0  0  0  0  0  0  0
    1.1886   10.2069    7.4295 N   0  0  0  0  0  0  0  0  0  0  0  0
    0.4287   11.1500    6.8310 C   0  0  0  0  0  0  0  0  0  0  0  0
   -0.2274   10.8820    5.6860 N   0  0  0  0  0  0  0  0  0  0  0  0
    2.9339    6.0209   10.6168 C   0  0  0  0  0  0  0  0  0  0  0  0
    2.9602    4.6365   10.4754 C   0  0  0  0  0  0  0  0  0  0  0  0
    3.0100    3.8218   11.5776 C   0  0  0  0  0  0  0  0  0  0  0  0
    3.0349    4.3529   12.8506 C   0  0  0  0  0  0  0  0  0  0  0  0
    3.0103    5.7191   13.0311 C   0  0  0  0  0  0  0  0  0  0  0  0
    2.9601    6.5239   11.8999 C   0  0  0  0  0  0  0  0  0  0  0  0
    3.0843    3.4096   13.9763 C   0  0  0  0  0  0  0  0  0  0  0  0
    2.3820    2.2227   13.9604 C   0  0  0  0  0  0  0  0  0  0  0  0
    2.4179    1.3194   15.0191 C   0  0  0  0  0  0  0  0  0  0  0  0
    3.1785    1.5996   16.1399 C   0  0  0  0  0  0  0  0  0  0  0  0
    3.8769    2.7872   16.1477 C   0  0  0  0  0  0  0  0  0  0  0  0
    3.8416    3.6861   15.0951 C   0  0  0  0  0  0  0  0  0  0  0  0
    3.2488    0.6889   17.2737 C   0  0  0  0  0  0  0  0  0  0  0  0
    3.9250    1.0982   18.4099 O   0  0  0  0  0  0  0  0  0  0  0  0
    2.7264   -0.4499   17.2719 O   0  0  0  0  0  0  0  0  0  0  0  0
    4.8967    0.8283   18.5367 H   0  0  0  0  0  0  0  0  0  0  0  0
    6.5348    6.8790    4.5453 C   0  0  0  0  0  0  0  0  0  0  0  0
    7.6523    7.8066    4.4427 C   0  0  0  0  0  0  0  0  0  0  0  0
    8.7410    7.6813    5.1911 N   0  0  0  0  0  0  0  0  0  0  0  0
    9.7734    8.5225    5.1023 C   0  0  0  0  0  0  0  0  0  0  0  0
    9.7356    9.5619    4.2155 C   0  0  0  0  0  0  0  0  0  0  0  0
    8.6425    9.7454    3.4164 C   0  0  0  0  0  0  0  0  0  0  0  0
    7.5936    8.8462    3.5437 C   0  0  0  0  0  0  0  0  0  0  0  0
    6.3904    9.0112    2.6961 C   0  0  0  0  0  0  0  0  0  0  0  0
 13 14  1  0  0  0
 14 15  2  0  0  0
 15 16  1  0  0  0
 16 17  2  0  0  0
 17 18  1  0  0  0
 18 19  2  0  0  0
 16  1  1  0  0  0
  1  2  1  0  0  0
  2  3  2  0  0  0
  2  4  1  0  0  0
  4  5  1  0  0  0
  5  6  2  0  0  0
  5  7  1  0  0  0
  7  8  1  0  0  0
  8  9  1  0  0  0
  9 10  1  0  0  0
 10 36  1  0  0  0
 36 37  1  0  0  0
 37 38  2  0  0  0
 38 39  1  0  0  0
 39 40  2  0  0  0
 40 41  1  0  0  0
 41 42  2  0  0  0
 42 43  1  0  0  0
 10 11  1  0  0  0
 11 12  1  0  0  0
  4 20  1  0  0  0
 20 21  2  0  0  0
 21 22  1  0  0  0
 22 23  2  0  0  0
 23 24  1  0  0  0
 24 25  2  0  0  0
 23 26  1  0  0  0
 26 27  2  0  0  0
 27 28  1  0  0  0
 28 29  2  0  0  0
 29 30  1  0  0  0
 30 31  2  0  0  0
 29 32  1  0  0  0
 32 33  1  0  0  0
 32 34  2  0  0  0
 19 14  1  0  0  0
  7  1  1  0  0  0
 12  7  1  0  0  0
 25 20  1  0  0  0
 31 26  1  0  0  0
 42 37  1  0  0  0
 33 35  1  0  0  0
M  END
> <minimizedAffinity>
-9.36130

> <CNNscore>
0.2327097207

> <CNNaffinity>
5.6357011795

> <CNN_VS>
1.3114824295

> <CNNaffinity_variance>
0.2742736340

$$$$
[H]OC(=O)c1c([H])c([H])c(-c2c([H])c([H])c(N3C(=O)N(c4nc([H])nc(C([H])([H])[H])c4[H])C4(C3=O)C([H])([H])C([H])([H])N(C([H])([H])c3nc([H])c([H])c([H])c3C([H])([H])[H])C([H])([H])C4([H])[H])c([H])c2[H])c([H])c1[H]


 43 48  0  0  0  0  0  0  0  0999 V2000
    1.1817    2.7015    9.1426 N   0  0  0  0  0  0  0  0  0  0  0  0
    1.8957    2.2048   10.2833 C   0  0  0  0  0  0  0  0  0  0  0  0
    2.4938    1.0991   10.3249 O   0  0  0  0  0  0  0  0  0  0  0  0
    1.8182    3.1625   11.3571 N   0  0  0  0  0  0  0  0  0  0  0  0
    1.0276    4.2360   10.7951 C   0  0  0  0  0  0  0  0  0  0  0  0
    0.3470    5.0552   11.4457 O   0  0  0  0  0  0  0  0  0  0  0  0
    1.2005    4.1469    9.3288 C   0  0  0  0  0  0  0  0  0  0  0  0
    2.5738    4.6594    8.9582 C   0  0  0  0  0  0  0  0  0  0  0  0
    2.4678    5.7764    7.9320 C   0  0  0  0  0  0  0  0  0  0  0  0
    1.5634    6.8118    8.3979 N   0  0  0  0  0  0  0  0  0  0  0  0
    0.2573    6.3316    8.6756 C   0  0  0  0  0  0  0  0  0  0  0  0
    0.1631    4.8421    8.5262 C   0  0  0  0  0  0  0  0  0  0  0  0
   -2.3671   -0.2572    7.2419 C   0  0  0  0  0  0  0  0  0  0  0  0
   -1.0823    0.4848    7.1610 C   0  0  0  0  0  0  0  0  0  0  0  0
   -0.5727    1.2380    8.1960 C   0  0  0  0  0  0  0  0  0  0  0  0
    0.6200    1.9189    8.1082 C   0  0  0  0  0  0  0  0  0  0  0  0
    1.2978    1.8283    6.9493 N   0  0  0  0  0  0  0  0  0  0  0  0
    0.8219    1.0969    5.9180 C   0  0  0  0  0  0  0  0  0  0  0  0
   -0.3474    0.4372    6.0227 N   0  0  0  0  0  0  0  0  0  0  0  0
    2.3846    3.0882   12.6566 C   0  0  0  0  0  0  0  0  0  0  0  0
    1.9355    2.1134   13.5429 C   0  0  0  0  0  0  0  0  0  0  0  0
    2.4573    2.0249   14.8081 C   0  0  0  0  0  0  0  0  0  0  0  0
    3.4375    2.8978   15.2328 C   0  0  0  0  0  0  0  0  0  0  0  0
    3.9080    3.8763   14.3839 C   0  0  0  0  0  0  0  0  0  0  0  0
    3.3646    3.9463   13.1073 C   0  0  0  0  0  0  0  0  0  0  0  0
    3.9390    2.7361   16.6047 C   0  0  0  0  0  0  0  0  0  0  0  0
    3.7608    1.5642   17.3096 C   0  0  0  0  0  0  0  0  0  0  0  0
    4.2290    1.3962   18.6098 C   0  0  0  0  0  0  0  0  0  0  0  0
    4.9011    2.4278   19.2401 C   0  0  0  0  0  0  0  0  0  0  0  0
    5.0750    3.5950   18.5289 C   0  0  0  0  0  0  0  0  0  0  0  0
    4.6093    3.7628   17.2357 C   0  0  0  0  0  0  0  0  0  0  0  0
    5.4096    2.3029   20.5987 C   0  0  0  0  0  0  0  0  0  0  0  0
    5.4101    1.0526   21.1924 O   0  0  0  0  0  0  0  0  0  0  0  0
    5.8476    3.2735   21.2589 O   0  0  0  0  0  0  0  0  0  0  0  0
    4.6359    0.7859   21.7946 H   0  0  0  0  0  0  0  0  0  0  0  0
    1.6556    7.8970    7.4690 C   0  0  0  0  0  0  0  0  0  0  0  0
    2.9884    8.4406    7.2509 C   0  0  0  0  0  0  0  0  0  0  0  0
    3.8167    8.6958    8.2557 N   0  0  0  0  0  0  0  0  0  0  0  0
    5.0425    9.1895    8.0675 C   0  0  0  0  0  0  0  0  0  0  0  0
    5.4882    9.4521    6.8024 C   0  0  0  0  0  0  0  0  0  0  0  0
    4.6828    9.2112    5.7251 C   0  0  0  0  0  0  0  0  0  0  0  0
    3.4172    8.6980    5.9693 C   0  0  0  0  0  0  0  0  0  0  0  0
    2.5136    8.4238    4.8284 C   0  0  0  0  0  0  0  0  0  0  0  0
 13 14  1  0  0  0
 14 15  2  0  0  0
 15 16  1  0  0  0
 16 17  2  0  0  0
 17 18  1  0  0  0
 18 19  2  0  0  0
 16  1  1  0  0  0
  1  2  1  0  0  0
  2  3  2  0  0  0
  2  4  1  0  0  0
  4  5  1  0  0  0
  5  6  2  0  0  0
  5  7  1  0  0  0
  7  8  1  0  0  0
  8  9  1  0  0  0
  9 10  1  0  0  0
 10 36  1  0  0  0
 36 37  1  0  0  0
 37 38  2  0  0  0
 38 39  1  0  0  0
 39 40  2  0  0  0
 40 41  1  0  0  0
 41 42  2  0  0  0
 42 43  1  0  0  0
 10 11  1  0  0  0
 11 12  1  0  0  0
  4 20  1  0  0  0
 20 21  2  0  0  0
 21 22  1  0  0  0
 22 23  2  0  0  0
 23 24  1  0  0  0
 24 25  2  0  0  0
 23 26  1  0  0  0
 26 27  2  0  0  0
 27 28  1  0  0  0
 28 29  2  0  0  0
 29 30  1  0  0  0
 30 31  2  0  0  0
 29 32  1  0  0  0
 32 33  1  0  0  0
 32 34  2  0  0  0
 19 14  1  0  0  0
  7  1  1  0  0  0
 12  7  1  0  0  0
 25 20  1  0  0  0
 31 26  1  0  0  0
 42 37  1  0  0  0
 33 35  1  0  0  0
M  END
> <minimizedAffinity>
-8.04223

> <CNNscore>
0.2241818905

> <CNNaffinity>
6.3398199081

> <CNN_VS>
1.4212727547

> <CNNaffinity_variance>
0.2448565960

$$$$
[H]OC(=O)c1c([H])c([H])c(-c2c([H])c([H])c(N3C(=O)N(c4nc([H])nc(C([H])([H])[H])c4[H])C4(C3=O)C([H])([H])C([H])([H])N(C([H])([H])c3nc([H])c([H])c([H])c3C([H])([H])[H])C([H])([H])C4([H])[H])c([H])c2[H])c([H])c1[H]


 43 48  0  0  0  0  0  0  0  0999 V2000
    2.6412    5.4846    9.6235 N   0  0  0  0  0  0  0  0  0  0  0  0
    2.2336    5.0756   10.9366 C   0  0  0  0  0  0  0  0  0  0  0  0
    1.1434    5.3942   11.4769 O   0  0  0  0  0  0  0  0  0  0  0  0
    3.2590    4.2536   11.5274 N   0  0  0  0  0  0  0  0  0  0  0  0
    4.2814    4.2029   10.5048 C   0  0  0  0  0  0  0  0  0  0  0  0
    5.4953    3.9895   10.7004 O   0  0  0  0  0  0  0  0  0  0  0  0
    3.5891    4.4530    9.2217 C   0  0  0  0  0  0  0  0  0  0  0  0
    2.8127    3.2171    8.8268 C   0  0  0  0  0  0  0  0  0  0  0  0
    3.2184    2.7533    7.4367 C   0  0  0  0  0  0  0  0  0  0  0  0
    4.6585    2.5904    7.3543 N   0  0  0  0  0  0  0  0  0  0  0  0
    5.3751    3.7767    7.6589 C   0  0  0  0  0  0  0  0  0  0  0  0
    4.4656    4.8835    8.1037 C   0  0  0  0  0  0  0  0  0  0  0  0
   -0.4293    7.8293    6.4557 C   0  0  0  0  0  0  0  0  0  0  0  0
    0.7153    7.7920    7.4025 C   0  0  0  0  0  0  0  0  0  0  0  0
    1.1233    6.6508    8.0578 C   0  0  0  0  0  0  0  0  0  0  0  0
    2.1867    6.6299    8.9310 C   0  0  0  0  0  0  0  0  0  0  0  0
    2.8389    7.7888    9.1360 N   0  0  0  0  0  0  0  0  0  0  0  0
    2.4607    8.9230    8.5070 C   0  0  0  0  0  0  0  0  0  0  0  0
    1.4175    8.9238    7.6555 N   0  0  0  0  0  0  0  0  0  0  0  0
    3.2725    3.6289   12.8019 C   0  0  0  0  0  0  0  0  0  0  0  0
    3.8882    4.2724   13.8716 C   0  0  0  0  0  0  0  0  0  0  0  0
    3.9255    3.6877   15.1117 C   0  0  0  0  0  0  0  0  0  0  0  0
    3.3555    2.4504   15.3290 C   0  0  0  0  0  0  0  0  0  0  0  0
    2.7366    1.7822   14.2945 C   0  0  0  0  0  0  0  0  0  0  0  0
    2.7111    2.3943   13.0477 C   0  0  0  0  0  0  0  0  0  0  0  0
    3.4434    1.8940   16.6863 C   0  0  0  0  0  0  0  0  0  0  0  0
    2.7385    0.7680   17.0567 C   0  0  0  0  0  0  0  0  0  0  0  0
    2.8106    0.2296   18.3385 C   0  0  0  0  0  0  0  0  0  0  0  0
    3.6118    0.8278   19.2942 C   0  0  0  0  0  0  0  0  0  0  0  0
    4.3126    1.9522   18.9161 C   0  0  0  0  0  0  0  0  0  0  0  0
    4.2412    2.4882   17.6414 C   0  0  0  0  0  0  0  0  0  0  0  0
    3.7210    0.3048   20.6486 C   0  0  0  0  0  0  0  0  0  0  0  0
    2.5705    0.1958   21.4103 O   0  0  0  0  0  0  0  0  0  0  0  0
    4.8075   -0.0522   21.1602 O   0  0  0  0  0  0  0  0  0  0  0  0
    2.3271    0.9420   22.0562 H   0  0  0  0  0  0  0  0  0  0  0  0
    4.9396    1.9878    6.0867 C   0  0  0  0  0  0  0  0  0  0  0  0
    6.0731    2.5356    5.3554 C   0  0  0  0  0  0  0  0  0  0  0  0
    7.3236    2.1926    5.6372 N   0  0  0  0  0  0  0  0  0  0  0  0
    8.3702    2.6844    4.9705 C   0  0  0  0  0  0  0  0  0  0  0  0
    8.1764    3.5773    3.9540 C   0  0  0  0  0  0  0  0  0  0  0  0
    6.9125    3.9709    3.6152 C   0  0  0  0  0  0  0  0  0  0  0  0
    5.8558    3.4333    4.3359 C   0  0  0  0  0  0  0  0  0  0  0  0
    4.4705    3.8352    4.0000 C   0  0  0  0  0  0  0  0  0  0  0  0
 13 14  1  0  0  0
 14 15  2  0  0  0
 15 16  1  0  0  0
 16 17  2  0  0  0
 17 18  1  0  0  0
 18 19  2  0  0  0
 16  1  1  0  0  0
  1  2  1  0  0  0
  2  3  2  0  0  0
  2  4  1  0  0  0
  4  5  1  0  0  0
  5  6  2  0  0  0
  5  7  1  0  0  0
  7  8  1  0  0  0
  8  9  1  0  0  0
  9 10  1  0  0  0
 10 36  1  0  0  0
 36 37  1  0  0  0
 37 38  2  0  0  0
 38 39  1  0  0  0
 39 40  2  0  0  0
 40 41  1  0  0  0
 41 42  2  0  0  0
 42 43  1  0  0  0
 10 11  1  0  0  0
 11 12  1  0  0  0
  4 20  1  0  0  0
 20 21  2  0  0  0
 21 22  1  0  0  0
 22 23  2  0  0  0
 23 24  1  0  0  0
 24 25  2  0  0  0
 23 26  1  0  0  0
 26 27  2  0  0  0
 27 28  1  0  0  0
 28 29  2  0  0  0
 29 30  1  0  0  0
 30 31  2  0  0  0
 29 32  1  0  0  0
 32 33  1  0  0  0
 32 34  2  0  0  0
 19 14  1  0  0  0
  7  1  1  0  0  0
 12  7  1  0  0  0
 25 20  1  0  0  0
 31 26  1  0  0  0
 42 37  1  0  0  0
 33 35  1  0  0  0
M  END
> <minimizedAffinity>
-7.71066

> <CNNscore>
0.1912511140

> <CNNaffinity>
6.3358144760

> <CNN_VS>
1.2117315531

> <CNNaffinity_variance>
0.4314841330

$$$$
[H]OC(=O)c1c([H])c([H])c(-c2c([H])c([H])c(N3C(=O)N(c4nc([H])nc(C([H])([H])[H])c4[H])C4(C3=O)C([H])([H])C([H])([H])N(C([H])([H])c3nc([H])c([H])c([H])c3C([H])([H])[H])C([H])([H])C4([H])[H])c([H])c2[H])c([H])c1[H]


 43 48  0  0  0  0  0  0  0  0999 V2000
    2.2839    3.2243    9.5520 N   0  0  0  0  0  0  0  0  0  0  0  0
    2.7059    2.5263   10.7321 C   0  0  0  0  0  0  0  0  0  0  0  0
    3.0780    1.3251   10.7561 O   0  0  0  0  0  0  0  0  0  0  0  0
    2.6354    3.4101   11.8680 N   0  0  0  0  0  0  0  0  0  0  0  0
    2.1530    4.6506   11.3007 C   0  0  0  0  0  0  0  0  0  0  0  0
    1.5390    5.5432   11.9204 O   0  0  0  0  0  0  0  0  0  0  0  0
    2.5364    4.6235    9.8723 C   0  0  0  0  0  0  0  0  0  0  0  0
    4.0212    4.8818    9.7513 C   0  0  0  0  0  0  0  0  0  0  0  0
    4.2844    6.0615    8.8287 C   0  0  0  0  0  0  0  0  0  0  0  0
    3.5219    7.2210    9.2544 N   0  0  0  0  0  0  0  0  0  0  0  0
    2.1229    6.9872    9.2965 C   0  0  0  0  0  0  0  0  0  0  0  0
    1.7835    5.5570    8.9975 C   0  0  0  0  0  0  0  0  0  0  0  0
    2.6763    1.5918    4.8465 C   0  0  0  0  0  0  0  0  0  0  0  0
    1.9197    1.8344    6.1021 C   0  0  0  0  0  0  0  0  0  0  0  0
    2.4728    2.4130    7.2235 C   0  0  0  0  0  0  0  0  0  0  0  0
    1.7597    2.6337    8.3797 C   0  0  0  0  0  0  0  0  0  0  0  0
    0.4677    2.2581    8.3884 N   0  0  0  0  0  0  0  0  0  0  0  0
   -0.1007    1.6887    7.3032 C   0  0  0  0  0  0  0  0  0  0  0  0
    0.6132    1.4809    6.1804 N   0  0  0  0  0  0  0  0  0  0  0  0
    2.9661    3.1442   13.2226 C   0  0  0  0  0  0  0  0  0  0  0  0
    3.7728    4.0406   13.9175 C   0  0  0  0  0  0  0  0  0  0  0  0
    4.1169    3.8039   15.2239 C   0  0  0  0  0  0  0  0  0  0  0  0
    3.6733    2.6742   15.8798 C   0  0  0  0  0  0  0  0  0  0  0  0
    2.8727    1.7633   15.2250 C   0  0  0  0  0  0  0  0  0  0  0  0
    2.5372    2.0245   13.9025 C   0  0  0  0  0  0  0  0  0  0  0  0
    4.0916    2.4953   17.2772 C   0  0  0  0  0  0  0  0  0  0  0  0
    3.8201    1.3364   17.9737 C   0  0  0  0  0  0  0  0  0  0  0  0
    4.2088    1.1522   19.2977 C   0  0  0  0  0  0  0  0  0  0  0  0
    4.8937    2.1539   19.9616 C   0  0  0  0  0  0  0  0  0  0  0  0
    5.1609    3.3084   19.2586 C   0  0  0  0  0  0  0  0  0  0  0  0
    4.7745    3.4921   17.9417 C   0  0  0  0  0  0  0  0  0  0  0  0
    5.3214    2.0113   21.3460 C   0  0  0  0  0  0  0  0  0  0  0  0
    4.3776    1.6650   22.2975 O   0  0  0  0  0  0  0  0  0  0  0  0
    6.5042    2.1871   21.7199 O   0  0  0  0  0  0  0  0  0  0  0  0
    3.9274    2.3953   22.8425 H   0  0  0  0  0  0  0  0  0  0  0  0
    3.9563    8.3247    8.4530 C   0  0  0  0  0  0  0  0  0  0  0  0
    2.9380    8.9521    7.6229 C   0  0  0  0  0  0  0  0  0  0  0  0
    2.1069    9.8688    8.1023 N   0  0  0  0  0  0  0  0  0  0  0  0
    1.1729   10.4543    7.3496 C   0  0  0  0  0  0  0  0  0  0  0  0
    1.0447   10.1164    6.0314 C   0  0  0  0  0  0  0  0  0  0  0  0
    1.8703    9.1789    5.4778 C   0  0  0  0  0  0  0  0  0  0  0  0
    2.8259    8.5973    6.2985 C   0  0  0  0  0  0  0  0  0  0  0  0
    3.7395    7.5762    5.7365 C   0  0  0  0  0  0  0  0  0  0  0  0
 13 14  1  0  0  0
 14 15  2  0  0  0
 15 16  1  0  0  0
 16 17  2  0  0  0
 17 18  1  0  0  0
 18 19  2  0  0  0
 16  1  1  0  0  0
  1  2  1  0  0  0
  2  3  2  0  0  0
  2  4  1  0  0  0
  4  5  1  0  0  0
  5  6  2  0  0  0
  5  7  1  0  0  0
  7  8  1  0  0  0
  8  9  1  0  0  0
  9 10  1  0  0  0
 10 36  1  0  0  0
 36 37  1  0  0  0
 37 38  2  0  0  0
 38 39  1  0  0  0
 39 40  2  0  0  0
 40 41  1  0  0  0
 41 42  2  0  0  0
 42 43  1  0  0  0
 10 11  1  0  0  0
 11 12  1  0  0  0
  4 20  1  0  0  0
 20 21  2  0  0  0
 21 22  1  0  0  0
 22 23  2  0  0  0
 23 24  1  0  0  0
 24 25  2  0  0  0
 23 26  1  0  0  0
 26 27  2  0  0  0
 27 28  1  0  0  0
 28 29  2  0  0  0
 29 30  1  0  0  0
 30 31  2  0  0  0
 29 32  1  0  0  0
 32 33  1  0  0  0
 32 34  2  0  0  0
 19 14  1  0  0  0
  7  1  1  0  0  0
 12  7  1  0  0  0
 25 20  1  0  0  0
 31 26  1  0  0  0
 42 37  1  0  0  0
 33 35  1  0  0  0
M  END
> <minimizedAffinity>
-8.30603

> <CNNscore>
0.1902184337

> <CNNaffinity>
6.2502107620

> <CNN_VS>
1.1889053583

> <CNNaffinity_variance>
0.1028150767

$$$$
[H]OC(=O)c1c([H])c([H])c(-c2c([H])c([H])c(N3C(=O)N(c4nc([H])nc(C([H])([H])[H])c4[H])C4(C3=O)C([H])([H])C([H])([H])N(C([H])([H])c3nc([H])c([H])c([H])c3C([H])([H])[H])C([H])([H])C4([H])[H])c([H])c2[H])c([H])c1[H]


 43 48  0  0  0  0  0  0  0  0999 V2000
   -0.0136    2.3497    9.3843 N   0  0  0  0  0  0  0  0  0  0  0  0
    0.8039    1.9983   10.5095 C   0  0  0  0  0  0  0  0  0  0  0  0
    1.5151    0.9633   10.5793 O   0  0  0  0  0  0  0  0  0  0  0  0
    0.6803    3.0071   11.5310 N   0  0  0  0  0  0  0  0  0  0  0  0
   -0.2445    3.9590   10.9548 C   0  0  0  0  0  0  0  0  0  0  0  0
   -0.9737    4.7434   11.5956 O   0  0  0  0  0  0  0  0  0  0  0  0
   -0.1362    3.7982    9.4883 C   0  0  0  0  0  0  0  0  0  0  0  0
    1.1563    4.4232    9.0141 C   0  0  0  0  0  0  0  0  0  0  0  0
    0.8839    5.4590    7.9347 C   0  0  0  0  0  0  0  0  0  0  0  0
   -0.0992    6.4243    8.3917 N   0  0  0  0  0  0  0  0  0  0  0  0
   -1.3329    5.8325    8.7679 C   0  0  0  0  0  0  0  0  0  0  0  0
   -1.2787    4.3347    8.7072 C   0  0  0  0  0  0  0  0  0  0  0  0
   -0.0323    0.1467    4.9002 C   0  0  0  0  0  0  0  0  0  0  0  0
   -0.5755    0.3694    6.2652 C   0  0  0  0  0  0  0  0  0  0  0  0
   -0.0268    1.2548    7.1670 C   0  0  0  0  0  0  0  0  0  0  0  0
   -0.5413    1.4527    8.4279 C   0  0  0  0  0  0  0  0  0  0  0  0
   -1.6283    0.7369    8.7695 N   0  0  0  0  0  0  0  0  0  0  0  0
   -2.1873   -0.1383    7.9054 C   0  0  0  0  0  0  0  0  0  0  0  0
   -1.6696   -0.3183    6.6754 N   0  0  0  0  0  0  0  0  0  0  0  0
    1.3151    3.0700   12.7991 C   0  0  0  0  0  0  0  0  0  0  0  0
    1.8477    4.2790   13.2372 C   0  0  0  0  0  0  0  0  0  0  0  0
    2.4758    4.3666   14.4533 C   0  0  0  0  0  0  0  0  0  0  0  0
    2.5951    3.2614   15.2702 C   0  0  0  0  0  0  0  0  0  0  0  0
    2.0803    2.0469   14.8711 C   0  0  0  0  0  0  0  0  0  0  0  0
    1.4484    1.9826   13.6356 C   0  0  0  0  0  0  0  0  0  0  0  0
    3.2858    3.4413   16.5548 C   0  0  0  0  0  0  0  0  0  0  0  0
    2.9924    4.4942   17.3959 C   0  0  0  0  0  0  0  0  0  0  0  0
    3.6384    4.6786   18.6152 C   0  0  0  0  0  0  0  0  0  0  0  0
    4.6146    3.7865   19.0209 C   0  0  0  0  0  0  0  0  0  0  0  0
    4.9016    2.7376   18.1750 C   0  0  0  0  0  0  0  0  0  0  0  0
    4.2595    2.5537   16.9621 C   0  0  0  0  0  0  0  0  0  0  0  0
    5.3200    3.9353   20.2858 C   0  0  0  0  0  0  0  0  0  0  0  0
    5.7345    5.1996   20.6673 O   0  0  0  0  0  0  0  0  0  0  0  0
    5.5713    2.9733   21.0481 O   0  0  0  0  0  0  0  0  0  0  0  0
    6.6856    5.4953   20.4641 H   0  0  0  0  0  0  0  0  0  0  0  0
   -0.1666    7.4544    7.4002 C   0  0  0  0  0  0  0  0  0  0  0  0
    1.0691    8.1823    7.1491 C   0  0  0  0  0  0  0  0  0  0  0  0
    1.7146    8.8255    8.1138 N   0  0  0  0  0  0  0  0  0  0  0  0
    2.8505    9.4918    7.8964 C   0  0  0  0  0  0  0  0  0  0  0  0
    3.3927    9.5303    6.6424 C   0  0  0  0  0  0  0  0  0  0  0  0
    2.7759    8.8880    5.6059 C   0  0  0  0  0  0  0  0  0  0  0  0
    1.5976    8.2085    5.8792 C   0  0  0  0  0  0  0  0  0  0  0  0
    0.8981    7.5003    4.7827 C   0  0  0  0  0  0  0  0  0  0  0  0
 13 14  1  0  0  0
 14 15  2  0  0  0
 15 16  1  0  0  0
 16 17  2  0  0  0
 17 18  1  0  0  0
 18 19  2  0  0  0
 16  1  1  0  0  0
  1  2  1  0  0  0
  2  3  2  0  0  0
  2  4  1  0  0  0
  4  5  1  0  0  0
  5  6  2  0  0  0
  5  7  1  0  0  0
  7  8  1  0  0  0
  8  9  1  0  0  0
  9 10  1  0  0  0
 10 36  1  0  0  0
 36 37  1  0  0  0
 37 38  2  0  0  0
 38 39  1  0  0  0
 39 40  2  0  0  0
 40 41  1  0  0  0
 41 42  2  0  0  0
 42 43  1  0  0  0
 10 11  1  0  0  0
 11 12  1  0  0  0
  4 20  1  0  0  0
 20 21  2  0  0  0
 21 22  1  0  0  0
 22 23  2  0  0  0
 23 24  1  0  0  0
 24 25  2  0  0  0
 23 26  1  0  0  0
 26 27  2  0  0  0
 27 28  1  0  0  0
 28 29  2  0  0  0
 29 30  1  0  0  0
 30 31  2  0  0  0
 29 32  1  0  0  0
 32 33  1  0  0  0
 32 34  2  0  0  0
 19 14  1  0  0  0
  7  1  1  0  0  0
 12  7  1  0  0  0
 25 20  1  0  0  0
 31 26  1  0  0  0
 42 37  1  0  0  0
 33 35  1  0  0  0
M  END
> <minimizedAffinity>
-7.26891

> <CNNscore>
0.1715626866

> <CNNaffinity>
6.3588862419

> <CNN_VS>
1.0909476280

> <CNNaffinity_variance>
0.3241454661

$$$$
[H]OC(=O)c1c([H])c([H])c(-c2c([H])c([H])c(N3C(=O)N(c4nc([H])nc(C([H])([H])[H])c4[H])C4(C3=O)C([H])([H])C([H])([H])N(C([H])([H])c3nc([H])c([H])c([H])c3C([H])([H])[H])C([H])([H])C4([H])[H])c([H])c2[H])c([H])c1[H]


 43 48  0  0  0  0  0  0  0  0999 V2000
    2.0163    3.1979    9.8467 N   0  0  0  0  0  0  0  0  0  0  0  0
    2.6048    2.5645   10.9914 C   0  0  0  0  0  0  0  0  0  0  0  0
    3.2100    1.4622   10.9647 O   0  0  0  0  0  0  0  0  0  0  0  0
    2.3936    3.3825   12.1587 N   0  0  0  0  0  0  0  0  0  0  0  0
    1.6561    4.5170   11.6466 C   0  0  0  0  0  0  0  0  0  0  0  0
    0.8952    5.2496   12.3114 O   0  0  0  0  0  0  0  0  0  0  0  0
    1.9937    4.6093   10.2094 C   0  0  0  0  0  0  0  0  0  0  0  0
    3.3926    5.1638   10.0621 C   0  0  0  0  0  0  0  0  0  0  0  0
    3.3866    6.3988    9.1751 C   0  0  0  0  0  0  0  0  0  0  0  0
    2.4211    7.3687    9.6589 N   0  0  0  0  0  0  0  0  0  0  0  0
    1.0990    6.8577    9.7262 C   0  0  0  0  0  0  0  0  0  0  0  0
    1.0432    5.3979    9.3858 C   0  0  0  0  0  0  0  0  0  0  0  0
   -1.2804    0.5445    7.1912 C   0  0  0  0  0  0  0  0  0  0  0  0
    0.0084    1.2651    7.3570 C   0  0  0  0  0  0  0  0  0  0  0  0
    0.3875    1.8861    8.5270 C   0  0  0  0  0  0  0  0  0  0  0  0
    1.5854    2.5487    8.6674 C   0  0  0  0  0  0  0  0  0  0  0  0
    2.4036    2.5762    7.5995 N   0  0  0  0  0  0  0  0  0  0  0  0
    2.0577    1.9757    6.4398 C   0  0  0  0  0  0  0  0  0  0  0  0
    0.8809    1.3318    6.3215 N   0  0  0  0  0  0  0  0  0  0  0  0
    2.8116    3.1487   13.4949 C   0  0  0  0  0  0  0  0  0  0  0  0
    3.6173    4.0875   14.1329 C   0  0  0  0  0  0  0  0  0  0  0  0
    4.0448    3.8829   15.4199 C   0  0  0  0  0  0  0  0  0  0  0  0
    3.6879    2.7443   16.1123 C   0  0  0  0  0  0  0  0  0  0  0  0
    2.8912    1.7919   15.5143 C   0  0  0  0  0  0  0  0  0  0  0  0
    2.4704    2.0211   14.2104 C   0  0  0  0  0  0  0  0  0  0  0  0
    4.1920    2.6018   17.4853 C   0  0  0  0  0  0  0  0  0  0  0  0
    4.7629    3.6588   18.1627 C   0  0  0  0  0  0  0  0  0  0  0  0
    5.2457    3.5393   19.4629 C   0  0  0  0  0  0  0  0  0  0  0  0
    5.1615    2.3260   20.1216 C   0  0  0  0  0  0  0  0  0  0  0  0
    4.5899    1.2752   19.4379 C   0  0  0  0  0  0  0  0  0  0  0  0
    4.1096    1.3934   18.1446 C   0  0  0  0  0  0  0  0  0  0  0  0
    5.6524    2.1487   21.4809 C   0  0  0  0  0  0  0  0  0  0  0  0
    6.8128    1.4197   21.6752 O   0  0  0  0  0  0  0  0  0  0  0  0
    5.0749    2.6242   22.4859 O   0  0  0  0  0  0  0  0  0  0  0  0
    6.7488    0.4320   21.9064 H   0  0  0  0  0  0  0  0  0  0  0  0
    2.6016    8.5601    8.8863 C   0  0  0  0  0  0  0  0  0  0  0  0
    2.7565    8.3741    7.4507 C   0  0  0  0  0  0  0  0  0  0  0  0
    1.8594    7.7175    6.7260 N   0  0  0  0  0  0  0  0  0  0  0  0
    1.9883    7.5450    5.4087 C   0  0  0  0  0  0  0  0  0  0  0  0
    3.0756    8.0532    4.7547 C   0  0  0  0  0  0  0  0  0  0  0  0
    4.0351    8.7392    5.4445 C   0  0  0  0  0  0  0  0  0  0  0  0
    3.8587    8.8935    6.8120 C   0  0  0  0  0  0  0  0  0  0  0  0
    4.8767    9.6302    7.5957 C   0  0  0  0  0  0  0  0  0  0  0  0
 13 14  1  0  0  0
 14 15  2  0  0  0
 15 16  1  0  0  0
 16 17  2  0  0  0
 17 18  1  0  0  0
 18 19  2  0  0  0
 16  1  1  0  0  0
  1  2  1  0  0  0
  2  3  2  0  0  0
  2  4  1  0  0  0
  4  5  1  0  0  0
  5  6  2  0  0  0
  5  7  1  0  0  0
  7  8  1  0  0  0
  8  9  1  0  0  0
  9 10  1  0  0  0
 10 36  1  0  0  0
 36 37  1  0  0  0
 37 38  2  0  0  0
 38 39  1  0  0  0
 39 40  2  0  0  0
 40 41  1  0  0  0
 41 42  2  0  0  0
 42 43  1  0  0  0
 10 11  1  0  0  0
 11 12  1  0  0  0
  4 20  1  0  0  0
 20 21  2  0  0  0
 21 22  1  0  0  0
 22 23  2  0  0  0
 23 24  1  0  0  0
 24 25  2  0  0  0
 23 26  1  0  0  0
 26 27  2  0  0  0
 27 28  1  0  0  0
 28 29  2  0  0  0
 29 30  1  0  0  0
 30 31  2  0  0  0
 29 32  1  0  0  0
 32 33  1  0  0  0
 32 34  2  0  0  0
 19 14  1  0  0  0
  7  1  1  0  0  0
 12  7  1  0  0  0
 25 20  1  0  0  0
 31 26  1  0  0  0
 42 37  1  0  0  0
 33 35  1  0  0  0
M  END
> <minimizedAffinity>
-8.34962

> <CNNscore>
0.1684269309

> <CNNaffinity>
6.2579030991

> <CNN_VS>
1.0539994240

> <CNNaffinity_variance>
0.1244991049

$$$$
[H]OC(=O)c1c([H])c([H])c(-c2c([H])c([H])c(N3C(=O)N(c4nc([H])nc(C([H])([H])[H])c4[H])C4(C3=O)C([H])([H])C([H])([H])N(C([H])([H])c3nc([H])c([H])c([H])c3C([H])([H])[H])C([H])([H])C4([H])[H])c([H])c2[H])c([H])c1[H]


 43 48  0  0  0  0  0  0  0  0999 V2000
    2.7558    5.0026   10.0456 N   0  0  0  0  0  0  0  0  0  0  0  0
    2.2262    3.9091    9.2831 C   0  0  0  0  0  0  0  0  0  0  0  0
    2.6613    3.5449    8.1605 O   0  0  0  0  0  0  0  0  0  0  0  0
    1.1320    3.3047    9.9998 N   0  0  0  0  0  0  0  0  0  0  0  0
    1.0452    4.0929   11.2100 C   0  0  0  0  0  0  0  0  0  0  0  0
    0.0243    4.2345   11.9137 O   0  0  0  0  0  0  0  0  0  0  0  0
    2.3900    4.6732   11.4173 C   0  0  0  0  0  0  0  0  0  0  0  0
    3.3250    3.5950   11.9164 C   0  0  0  0  0  0  0  0  0  0  0  0
    3.9732    4.0147   13.2263 C   0  0  0  0  0  0  0  0  0  0  0  0
    2.9626    4.4054   14.1923 N   0  0  0  0  0  0  0  0  0  0  0  0
    2.1356    5.4662   13.7402 C   0  0  0  0  0  0  0  0  0  0  0  0
    2.4387    5.8492   12.3220 C   0  0  0  0  0  0  0  0  0  0  0  0
    3.0120    9.4199    7.7255 C   0  0  0  0  0  0  0  0  0  0  0  0
    3.6205    8.2487    8.4082 C   0  0  0  0  0  0  0  0  0  0  0  0
    2.8885    7.1898    8.8993 C   0  0  0  0  0  0  0  0  0  0  0  0
    3.4653    6.1101    9.5281 C   0  0  0  0  0  0  0  0  0  0  0  0
    4.8048    6.1143    9.6558 N   0  0  0  0  0  0  0  0  0  0  0  0
    5.5475    7.1393    9.1836 C   0  0  0  0  0  0  0  0  0  0  0  0
    4.9650    8.1874    8.5708 N   0  0  0  0  0  0  0  0  0  0  0  0
    0.3292    2.1956    9.6253 C   0  0  0  0  0  0  0  0  0  0  0  0
    0.5996    0.9424   10.1674 C   0  0  0  0  0  0  0  0  0  0  0  0
   -0.1529   -0.1489    9.8155 C   0  0  0  0  0  0  0  0  0  0  0  0
   -1.1938   -0.0320    8.9177 C   0  0  0  0  0  0  0  0  0  0  0  0
   -1.4922    1.1924    8.3598 C   0  0  0  0  0  0  0  0  0  0  0  0
   -0.7164    2.2832    8.7315 C   0  0  0  0  0  0  0  0  0  0  0  0
   -1.9468   -1.2513    8.5926 C   0  0  0  0  0  0  0  0  0  0  0  0
   -1.3385   -2.4879    8.5394 C   0  0  0  0  0  0  0  0  0  0  0  0
   -2.0379   -3.6517    8.2320 C   0  0  0  0  0  0  0  0  0  0  0  0
   -3.3940   -3.5921    7.9661 C   0  0  0  0  0  0  0  0  0  0  0  0
   -3.9940   -2.3531    8.0215 C   0  0  0  0  0  0  0  0  0  0  0  0
   -3.2988   -1.1951    8.3270 C   0  0  0  0  0  0  0  0  0  0  0  0
   -4.1704   -4.7796    7.6389 C   0  0  0  0  0  0  0  0  0  0  0  0
   -5.5498   -4.7142    7.7318 O   0  0  0  0  0  0  0  0  0  0  0  0
   -3.6506   -5.8604    7.2766 O   0  0  0  0  0  0  0  0  0  0  0  0
   -6.0085   -5.0339    8.5807 H   0  0  0  0  0  0  0  0  0  0  0  0
    3.6338    4.6123   15.4395 C   0  0  0  0  0  0  0  0  0  0  0  0
    3.7424    3.4488   16.3081 C   0  0  0  0  0  0  0  0  0  0  0  0
    2.8981    2.4284   16.2252 N   0  0  0  0  0  0  0  0  0  0  0  0
    2.9908    1.3546   17.0126 C   0  0  0  0  0  0  0  0  0  0  0  0
    3.9833    1.2758   17.9491 C   0  0  0  0  0  0  0  0  0  0  0  0
    4.8844    2.2941   18.0843 C   0  0  0  0  0  0  0  0  0  0  0  0
    4.7487    3.3899   17.2442 C   0  0  0  0  0  0  0  0  0  0  0  0
    5.7049    4.5148   17.3599 C   0  0  0  0  0  0  0  0  0  0  0  0
 13 14  1  0  0  0
 14 15  2  0  0  0
 15 16  1  0  0  0
 16 17  2  0  0  0
 17 18  1  0  0  0
 18 19  2  0  0  0
 16  1  1  0  0  0
  1  2  1  0  0  0
  2  3  2  0  0  0
  2  4  1  0  0  0
  4  5  1  0  0  0
  5  6  2  0  0  0
  5  7  1  0  0  0
  7  8  1  0  0  0
  8  9  1  0  0  0
  9 10  1  0  0  0
 10 36  1  0  0  0
 36 37  1  0  0  0
 37 38  2  0  0  0
 38 39  1  0  0  0
 39 40  2  0  0  0
 40 41  1  0  0  0
 41 42  2  0  0  0
 42 43  1  0  0  0
 10 11  1  0  0  0
 11 12  1  0  0  0
  4 20  1  0  0  0
 20 21  2  0  0  0
 21 22  1  0  0  0
 22 23  2  0  0  0
 23 24  1  0  0  0
 24 25  2  0  0  0
 23 26  1  0  0  0
 26 27  2  0  0  0
 27 28  1  0  0  0
 28 29  2  0  0  0
 29 30  1  0  0  0
 30 31  2  0  0  0
 29 32  1  0  0  0
 32 33  1  0  0  0
 32 34  2  0  0  0
 19 14  1  0  0  0
  7  1  1  0  0  0
 12  7  1  0  0  0
 25 20  1  0  0  0
 31 26  1  0  0  0
 42 37  1  0  0  0
 33 35  1  0  0  0
M  END
> <minimizedAffinity>
-7.32262

> <CNNscore>
0.1578239053

> <CNNaffinity>
6.1467447281

> <CNN_VS>
0.9701032639

> <CNNaffinity_variance>
0.2534143627

$$$$
[H]OC(=O)c1c([H])c([H])c(-c2c([H])c([H])c(N3C(=O)N(c4nc([H])nc(C([H])([H])[H])c4[H])C4(C3=O)C([H])([H])C([H])([H])N(C([H])([H])c3nc([H])c([H])c([H])c3C([H])([H])[H])C([H])([H])C4([H])[H])c([H])c2[H])c([H])c1[H]


 43 48  0  0  0  0  0  0  0  0999 V2000
    0.5973    3.5861   10.6696 N   0  0  0  0  0  0  0  0  0  0  0  0
    0.7206    3.5874   12.0988 C   0  0  0  0  0  0  0  0  0  0  0  0
   -0.2165    3.8495   12.8957 O   0  0  0  0  0  0  0  0  0  0  0  0
    2.0708    3.2454   12.4681 N   0  0  0  0  0  0  0  0  0  0  0  0
    2.7288    3.0472   11.1949 C   0  0  0  0  0  0  0  0  0  0  0  0
    3.9534    3.1626   10.9836 O   0  0  0  0  0  0  0  0  0  0  0  0
    1.6618    2.6910   10.2343 C   0  0  0  0  0  0  0  0  0  0  0  0
    1.2221    1.2664   10.4857 C   0  0  0  0  0  0  0  0  0  0  0  0
    1.3419    0.4386    9.2159 C   0  0  0  0  0  0  0  0  0  0  0  0
    2.6786    0.5485    8.6607 N   0  0  0  0  0  0  0  0  0  0  0  0
    3.0537    1.8843    8.3630 C   0  0  0  0  0  0  0  0  0  0  0  0
    2.0133    2.8710    8.8033 C   0  0  0  0  0  0  0  0  0  0  0  0
   -3.6579    3.9280    8.0741 C   0  0  0  0  0  0  0  0  0  0  0  0
   -2.4157    4.4990    8.6561 C   0  0  0  0  0  0  0  0  0  0  0  0
   -1.5087    3.7616    9.3854 C   0  0  0  0  0  0  0  0  0  0  0  0
   -0.3608    4.3030    9.9174 C   0  0  0  0  0  0  0  0  0  0  0  0
   -0.1390    5.6124    9.7010 N   0  0  0  0  0  0  0  0  0  0  0  0
   -1.0112    6.3596    8.9895 C   0  0  0  0  0  0  0  0  0  0  0  0
   -2.1293    5.8120    8.4765 N   0  0  0  0  0  0  0  0  0  0  0  0
    2.6323    3.1198   13.7658 C   0  0  0  0  0  0  0  0  0  0  0  0
    2.4081    1.9573   14.4976 C   0  0  0  0  0  0  0  0  0  0  0  0
    2.9294    1.8129   15.7579 C   0  0  0  0  0  0  0  0  0  0  0  0
    3.6869    2.8138   16.3302 C   0  0  0  0  0  0  0  0  0  0  0  0
    3.9308    3.9795   15.6367 C   0  0  0  0  0  0  0  0  0  0  0  0
    3.3927    4.1029   14.3619 C   0  0  0  0  0  0  0  0  0  0  0  0
    4.2042    2.5796   17.6856 C   0  0  0  0  0  0  0  0  0  0  0  0
    4.7915    3.5864   18.4227 C   0  0  0  0  0  0  0  0  0  0  0  0
    5.2871    3.3801   19.7072 C   0  0  0  0  0  0  0  0  0  0  0  0
    5.1992    2.1278   20.2879 C   0  0  0  0  0  0  0  0  0  0  0  0
    4.6112    1.1276   19.5449 C   0  0  0  0  0  0  0  0  0  0  0  0
    4.1182    1.3322   18.2672 C   0  0  0  0  0  0  0  0  0  0  0  0
    5.7029    1.8599   21.6274 C   0  0  0  0  0  0  0  0  0  0  0  0
    6.9935    1.3790   21.7649 O   0  0  0  0  0  0  0  0  0  0  0  0
    5.0243    2.0433   22.6646 O   0  0  0  0  0  0  0  0  0  0  0  0
    7.1466    0.3776   21.8489 H   0  0  0  0  0  0  0  0  0  0  0  0
    2.7619   -0.3886    7.5818 C   0  0  0  0  0  0  0  0  0  0  0  0
    3.5409    0.0337    6.4266 C   0  0  0  0  0  0  0  0  0  0  0  0
    3.0256    0.7991    5.4729 N   0  0  0  0  0  0  0  0  0  0  0  0
    3.7314    1.1964    4.4120 C   0  0  0  0  0  0  0  0  0  0  0  0
    5.0371    0.8155    4.2765 C   0  0  0  0  0  0  0  0  0  0  0  0
    5.6260    0.0272    5.2245 C   0  0  0  0  0  0  0  0  0  0  0  0
    4.8535   -0.3612    6.3095 C   0  0  0  0  0  0  0  0  0  0  0  0
    5.4548   -1.2165    7.3584 C   0  0  0  0  0  0  0  0  0  0  0  0
 13 14  1  0  0  0
 14 15  2  0  0  0
 15 16  1  0  0  0
 16 17  2  0  0  0
 17 18  1  0  0  0
 18 19  2  0  0  0
 16  1  1  0  0  0
  1  2  1  0  0  0
  2  3  2  0  0  0
  2  4  1  0  0  0
  4  5  1  0  0  0
  5  6  2  0  0  0
  5  7  1  0  0  0
  7  8  1  0  0  0
  8  9  1  0  0  0
  9 10  1  0  0  0
 10 36  1  0  0  0
 36 37  1  0  0  0
 37 38  2  0  0  0
 38 39  1  0  0  0
 39 40  2  0  0  0
 40 41  1  0  0  0
 41 42  2  0  0  0
 42 43  1  0  0  0
 10 11  1  0  0  0
 11 12  1  0  0  0
  4 20  1  0  0  0
 20 21  2  0  0  0
 21 22  1  0  0  0
 22 23  2  0  0  0
 23 24  1  0  0  0
 24 25  2  0  0  0
 23 26  1  0  0  0
 26 27  2  0  0  0
 27 28  1  0  0  0
 28 29  2  0  0  0
 29 30  1  0  0  0
 30 31  2  0  0  0
 29 32  1  0  0  0
 32 33  1  0  0  0
 32 34  2  0  0  0
 19 14  1  0  0  0
  7  1  1  0  0  0
 12  7  1  0  0  0
 25 20  1  0  0  0
 31 26  1  0  0  0
 42 37  1  0  0  0
 33 35  1  0  0  0
M  END
> <minimizedAffinity>
-7.81794

> <CNNscore>
0.1492584944

> <CNNaffinity>
6.2975225449

> <CNN_VS>
0.9399587512

> <CNNaffinity_variance>
0.4295898974

$$$$
[H]c1nc2c(nc([H])c(=O)n2[H])c(Oc2c([H])c([H])c(N([H])C(=O)N([H])c3c([H])c(C(C([H])([H])[H])(C([H])([H])[H])C([H])([H])[H])nn3-c3c([H])c([H])c(OC([H])([H])[H])c([H])c3[H])c3c([H])c([H])c([H])c([H])c23)c1[H]


 46 51  0  0  0  0  0  0  0  0999 V2000
    2.5479    3.6912   11.8108 N   0  0  0  0  0  0  0  0  0  0  0  0
    1.9368    3.2420   13.0399 C   0  0  0  0  0  0  0  0  0  0  0  0
    0.7767    2.8712   13.0304 O   0  0  0  0  0  0  0  0  0  0  0  0
    2.6751    3.2457   14.2153 N   0  0  0  0  0  0  0  0  0  0  0  0
    3.5843    4.0150   11.9010 H   0  0  0  0  0  0  0  0  0  0  0  0
    1.5002    3.3934   14.9277 H   0  0  0  0  0  0  0  0  0  0  0  0
    3.3775    3.2466   15.3481 C   0  0  0  0  0  0  0  0  0  0  0  0
    4.1810    4.3662   15.6741 C   0  0  0  0  0  0  0  0  0  0  0  0
    4.8646    4.4662   16.8144 C   0  0  0  0  0  0  0  0  0  0  0  0
    4.8075    3.4211   17.7631 C   0  0  0  0  0  0  0  0  0  0  0  0
    4.0496    2.3496   17.4897 C   0  0  0  0  0  0  0  0  0  0  0  0
    3.9702    1.3415   18.4435 C   0  0  0  0  0  0  0  0  0  0  0  0
    3.2035    0.2290   18.2486 C   0  0  0  0  0  0  0  0  0  0  0  0
    2.4998    0.1277   17.0824 C   0  0  0  0  0  0  0  0  0  0  0  0
    2.5726    1.1189   16.1335 C   0  0  0  0  0  0  0  0  0  0  0  0
    3.3375    2.2503   16.3020 C   0  0  0  0  0  0  0  0  0  0  0  0
    5.5913    3.6896   18.8636 O   0  0  0  0  0  0  0  0  0  0  0  0
    5.3027    4.4587   19.9494 C   0  0  0  0  0  0  0  0  0  0  0  0
    5.0160    5.7870   19.9680 C   0  0  0  0  0  0  0  0  0  0  0  0
    4.7240    6.4807   21.1574 C   0  0  0  0  0  0  0  0  0  0  0  0
    4.7283    5.7948   22.2915 N   0  0  0  0  0  0  0  0  0  0  0  0
    5.0022    4.4673   22.3306 C   0  0  0  0  0  0  0  0  0  0  0  0
    4.9390    3.8257   23.5186 N   0  0  0  0  0  0  0  0  0  0  0  0
    5.1721    2.5043   23.5901 C   0  0  0  0  0  0  0  0  0  0  0  0
    5.1022    1.8952   24.6889 O   0  0  0  0  0  0  0  0  0  0  0  0
    5.4769    1.8182   22.3983 C   0  0  0  0  0  0  0  0  0  0  0  0
    5.5330    2.4596   21.2295 N   0  0  0  0  0  0  0  0  0  0  0  0
    5.2920    3.7845   21.1845 C   0  0  0  0  0  0  0  0  0  0  0  0
    4.7091    4.3548   24.3833 H   0  0  0  0  0  0  0  0  0  0  0  0
    1.7333    2.9116    9.5255 N   0  0  0  0  0  0  0  0  0  0  0  0
    1.0699    3.5680    8.5532 N   0  0  0  0  0  0  0  0  0  0  0  0
    0.9011    4.8305    8.8450 C   0  0  0  0  0  0  0  0  0  0  0  0
    1.4984    4.9993   10.0779 C   0  0  0  0  0  0  0  0  0  0  0  0
    2.0407    3.7421   10.5272 C   0  0  0  0  0  0  0  0  0  0  0  0
    2.6816   -1.2073    9.1751 C   0  0  0  0  0  0  0  0  0  0  0  0
    1.3832   -0.7567    9.1567 C   0  0  0  0  0  0  0  0  0  0  0  0
    1.0718    0.5745    9.2443 C   0  0  0  0  0  0  0  0  0  0  0  0
    2.0171    1.5226    9.3468 C   0  0  0  0  0  0  0  0  0  0  0  0
    3.3699    1.0872    9.3598 C   0  0  0  0  0  0  0  0  0  0  0  0
    3.6771   -0.2648    9.2745 C   0  0  0  0  0  0  0  0  0  0  0  0
    1.9315   -3.5215    9.2763 C   0  0  0  0  0  0  0  0  0  0  0  0
    2.9950   -2.5606    9.0996 O   0  0  0  0  0  0  0  0  0  0  0  0
    0.1935    5.9341    8.0962 C   0  0  0  0  0  0  0  0  0  0  0  0
    1.1663    7.0901    7.8569 C   0  0  0  0  0  0  0  0  0  0  0  0
   -0.2746    5.4406    6.7461 C   0  0  0  0  0  0  0  0  0  0  0  0
   -0.9777    6.4420    8.8490 C   0  0  0  0  0  0  0  0  0  0  0  0
 41 42  1  0  0  0
 42 35  1  0  0  0
 35 36  2  0  0  0
 36 37  1  0  0  0
 37 38  2  0  0  0
 38 39  1  0  0  0
 39 40  2  0  0  0
 38 30  1  0  0  0
 30 31  1  0  0  0
 31 32  2  0  0  0
 32 33  1  0  0  0
 33 34  2  0  0  0
 34  1  1  0  0  0
  1  2  1  0  0  0
  2  3  2  0  0  0
  2  4  1  0  0  0
  4  7  1  0  0  0
  7  8  2  0  0  0
  8  9  1  0  0  0
  9 10  2  0  0  0
 10 17  1  0  0  0
 17 18  1  0  0  0
 18 19  2  0  0  0
 19 20  1  0  0  0
 20 21  2  0  0  0
 21 22  1  0  0  0
 22 23  1  0  0  0
 23 24  1  0  0  0
 24 25  2  0  0  0
 24 26  1  0  0  0
 26 27  2  0  0  0
 27 28  1  0  0  0
 10 11  1  0  0  0
 11 12  2  0  0  0
 12 13  1  0  0  0
 13 14  2  0  0  0
 14 15  1  0  0  0
 15 16  2  0  0  0
 32 43  1  0  0  0
 43 44  1  0  0  0
 43 45  1  0  0  0
 43 46  1  0  0  0
 40 35  1  0  0  0
 34 30  1  0  0  0
 16  7  1  0  0  0
 28 18  1  0  0  0
 16 11  1  0  0  0
 28 22  2  0  0  0
  1  5  1  0  0  0
  4  6  1  0  0  0
 23 29  1  0  0  0
M  END
> <minimizedAffinity>
-9.35156

> <CNNscore>
0.0797366053

> <CNNaffinity>
6.8770155907

> <CNN_VS>
0.5483498573

> <CNNaffinity_variance>
0.1265171468

$$$$
[H]c1nc2c(nc([H])c(=O)n2[H])c(Oc2c([H])c([H])c(N([H])C(=O)N([H])c3c([H])c(C(C([H])([H])[H])(C([H])([H])[H])C([H])([H])[H])nn3-c3c([H])c([H])c(OC([H])([H])[H])c([H])c3[H])c3c([H])c([H])c([H])c([H])c23)c1[H]


 46 51  0  0  0  0  0  0  0  0999 V2000
    2.1543    5.1524   11.7688 N   0  0  0  0  0  0  0  0  0  0  0  0
    2.6606    5.8870   12.9045 C   0  0  0  0  0  0  0  0  0  0  0  0
    2.6946    7.1038   12.8631 O   0  0  0  0  0  0  0  0  0  0  0  0
    3.1084    5.1985   14.0235 N   0  0  0  0  0  0  0  0  0  0  0  0
    2.1637    4.0684   11.8776 H   0  0  0  0  0  0  0  0  0  0  0  0
    3.9531    6.2543   14.3088 H   0  0  0  0  0  0  0  0  0  0  0  0
    3.5404    4.5444   15.1016 C   0  0  0  0  0  0  0  0  0  0  0  0
    3.4003    3.1369   15.1708 C   0  0  0  0  0  0  0  0  0  0  0  0
    3.8599    2.4072   16.1876 C   0  0  0  0  0  0  0  0  0  0  0  0
    4.5213    3.0384   17.2643 C   0  0  0  0  0  0  0  0  0  0  0  0
    4.6783    4.3694   17.2270 C   0  0  0  0  0  0  0  0  0  0  0  0
    5.3614    4.9790   18.2728 C   0  0  0  0  0  0  0  0  0  0  0  0
    5.5802    6.3263   18.2974 C   0  0  0  0  0  0  0  0  0  0  0  0
    5.1131    7.0739   17.2541 C   0  0  0  0  0  0  0  0  0  0  0  0
    4.4361    6.4800   16.2162 C   0  0  0  0  0  0  0  0  0  0  0  0
    4.2000    5.1254   16.1652 C   0  0  0  0  0  0  0  0  0  0  0  0
    4.9045    2.1317   18.2280 O   0  0  0  0  0  0  0  0  0  0  0  0
    4.1234    1.3970   19.0669 C   0  0  0  0  0  0  0  0  0  0  0  0
    3.2443    0.4168   18.7303 C   0  0  0  0  0  0  0  0  0  0  0  0
    2.4910   -0.2851   19.6899 C   0  0  0  0  0  0  0  0  0  0  0  0
    2.6627    0.0320   20.9652 N   0  0  0  0  0  0  0  0  0  0  0  0
    3.5300    0.9977   21.3579 C   0  0  0  0  0  0  0  0  0  0  0  0
    3.6872    1.2310   22.6799 N   0  0  0  0  0  0  0  0  0  0  0  0
    4.5619    2.1576   23.1067 C   0  0  0  0  0  0  0  0  0  0  0  0
    4.7258    2.3727   24.3356 O   0  0  0  0  0  0  0  0  0  0  0  0
    5.3032    2.8659   22.1409 C   0  0  0  0  0  0  0  0  0  0  0  0
    5.1438    2.6257   20.8380 N   0  0  0  0  0  0  0  0  0  0  0  0
    4.2625    1.6890   20.4364 C   0  0  0  0  0  0  0  0  0  0  0  0
    3.1300    0.6923   23.3726 H   0  0  0  0  0  0  0  0  0  0  0  0
    0.4575    6.0379   10.0862 N   0  0  0  0  0  0  0  0  0  0  0  0
    0.6220    6.5358    8.8447 N   0  0  0  0  0  0  0  0  0  0  0  0
    1.8667    6.4671    8.4529 C   0  0  0  0  0  0  0  0  0  0  0  0
    2.5445    5.8829    9.5039 C   0  0  0  0  0  0  0  0  0  0  0  0
    1.6235    5.6047   10.5766 C   0  0  0  0  0  0  0  0  0  0  0  0
   -3.4594    5.7934   11.6940 C   0  0  0  0  0  0  0  0  0  0  0  0
   -2.3709    6.0977   12.4761 C   0  0  0  0  0  0  0  0  0  0  0  0
   -1.1070    6.2027   11.9580 C   0  0  0  0  0  0  0  0  0  0  0  0
   -0.8545    6.0213   10.6518 C   0  0  0  0  0  0  0  0  0  0  0  0
   -1.9624    5.7136    9.8164 C   0  0  0  0  0  0  0  0  0  0  0  0
   -3.2402    5.6051   10.3502 C   0  0  0  0  0  0  0  0  0  0  0  0
   -5.5445    4.5430   11.8258 C   0  0  0  0  0  0  0  0  0  0  0  0
   -4.7400    5.6740   12.2245 O   0  0  0  0  0  0  0  0  0  0  0  0
    2.5307    6.9286    7.1779 C   0  0  0  0  0  0  0  0  0  0  0  0
    1.4631    7.4186    6.1981 C   0  0  0  0  0  0  0  0  0  0  0  0
    3.4637    8.0849    7.4570 C   0  0  0  0  0  0  0  0  0  0  0  0
    3.3034    5.8379    6.5380 C   0  0  0  0  0  0  0  0  0  0  0  0
 41 42  1  0  0  0
 42 35  1  0  0  0
 35 36  2  0  0  0
 36 37  1  0  0  0
 37 38  2  0  0  0
 38 39  1  0  0  0
 39 40  2  0  0  0
 38 30  1  0  0  0
 30 31  1  0  0  0
 31 32  2  0  0  0
 32 33  1  0  0  0
 33 34  2  0  0  0
 34  1  1  0  0  0
  1  2  1  0  0  0
  2  3  2  0  0  0
  2  4  1  0  0  0
  4  7  1  0  0  0
  7  8  2  0  0  0
  8  9  1  0  0  0
  9 10  2  0  0  0
 10 17  1  0  0  0
 17 18  1  0  0  0
 18 19  2  0  0  0
 19 20  1  0  0  0
 20 21  2  0  0  0
 21 22  1  0  0  0
 22 23  1  0  0  0
 23 24  1  0  0  0
 24 25  2  0  0  0
 24 26  1  0  0  0
 26 27  2  0  0  0
 27 28  1  0  0  0
 10 11  1  0  0  0
 11 12  2  0  0  0
 12 13  1  0  0  0
 13 14  2  0  0  0
 14 15  1  0  0  0
 15 16  2  0  0  0
 32 43  1  0  0  0
 43 44  1  0  0  0
 43 45  1  0  0  0
 43 46  1  0  0  0
 40 35  1  0  0  0
 34 30  1  0  0  0
 16  7  1  0  0  0
 28 18  1  0  0  0
 16 11  1  0  0  0
 28 22  2  0  0  0
  1  5  1  0  0  0
  4  6  1  0  0  0
 23 29  1  0  0  0
M  END
> <minimizedAffinity>
-9.43612

> <CNNscore>
0.0748605132

> <CNNaffinity>
6.7039766312

> <CNN_VS>
0.5018631220

> <CNNaffinity_variance>
0.1898321658

$$$$
[H]c1nc2c(nc([H])c(=O)n2[H])c(Oc2c([H])c([H])c(N([H])C(=O)N([H])c3c([H])c(C(C([H])([H])[H])(C([H])([H])[H])C([H])([H])[H])nn3-c3c([H])c([H])c(OC([H])([H])[H])c([H])c3[H])c3c([H])c([H])c([H])c([H])c23)c1[H]


 46 51  0  0  0  0  0  0  0  0999 V2000
    0.6323    5.2255   13.0000 N   0  0  0  0  0  0  0  0  0  0  0  0
    1.5565    4.1188   13.0838 C   0  0  0  0  0  0  0  0  0  0  0  0
    1.6096    3.3135   12.1716 O   0  0  0  0  0  0  0  0  0  0  0  0
    2.3654    3.9828   14.2035 N   0  0  0  0  0  0  0  0  0  0  0  0
    0.6368    5.8976   13.8575 H   0  0  0  0  0  0  0  0  0  0  0  0
    2.4050    2.6192   13.9829 H   0  0  0  0  0  0  0  0  0  0  0  0
    3.1452    3.8453   15.2757 C   0  0  0  0  0  0  0  0  0  0  0  0
    3.8901    4.9533   15.7478 C   0  0  0  0  0  0  0  0  0  0  0  0
    4.6448    4.9103   16.8461 C   0  0  0  0  0  0  0  0  0  0  0  0
    4.7284    3.7163   17.5961 C   0  0  0  0  0  0  0  0  0  0  0  0
    4.0292    2.6500   17.1817 C   0  0  0  0  0  0  0  0  0  0  0  0
    4.0884    1.4897   17.9447 C   0  0  0  0  0  0  0  0  0  0  0  0
    3.3890    0.3690   17.6006 C   0  0  0  0  0  0  0  0  0  0  0  0
    2.6125    0.4136   16.4778 C   0  0  0  0  0  0  0  0  0  0  0  0
    2.5483    1.5561   15.7170 C   0  0  0  0  0  0  0  0  0  0  0  0
    3.2427    2.6997   16.0386 C   0  0  0  0  0  0  0  0  0  0  0  0
    5.5682    3.8536   18.6794 O   0  0  0  0  0  0  0  0  0  0  0  0
    5.4194    4.6413   19.7799 C   0  0  0  0  0  0  0  0  0  0  0  0
    5.3276    5.9966   19.8192 C   0  0  0  0  0  0  0  0  0  0  0  0
    5.1669    6.7088   21.0226 C   0  0  0  0  0  0  0  0  0  0  0  0
    5.0992    6.0140   22.1492 N   0  0  0  0  0  0  0  0  0  0  0  0
    5.1797    4.6605   22.1679 C   0  0  0  0  0  0  0  0  0  0  0  0
    5.0530    4.0185   23.3506 N   0  0  0  0  0  0  0  0  0  0  0  0
    5.0948    2.6764   23.4027 C   0  0  0  0  0  0  0  0  0  0  0  0
    4.9640    2.0688   24.4968 O   0  0  0  0  0  0  0  0  0  0  0  0
    5.2692    1.9700   22.1967 C   0  0  0  0  0  0  0  0  0  0  0  0
    5.3894    2.6126   21.0334 N   0  0  0  0  0  0  0  0  0  0  0  0
    5.3408    3.9588   21.0080 C   0  0  0  0  0  0  0  0  0  0  0  0
    4.9223    4.5633   24.2262 H   0  0  0  0  0  0  0  0  0  0  0  0
   -0.1892    6.0298   10.7257 N   0  0  0  0  0  0  0  0  0  0  0  0
   -1.4218    6.0282   10.1808 N   0  0  0  0  0  0  0  0  0  0  0  0
   -2.3259    5.6004   11.0216 C   0  0  0  0  0  0  0  0  0  0  0  0
   -1.6343    5.3152   12.1816 C   0  0  0  0  0  0  0  0  0  0  0  0
   -0.2335    5.5920   11.9883 C   0  0  0  0  0  0  0  0  0  0  0  0
    2.9355    7.4753    8.2490 C   0  0  0  0  0  0  0  0  0  0  0  0
    2.8148    7.8576    9.5636 C   0  0  0  0  0  0  0  0  0  0  0  0
    1.8225    7.3748   10.3755 C   0  0  0  0  0  0  0  0  0  0  0  0
    0.9098    6.4923    9.9383 C   0  0  0  0  0  0  0  0  0  0  0  0
    1.0144    6.0719    8.5847 C   0  0  0  0  0  0  0  0  0  0  0  0
    2.0212    6.5692    7.7670 C   0  0  0  0  0  0  0  0  0  0  0  0
    4.7184    9.0952    7.8948 C   0  0  0  0  0  0  0  0  0  0  0  0
    3.9359    7.9772    7.4226 O   0  0  0  0  0  0  0  0  0  0  0  0
   -3.8113    5.3874   10.8552 C   0  0  0  0  0  0  0  0  0  0  0  0
   -4.5516    6.0371   12.0255 C   0  0  0  0  0  0  0  0  0  0  0  0
   -4.2994    6.0415    9.5827 C   0  0  0  0  0  0  0  0  0  0  0  0
   -4.1555    3.9466   10.8115 C   0  0  0  0  0  0  0  0  0  0  0  0
 41 42  1  0  0  0
 42 35  1  0  0  0
 35 36  2  0  0  0
 36 37  1  0  0  0
 37 38  2  0  0  0
 38 39  1  0  0  0
 39 40  2  0  0  0
 38 30  1  0  0  0
 30 31  1  0  0  0
 31 32  2  0  0  0
 32 33  1  0  0  0
 33 34  2  0  0  0
 34  1  1  0  0  0
  1  2  1  0  0  0
  2  3  2  0  0  0
  2  4  1  0  0  0
  4  7  1  0  0  0
  7  8  2  0  0  0
  8  9  1  0  0  0
  9 10  2  0  0  0
 10 17  1  0  0  0
 17 18  1  0  0  0
 18 19  2  0  0  0
 19 20  1  0  0  0
 20 21  2  0  0  0
 21 22  1  0  0  0
 22 23  1  0  0  0
 23 24  1  0  0  0
 24 25  2  0  0  0
 24 26  1  0  0  0
 26 27  2  0  0  0
 27 28  1  0  0  0
 10 11  1  0  0  0
 11 12  2  0  0  0
 12 13  1  0  0  0
 13 14  2  0  0  0
 14 15  1  0  0  0
 15 16  2  0  0  0
 32 43  1  0  0  0
 43 44  1  0  0  0
 43 45  1  0  0  0
 43 46  1  0  0  0
 40 35  1  0  0  0
 34 30  1  0  0  0
 16  7  1  0  0  0
 28 18  1  0  0  0
 16 11  1  0  0  0
 28 22  2  0  0  0
  1  5  1  0  0  0
  4  6  1  0  0  0
 23 29  1  0  0  0
M  END
> <minimizedAffinity>
-10.27060

> <CNNscore>
0.0535344779

> <CNNaffinity>
6.5006546974

> <CNN_VS>
0.3480091691

> <CNNaffinity_variance>
0.2222474515

$$$$
[H]c1nc2c(nc([H])c(=O)n2[H])c(Oc2c([H])c([H])c(N([H])C(=O)N([H])c3c([H])c(C(C([H])([H])[H])(C([H])([H])[H])C([H])([H])[H])nn3-c3c([H])c([H])c(OC([H])([H])[H])c([H])c3[H])c3c([H])c([H])c([H])c([H])c23)c1[H]


 46 51  0  0  0  0  0  0  0  0999 V2000
    2.6501    5.9755   12.2621 N   0  0  0  0  0  0  0  0  0  0  0  0
    2.4795    4.6747   12.8661 C   0  0  0  0  0  0  0  0  0  0  0  0
    1.7925    3.8401   12.3050 O   0  0  0  0  0  0  0  0  0  0  0  0
    3.0929    4.3952   14.0795 N   0  0  0  0  0  0  0  0  0  0  0  0
    3.2707    6.6700   12.8273 H   0  0  0  0  0  0  0  0  0  0  0  0
    2.0963    3.4761   14.3472 H   0  0  0  0  0  0  0  0  0  0  0  0
    3.6786    4.1194   15.2446 C   0  0  0  0  0  0  0  0  0  0  0  0
    4.4174    5.1253   15.9136 C   0  0  0  0  0  0  0  0  0  0  0  0
    4.9811    4.9438   17.1082 C   0  0  0  0  0  0  0  0  0  0  0  0
    4.8556    3.6989   17.7636 C   0  0  0  0  0  0  0  0  0  0  0  0
    4.1557    2.7266   17.1618 C   0  0  0  0  0  0  0  0  0  0  0  0
    4.0066    1.5163   17.8289 C   0  0  0  0  0  0  0  0  0  0  0  0
    3.2911    0.4852   17.2920 C   0  0  0  0  0  0  0  0  0  0  0  0
    2.7100    0.6718   16.0701 C   0  0  0  0  0  0  0  0  0  0  0  0
    2.8525    1.8646   15.4028 C   0  0  0  0  0  0  0  0  0  0  0  0
    3.5684    2.9205   15.9188 C   0  0  0  0  0  0  0  0  0  0  0  0
    5.5187    3.6905   18.9710 O   0  0  0  0  0  0  0  0  0  0  0  0
    5.2705    4.4314   20.0860 C   0  0  0  0  0  0  0  0  0  0  0  0
    5.0925    5.7766   20.1610 C   0  0  0  0  0  0  0  0  0  0  0  0
    4.8324    6.4380   21.3758 C   0  0  0  0  0  0  0  0  0  0  0  0
    4.7564    5.7041   22.4769 N   0  0  0  0  0  0  0  0  0  0  0  0
    4.9204    4.3581   22.4593 C   0  0  0  0  0  0  0  0  0  0  0  0
    4.7797    3.6715   23.6149 N   0  0  0  0  0  0  0  0  0  0  0  0
    4.9028    2.3334   23.6292 C   0  0  0  0  0  0  0  0  0  0  0  0
    4.7600    1.6837   24.6973 O   0  0  0  0  0  0  0  0  0  0  0  0
    5.1764    1.6786   22.4126 C   0  0  0  0  0  0  0  0  0  0  0  0
    5.3097    2.3648   21.2759 N   0  0  0  0  0  0  0  0  0  0  0  0
    5.1783    3.7057   21.2881 C   0  0  0  0  0  0  0  0  0  0  0  0
    4.5750    4.1785   24.4990 H   0  0  0  0  0  0  0  0  0  0  0  0
    1.0183    6.7405   10.4603 N   0  0  0  0  0  0  0  0  0  0  0  0
    1.2234    7.4157    9.3121 N   0  0  0  0  0  0  0  0  0  0  0  0
    2.4937    7.6295    9.0926 C   0  0  0  0  0  0  0  0  0  0  0  0
    3.1475    7.0506   10.1616 C   0  0  0  0  0  0  0  0  0  0  0  0
    2.1821    6.4712   11.0609 C   0  0  0  0  0  0  0  0  0  0  0  0
   -2.9298    5.5698   11.4744 C   0  0  0  0  0  0  0  0  0  0  0  0
   -2.0263    5.9783   12.4261 C   0  0  0  0  0  0  0  0  0  0  0  0
   -0.7577    6.3814   12.1021 C   0  0  0  0  0  0  0  0  0  0  0  0
   -0.3207    6.4087   10.8328 C   0  0  0  0  0  0  0  0  0  0  0  0
   -1.2360    5.9995    9.8255 C   0  0  0  0  0  0  0  0  0  0  0  0
   -2.5193    5.5885   10.1628 C   0  0  0  0  0  0  0  0  0  0  0  0
   -4.7270    3.9539   11.1781 C   0  0  0  0  0  0  0  0  0  0  0  0
   -4.2132    5.1480   11.8071 O   0  0  0  0  0  0  0  0  0  0  0  0
    3.1958    8.3660    7.9773 C   0  0  0  0  0  0  0  0  0  0  0  0
    2.5649    9.7490    7.8061 C   0  0  0  0  0  0  0  0  0  0  0  0
    4.6561    8.5656    8.3134 C   0  0  0  0  0  0  0  0  0  0  0  0
    3.0994    7.6335    6.6926 C   0  0  0  0  0  0  0  0  0  0  0  0
 41 42  1  0  0  0
 42 35  1  0  0  0
 35 36  2  0  0  0
 36 37  1  0  0  0
 37 38  2  0  0  0
 38 39  1  0  0  0
 39 40  2  0  0  0
 38 30  1  0  0  0
 30 31  1  0  0  0
 31 32  2  0  0  0
 32 33  1  0  0  0
 33 34  2  0  0  0
 34  1  1  0  0  0
  1  2  1  0  0  0
  2  3  2  0  0  0
  2  4  1  0  0  0
  4  7  1  0  0  0
  7  8  2  0  0  0
  8  9  1  0  0  0
  9 10  2  0  0  0
 10 17  1  0  0  0
 17 18  1  0  0  0
 18 19  2  0  0  0
 19 20  1  0  0  0
 20 21  2  0  0  0
 21 22  1  0  0  0
 22 23  1  0  0  0
 23 24  1  0  0  0
 24 25  2  0  0  0
 24 26  1  0  0  0
 26 27  2  0  0  0
 27 28  1  0  0  0
 10 11  1  0  0  0
 11 12  2  0  0  0
 12 13  1  0  0  0
 13 14  2  0  0  0
 14 15  1  0  0  0
 15 16  2  0  0  0
 32 43  1  0  0  0
 43 44  1  0  0  0
 43 45  1  0  0  0
 43 46  1  0  0  0
 40 35  1  0  0  0
 34 30  1  0  0  0
 16  7  1  0  0  0
 28 18  1  0  0  0
 16 11  1  0  0  0
 28 22  2  0  0  0
  1  5  1  0  0  0
  4  6  1  0  0  0
 23 29  1  0  0  0
M  END
> <minimizedAffinity>
-10.49261

> <CNNscore>
0.0494374111

> <CNNaffinity>
6.5235009193

> <CNN_VS>
0.3225049973

> <CNNaffinity_variance>
0.1790048927

$$$$
[H]c1nc2c(nc([H])c(=O)n2[H])c(Oc2c([H])c([H])c(N([H])C(=O)N([H])c3c([H])c(C(C([H])([H])[H])(C([H])([H])[H])C([H])([H])[H])nn3-c3c([H])c([H])c(OC([H])([H])[H])c([H])c3[H])c3c([H])c([H])c([H])c([H])c23)c1[H]


 46 51  0  0  0  0  0  0  0  0999 V2000
    3.7402    3.9092   17.4810 N   0  0  0  0  0  0  0  0  0  0  0  0
    2.8676    5.0071   17.1362 C   0  0  0  0  0  0  0  0  0  0  0  0
    2.6749    5.8954   17.9469 O   0  0  0  0  0  0  0  0  0  0  0  0
    2.2547    5.0324   15.8911 N   0  0  0  0  0  0  0  0  0  0  0  0
    3.8558    3.1501   16.7081 H   0  0  0  0  0  0  0  0  0  0  0  0
    1.2260    5.7770   16.4362 H   0  0  0  0  0  0  0  0  0  0  0  0
    1.6623    5.0635   14.6974 C   0  0  0  0  0  0  0  0  0  0  0  0
    0.9186    6.2057   14.3131 C   0  0  0  0  0  0  0  0  0  0  0  0
    0.3480    6.3356   13.1152 C   0  0  0  0  0  0  0  0  0  0  0  0
    0.4707    5.3009   12.1615 C   0  0  0  0  0  0  0  0  0  0  0  0
    1.1751    4.2084   12.4896 C   0  0  0  0  0  0  0  0  0  0  0  0
    1.3213    3.2102   11.5334 C   0  0  0  0  0  0  0  0  0  0  0  0
    2.0409    2.0775   11.7837 C   0  0  0  0  0  0  0  0  0  0  0  0
    2.6291    1.9456   13.0094 C   0  0  0  0  0  0  0  0  0  0  0  0
    2.4895    2.9269   13.9612 C   0  0  0  0  0  0  0  0  0  0  0  0
    1.7696    4.0781   13.7375 C   0  0  0  0  0  0  0  0  0  0  0  0
   -0.1996    5.6010   10.9960 O   0  0  0  0  0  0  0  0  0  0  0  0
   -1.5290    5.4902   10.7235 C   0  0  0  0  0  0  0  0  0  0  0  0
   -2.4738    4.8544   11.4650 C   0  0  0  0  0  0  0  0  0  0  0  0
   -3.8287    4.8107   11.0863 C   0  0  0  0  0  0  0  0  0  0  0  0
   -4.1782    5.4228    9.9639 N   0  0  0  0  0  0  0  0  0  0  0  0
   -3.2782    6.0766    9.1884 C   0  0  0  0  0  0  0  0  0  0  0  0
   -3.7182    6.7191    8.0836 N   0  0  0  0  0  0  0  0  0  0  0  0
   -2.8599    7.4046    7.3096 C   0  0  0  0  0  0  0  0  0  0  0  0
   -3.2616    8.0175    6.2868 O   0  0  0  0  0  0  0  0  0  0  0  0
   -1.5031    7.4335    7.6867 C   0  0  0  0  0  0  0  0  0  0  0  0
   -1.0789    6.7993    8.7814 N   0  0  0  0  0  0  0  0  0  0  0  0
   -1.9605    6.1217    9.5423 C   0  0  0  0  0  0  0  0  0  0  0  0
   -4.7254    6.6846    7.8289 H   0  0  0  0  0  0  0  0  0  0  0  0
    5.2400    4.3640   19.4904 N   0  0  0  0  0  0  0  0  0  0  0  0
    5.5559    3.5925   20.5494 N   0  0  0  0  0  0  0  0  0  0  0  0
    5.0421    2.3951   20.4506 C   0  0  0  0  0  0  0  0  0  0  0  0
    4.3589    2.3930   19.2512 C   0  0  0  0  0  0  0  0  0  0  0  0
    4.4841    3.6835   18.6226 C   0  0  0  0  0  0  0  0  0  0  0  0
    6.8345    8.2939   19.5178 C   0  0  0  0  0  0  0  0  0  0  0  0
    7.0670    7.4229   18.4803 C   0  0  0  0  0  0  0  0  0  0  0  0
    6.5342    6.1611   18.4539 C   0  0  0  0  0  0  0  0  0  0  0  0
    5.7457    5.6994   19.4378 C   0  0  0  0  0  0  0  0  0  0  0  0
    5.4805    6.5811   20.5205 C   0  0  0  0  0  0  0  0  0  0  0  0
    6.0278    7.8576   20.5416 C   0  0  0  0  0  0  0  0  0  0  0  0
    8.3504    9.8749   20.5813 C   0  0  0  0  0  0  0  0  0  0  0  0
    7.3877    9.5701   19.5490 O   0  0  0  0  0  0  0  0  0  0  0  0
    5.0876    1.2170   21.3936 C   0  0  0  0  0  0  0  0  0  0  0  0
    4.7943    1.6944   22.8170 C   0  0  0  0  0  0  0  0  0  0  0  0
    4.0305    0.2021   21.0223 C   0  0  0  0  0  0  0  0  0  0  0  0
    6.4121    0.5524   21.3750 C   0  0  0  0  0  0  0  0  0  0  0  0
 41 42  1  0  0  0
 42 35  1  0  0  0
 35 36  2  0  0  0
 36 37  1  0  0  0
 37 38  2  0  0  0
 38 39  1  0  0  0
 39 40  2  0  0  0
 38 30  1  0  0  0
 30 31  1  0  0  0
 31 32  2  0  0  0
 32 33  1  0  0  0
 33 34  2  0  0  0
 34  1  1  0  0  0
  1  2  1  0  0  0
  2  3  2  0  0  0
  2  4  1  0  0  0
  4  7  1  0  0  0
  7  8  2  0  0  0
  8  9  1  0  0  0
  9 10  2  0  0  0
 10 17  1  0  0  0
 17 18  1  0  0  0
 18 19  2  0  0  0
 19 20  1  0  0  0
 20 21  2  0  0  0
 21 22  1  0  0  0
 22 23  1  0  0  0
 23 24  1  0  0  0
 24 25  2  0  0  0
 24 26  1  0  0  0
 26 27  2  0  0  0
 27 28  1  0  0  0
 10 11  1  0  0  0
 11 12  2  0  0  0
 12 13  1  0  0  0
 13 14  2  0  0  0
 14 15  1  0  0  0
 15 16  2  0  0  0
 32 43  1  0  0  0
 43 44  1  0  0  0
 43 45  1  0  0  0
 43 46  1  0  0  0
 40 35  1  0  0  0
 34 30  1  0  0  0
 16  7  1  0  0  0
 28 18  1  0  0  0
 16 11  1  0  0  0
 28 22  2  0  0  0
  1  5  1  0  0  0
  4  6  1  0  0  0
 23 29  1  0  0  0
M  END
> <minimizedAffinity>
-9.39165

> <CNNscore>
0.0435197353

> <CNNaffinity>
6.5637998581

> <CNN_VS>
0.2856548429

> <CNNaffinity_variance>
0.1510303169

$$$$
[H]c1nc2c(nc([H])c(=O)n2[H])c(Oc2c([H])c([H])c(N([H])C(=O)N([H])c3c([H])c(C(C([H])([H])[H])(C([H])([H])[H])C([H])([H])[H])nn3-c3c([H])c([H])c(OC([H])([H])[H])c([H])c3[H])c3c([H])c([H])c([H])c([H])c23)c1[H]


 46 51  0  0  0  0  0  0  0  0999 V2000
    0.7286    3.9640   12.8176 N   0  0  0  0  0  0  0  0  0  0  0  0
    2.0474    4.5352   12.9599 C   0  0  0  0  0  0  0  0  0  0  0  0
    2.5169    5.1910   12.0472 O   0  0  0  0  0  0  0  0  0  0  0  0
    2.7649    4.3238   14.1291 N   0  0  0  0  0  0  0  0  0  0  0  0
    0.3812    3.3840   13.6719 H   0  0  0  0  0  0  0  0  0  0  0  0
    3.9367    4.4708   13.4115 H   0  0  0  0  0  0  0  0  0  0  0  0
    3.4601    4.1250   15.2488 C   0  0  0  0  0  0  0  0  0  0  0  0
    4.1804    5.1984   15.8270 C   0  0  0  0  0  0  0  0  0  0  0  0
    4.8498    5.0931   16.9753 C   0  0  0  0  0  0  0  0  0  0  0  0
    4.8626    3.8645   17.6722 C   0  0  0  0  0  0  0  0  0  0  0  0
    4.1840    2.8294   17.1569 C   0  0  0  0  0  0  0  0  0  0  0  0
    4.1719    1.6343   17.8664 C   0  0  0  0  0  0  0  0  0  0  0  0
    3.4871    0.5415   17.4185 C   0  0  0  0  0  0  0  0  0  0  0  0
    2.7979    0.6499   16.2443 C   0  0  0  0  0  0  0  0  0  0  0  0
    2.8047    1.8272   15.5357 C   0  0  0  0  0  0  0  0  0  0  0  0
    3.4864    2.9439   15.9619 C   0  0  0  0  0  0  0  0  0  0  0  0
    5.6200    3.9387   18.8204 O   0  0  0  0  0  0  0  0  0  0  0  0
    5.3908    4.6662   19.9483 C   0  0  0  0  0  0  0  0  0  0  0  0
    5.2520    6.0144   20.0475 C   0  0  0  0  0  0  0  0  0  0  0  0
    5.0084    6.6610   21.2737 C   0  0  0  0  0  0  0  0  0  0  0  0
    4.9083    5.9097   22.3610 N   0  0  0  0  0  0  0  0  0  0  0  0
    5.0329    4.5601   22.3192 C   0  0  0  0  0  0  0  0  0  0  0  0
    4.8694    3.8569   23.4618 N   0  0  0  0  0  0  0  0  0  0  0  0
    4.9533    2.5158   23.4519 C   0  0  0  0  0  0  0  0  0  0  0  0
    4.7890    1.8512   24.5077 O   0  0  0  0  0  0  0  0  0  0  0  0
    5.2105    1.8755   22.2240 C   0  0  0  0  0  0  0  0  0  0  0  0
    5.3666    2.5781   21.1003 N   0  0  0  0  0  0  0  0  0  0  0  0
    5.2745    3.9218   21.1368 C   0  0  0  0  0  0  0  0  0  0  0  0
    4.6775    4.3535   24.3546 H   0  0  0  0  0  0  0  0  0  0  0  0
   -0.3701    3.5895   10.5489 N   0  0  0  0  0  0  0  0  0  0  0  0
   -1.5953    3.9208   10.0955 N   0  0  0  0  0  0  0  0  0  0  0  0
   -2.2709    4.6104   10.9761 C   0  0  0  0  0  0  0  0  0  0  0  0
   -1.4267    4.7369   12.0608 C   0  0  0  0  0  0  0  0  0  0  0  0
   -0.1823    4.0651   11.7843 C   0  0  0  0  0  0  0  0  0  0  0  0
    2.3729    1.5319    8.0531 C   0  0  0  0  0  0  0  0  0  0  0  0
    1.7110    0.9015    9.0795 C   0  0  0  0  0  0  0  0  0  0  0  0
    0.8052    1.5546    9.8732 C   0  0  0  0  0  0  0  0  0  0  0  0
    0.5030    2.8504    9.6926 C   0  0  0  0  0  0  0  0  0  0  0  0
    1.1658    3.5267    8.6329 C   0  0  0  0  0  0  0  0  0  0  0  0
    2.0858    2.8583    7.8352 C   0  0  0  0  0  0  0  0  0  0  0  0
    2.8431   -0.2205    6.4293 C   0  0  0  0  0  0  0  0  0  0  0  0
    3.3024    0.8701    7.2570 O   0  0  0  0  0  0  0  0  0  0  0  0
   -3.6768    5.1594   10.9372 C   0  0  0  0  0  0  0  0  0  0  0  0
   -4.6754    4.0059   11.0475 C   0  0  0  0  0  0  0  0  0  0  0  0
   -3.9144    6.0863   12.1075 C   0  0  0  0  0  0  0  0  0  0  0  0
   -3.9395    5.9017    9.6817 C   0  0  0  0  0  0  0  0  0  0  0  0
 41 42  1  0  0  0
 42 35  1  0  0  0
 35 36  2  0  0  0
 36 37  1  0  0  0
 37 38  2  0  0  0
 38 39  1  0  0  0
 39 40  2  0  0  0
 38 30  1  0  0  0
 30 31  1  0  0  0
 31 32  2  0  0  0
 32 33  1  0  0  0
 33 34  2  0  0  0
 34  1  1  0  0  0
  1  2  1  0  0  0
  2  3  2  0  0  0
  2  4  1  0  0  0
  4  7  1  0  0  0
  7  8  2  0  0  0
  8  9  1  0  0  0
  9 10  2  0  0  0
 10 17  1  0  0  0
 17 18  1  0  0  0
 18 19  2  0  0  0
 19 20  1  0  0  0
 20 21  2  0  0  0
 21 22  1  0  0  0
 22 23  1  0  0  0
 23 24  1  0  0  0
 24 25  2  0  0  0
 24 26  1  0  0  0
 26 27  2  0  0  0
 27 28  1  0  0  0
 10 11  1  0  0  0
 11 12  2  0  0  0
 12 13  1  0  0  0
 13 14  2  0  0  0
 14 15  1  0  0  0
 15 16  2  0  0  0
 32 43  1  0  0  0
 43 44  1  0  0  0
 43 45  1  0  0  0
 43 46  1  0  0  0
 40 35  1  0  0  0
 34 30  1  0  0  0
 16  7  1  0  0  0
 28 18  1  0  0  0
 16 11  1  0  0  0
 28 22  2  0  0  0
  1  5  1  0  0  0
  4  6  1  0  0  0
 23 29  1  0  0  0
M  END
> <minimizedAffinity>
-9.77881

> <CNNscore>
0.0396722183

> <CNNaffinity>
6.5535535812

> <CNN_VS>
0.2599940002

> <CNNaffinity_variance>
0.2086086571

$$$$
[H]c1nc2c(nc([H])c(=O)n2[H])c(Oc2c([H])c([H])c(N([H])C(=O)N([H])c3c([H])c(C(C([H])([H])[H])(C([H])([H])[H])C([H])([H])[H])nn3-c3c([H])c([H])c(OC([H])([H])[H])c([H])c3[H])c3c([H])c([H])c([H])c([H])c23)c1[H]


 46 51  0  0  0  0  0  0  0  0999 V2000
    4.1748    4.6216   17.7955 N   0  0  0  0  0  0  0  0  0  0  0  0
    2.9385    4.8464   17.0836 C   0  0  0  0  0  0  0  0  0  0  0  0
    1.9169    5.0597   17.7116 O   0  0  0  0  0  0  0  0  0  0  0  0
    2.9284    4.8092   15.6961 N   0  0  0  0  0  0  0  0  0  0  0  0
    5.0427    4.4293   17.1656 H   0  0  0  0  0  0  0  0  0  0  0  0
    1.6004    4.4294   15.7372 H   0  0  0  0  0  0  0  0  0  0  0  0
    2.9107    4.7747   14.3638 C   0  0  0  0  0  0  0  0  0  0  0  0
    3.8461    3.9686   13.6706 C   0  0  0  0  0  0  0  0  0  0  0  0
    3.8534    3.8363   12.3439 C   0  0  0  0  0  0  0  0  0  0  0  0
    2.8964    4.5217   11.5632 C   0  0  0  0  0  0  0  0  0  0  0  0
    1.9906    5.2875   12.1881 C   0  0  0  0  0  0  0  0  0  0  0  0
    1.0302    5.9303   11.4159 C   0  0  0  0  0  0  0  0  0  0  0  0
    0.0618    6.7104   11.9792 C   0  0  0  0  0  0  0  0  0  0  0  0
    0.0514    6.8433   13.3385 C   0  0  0  0  0  0  0  0  0  0  0  0
    0.9972    6.2121   14.1100 C   0  0  0  0  0  0  0  0  0  0  0  0
    1.9852    5.4209   13.5701 C   0  0  0  0  0  0  0  0  0  0  0  0
    3.0718    4.2828   10.2179 O   0  0  0  0  0  0  0  0  0  0  0  0
    4.2300    4.2351    9.5037 C   0  0  0  0  0  0  0  0  0  0  0  0
    5.0370    5.2759    9.1683 C   0  0  0  0  0  0  0  0  0  0  0  0
    6.2220    5.1055    8.4283 C   0  0  0  0  0  0  0  0  0  0  0  0
    6.5497    3.8758    8.0580 N   0  0  0  0  0  0  0  0  0  0  0  0
    5.7845    2.8006    8.3697 C   0  0  0  0  0  0  0  0  0  0  0  0
    6.2092    1.5719    7.9997 N   0  0  0  0  0  0  0  0  0  0  0  0
    5.4933    0.4808    8.3201 C   0  0  0  0  0  0  0  0  0  0  0  0
    5.8870   -0.6685    7.9924 O   0  0  0  0  0  0  0  0  0  0  0  0
    4.3014    0.6591    9.0493 C   0  0  0  0  0  0  0  0  0  0  0  0
    3.8923    1.8759    9.4135 N   0  0  0  0  0  0  0  0  0  0  0  0
    4.6303    2.9535    9.0825 C   0  0  0  0  0  0  0  0  0  0  0  0
    7.0942    1.4673    7.4645 H   0  0  0  0  0  0  0  0  0  0  0  0
    4.5084    5.5289   20.1534 N   0  0  0  0  0  0  0  0  0  0  0  0
    4.6381    4.8927   21.3344 N   0  0  0  0  0  0  0  0  0  0  0  0
    4.6627    3.5944   21.1886 C   0  0  0  0  0  0  0  0  0  0  0  0
    4.5488    3.3813   19.8296 C   0  0  0  0  0  0  0  0  0  0  0  0
    4.4435    4.6476   19.1500 C   0  0  0  0  0  0  0  0  0  0  0  0
    4.6527    9.7675   20.1367 C   0  0  0  0  0  0  0  0  0  0  0  0
    4.0743    9.0564   19.1125 C   0  0  0  0  0  0  0  0  0  0  0  0
    4.0024    7.6884   19.1242 C   0  0  0  0  0  0  0  0  0  0  0  0
    4.4870    6.9576   20.1410 C   0  0  0  0  0  0  0  0  0  0  0  0
    5.0837    7.6662   21.2189 C   0  0  0  0  0  0  0  0  0  0  0  0
    5.1561    9.0532   21.1976 C   0  0  0  0  0  0  0  0  0  0  0  0
    4.9844   11.8096   18.8527 C   0  0  0  0  0  0  0  0  0  0  0  0
    4.7366   11.1561   20.1164 O   0  0  0  0  0  0  0  0  0  0  0  0
    4.7512    2.4847   22.2084 C   0  0  0  0  0  0  0  0  0  0  0  0
    4.5330    3.0626   23.6078 C   0  0  0  0  0  0  0  0  0  0  0  0
    3.6720    1.4548   21.9633 C   0  0  0  0  0  0  0  0  0  0  0  0
    6.0701    1.8100   22.1694 C   0  0  0  0  0  0  0  0  0  0  0  0
 41 42  1  0  0  0
 42 35  1  0  0  0
 35 36  2  0  0  0
 36 37  1  0  0  0
 37 38  2  0  0  0
 38 39  1  0  0  0
 39 40  2  0  0  0
 38 30  1  0  0  0
 30 31  1  0  0  0
 31 32  2  0  0  0
 32 33  1  0  0  0
 33 34  2  0  0  0
 34  1  1  0  0  0
  1  2  1  0  0  0
  2  3  2  0  0  0
  2  4  1  0  0  0
  4  7  1  0  0  0
  7  8  2  0  0  0
  8  9  1  0  0  0
  9 10  2  0  0  0
 10 17  1  0  0  0
 17 18  1  0  0  0
 18 19  2  0  0  0
 19 20  1  0  0  0
 20 21  2  0  0  0
 21 22  1  0  0  0
 22 23  1  0  0  0
 23 24  1  0  0  0
 24 25  2  0  0  0
 24 26  1  0  0  0
 26 27  2  0  0  0
 27 28  1  0  0  0
 10 11  1  0  0  0
 11 12  2  0  0  0
 12 13  1  0  0  0
 13 14  2  0  0  0
 14 15  1  0  0  0
 15 16  2  0  0  0
 32 43  1  0  0  0
 43 44  1  0  0  0
 43 45  1  0  0  0
 43 46  1  0  0  0
 40 35  1  0  0  0
 34 30  1  0  0  0
 16  7  1  0  0  0
 28 18  1  0  0  0
 16 11  1  0  0  0
 28 22  2  0  0  0
  1  5  1  0  0  0
  4  6  1  0  0  0
 23 29  1  0  0  0
M  END
> <minimizedAffinity>
-9.63845

> <CNNscore>
0.0388521440

> <CNNaffinity>
6.4647979736

> <CNN_VS>
0.2511712611

> <CNNaffinity_variance>
0.2745985687

$$$$
[H]c1nc2c(nc([H])c(=O)n2[H])c(Oc2c([H])c([H])c(N([H])C(=O)N([H])c3c([H])c(C(C([H])([H])[H])(C([H])([H])[H])C([H])([H])[H])nn3-c3c([H])c([H])c(OC([H])([H])[H])c([H])c3[H])c3c([H])c([H])c([H])c([H])c23)c1[H]


 46 51  0  0  0  0  0  0  0  0999 V2000
    3.2371    4.4841   17.6312 N   0  0  0  0  0  0  0  0  0  0  0  0
    3.8095    4.2798   16.3211 C   0  0  0  0  0  0  0  0  0  0  0  0
    4.9803    3.9585   16.2233 O   0  0  0  0  0  0  0  0  0  0  0  0
    3.0222    4.4591   15.1921 N   0  0  0  0  0  0  0  0  0  0  0  0
    2.1880    4.7780   17.6369 H   0  0  0  0  0  0  0  0  0  0  0  0
    4.1604    4.7742   14.4746 H   0  0  0  0  0  0  0  0  0  0  0  0
    2.2726    4.6297   14.1033 C   0  0  0  0  0  0  0  0  0  0  0  0
    1.6075    3.5194   13.5287 C   0  0  0  0  0  0  0  0  0  0  0  0
    0.7945    3.6203   12.4767 C   0  0  0  0  0  0  0  0  0  0  0  0
    0.5663    4.8811   11.8823 C   0  0  0  0  0  0  0  0  0  0  0  0
    1.1740    5.9551   12.4063 C   0  0  0  0  0  0  0  0  0  0  0  0
    0.9165    7.1972   11.8380 C   0  0  0  0  0  0  0  0  0  0  0  0
    1.4803    8.3402   12.3273 C   0  0  0  0  0  0  0  0  0  0  0  0
    2.3101    8.2380   13.4073 C   0  0  0  0  0  0  0  0  0  0  0  0
    2.5710    7.0143   13.9753 C   0  0  0  0  0  0  0  0  0  0  0  0
    2.0182    5.8460   13.5032 C   0  0  0  0  0  0  0  0  0  0  0  0
   -0.2797    4.7873   10.7992 O   0  0  0  0  0  0  0  0  0  0  0  0
   -1.6174    5.0336   10.7375 C   0  0  0  0  0  0  0  0  0  0  0  0
   -2.5712    4.6404   11.6221 C   0  0  0  0  0  0  0  0  0  0  0  0
   -3.9318    4.9615   11.4589 C   0  0  0  0  0  0  0  0  0  0  0  0
   -4.2761    5.6795   10.3995 N   0  0  0  0  0  0  0  0  0  0  0  0
   -3.3655    6.1028    9.4881 C   0  0  0  0  0  0  0  0  0  0  0  0
   -3.7854    6.8731    8.4599 N   0  0  0  0  0  0  0  0  0  0  0  0
   -2.9061    7.3378    7.5562 C   0  0  0  0  0  0  0  0  0  0  0  0
   -3.2848    8.0669    6.6031 O   0  0  0  0  0  0  0  0  0  0  0  0
   -1.5478    7.0019    7.7175 C   0  0  0  0  0  0  0  0  0  0  0  0
   -1.1423    6.2441    8.7383 N   0  0  0  0  0  0  0  0  0  0  0  0
   -2.0437    5.7935    9.6326 C   0  0  0  0  0  0  0  0  0  0  0  0
   -4.7933    7.1090    8.3651 H   0  0  0  0  0  0  0  0  0  0  0  0
    4.1619    5.0800   19.9299 N   0  0  0  0  0  0  0  0  0  0  0  0
    4.4861    4.3007   20.9806 N   0  0  0  0  0  0  0  0  0  0  0  0
    4.3561    3.0303   20.7038 C   0  0  0  0  0  0  0  0  0  0  0  0
    3.9283    2.9884   19.3921 C   0  0  0  0  0  0  0  0  0  0  0  0
    3.7966    4.3305   18.8847 C   0  0  0  0  0  0  0  0  0  0  0  0
    4.6972    9.2654   20.3571 C   0  0  0  0  0  0  0  0  0  0  0  0
    4.0861    8.7202   19.2533 C   0  0  0  0  0  0  0  0  0  0  0  0
    3.8880    7.3711   19.1211 C   0  0  0  0  0  0  0  0  0  0  0  0
    4.2728    6.4980   20.0658 C   0  0  0  0  0  0  0  0  0  0  0  0
    4.9002    7.0335   21.2232 C   0  0  0  0  0  0  0  0  0  0  0  0
    5.1010    8.4024   21.3478 C   0  0  0  0  0  0  0  0  0  0  0  0
    4.6376   11.4782   19.3431 C   0  0  0  0  0  0  0  0  0  0  0  0
    4.9095   10.6346   20.4831 O   0  0  0  0  0  0  0  0  0  0  0  0
    4.5605    1.8040   21.5604 C   0  0  0  0  0  0  0  0  0  0  0  0
    4.7258    2.2268   23.0211 C   0  0  0  0  0  0  0  0  0  0  0  0
    3.3549    0.8956   21.4786 C   0  0  0  0  0  0  0  0  0  0  0  0
    5.7605    1.0402   21.1444 C   0  0  0  0  0  0  0  0  0  0  0  0
 41 42  1  0  0  0
 42 35  1  0  0  0
 35 36  2  0  0  0
 36 37  1  0  0  0
 37 38  2  0  0  0
 38 39  1  0  0  0
 39 40  2  0  0  0
 38 30  1  0  0  0
 30 31  1  0  0  0
 31 32  2  0  0  0
 32 33  1  0  0  0
 33 34  2  0  0  0
 34  1  1  0  0  0
  1  2  1  0  0  0
  2  3  2  0  0  0
  2  4  1  0  0  0
  4  7  1  0  0  0
  7  8  2  0  0  0
  8  9  1  0  0  0
  9 10  2  0  0  0
 10 17  1  0  0  0
 17 18  1  0  0  0
 18 19  2  0  0  0
 19 20  1  0  0  0
 20 21  2  0  0  0
 21 22  1  0  0  0
 22 23  1  0  0  0
 23 24  1  0  0  0
 24 25  2  0  0  0
 24 26  1  0  0  0
 26 27  2  0  0  0
 27 28  1  0  0  0
 10 11  1  0  0  0
 11 12  2  0  0  0
 12 13  1  0  0  0
 13 14  2  0  0  0
 14 15  1  0  0  0
 15 16  2  0  0  0
 32 43  1  0  0  0
 43 44  1  0  0  0
 43 45  1  0  0  0
 43 46  1  0  0  0
 40 35  1  0  0  0
 34 30  1  0  0  0
 16  7  1  0  0  0
 28 18  1  0  0  0
 16 11  1  0  0  0
 28 22  2  0  0  0
  1  5  1  0  0  0
  4  6  1  0  0  0
 23 29  1  0  0  0
M  END
> <minimizedAffinity>
-9.98479

> <CNNscore>
0.0388134308

> <CNNaffinity>
6.2903013229

> <CNN_VS>
0.2441481799

> <CNNaffinity_variance>
0.2611116171

$$$$
[H]c1nc2c(nc([H])c(=O)n2[H])c(Oc2c([H])c([H])c(N([H])C(=O)N([H])c3c([H])c(C(C([H])([H])[H])(C([H])([H])[H])C([H])([H])[H])nn3-c3c([H])c([H])c(OC([H])([H])[H])c([H])c3[H])c3c([H])c([H])c([H])c([H])c23)c1[H]


 46 51  0  0  0  0  0  0  0  0999 V2000
    3.4780    4.3316   18.0692 N   0  0  0  0  0  0  0  0  0  0  0  0
    3.8910    3.6527   16.8633 C   0  0  0  0  0  0  0  0  0  0  0  0
    4.9263    3.0110   16.8628 O   0  0  0  0  0  0  0  0  0  0  0  0
    3.1089    3.7460   15.7204 N   0  0  0  0  0  0  0  0  0  0  0  0
    2.5467    4.8914   17.9890 H   0  0  0  0  0  0  0  0  0  0  0  0
    4.2417    3.5459   14.9547 H   0  0  0  0  0  0  0  0  0  0  0  0
    2.3633    3.8311   14.6189 C   0  0  0  0  0  0  0  0  0  0  0  0
    1.8806    2.6495   14.0057 C   0  0  0  0  0  0  0  0  0  0  0  0
    1.0820    2.6555   12.9381 C   0  0  0  0  0  0  0  0  0  0  0  0
    0.6815    3.8832   12.3658 C   0  0  0  0  0  0  0  0  0  0  0  0
    1.1138    5.0217   12.9264 C   0  0  0  0  0  0  0  0  0  0  0  0
    0.6866    6.2260   12.3793 C   0  0  0  0  0  0  0  0  0  0  0  0
    1.0660    7.4271   12.9056 C   0  0  0  0  0  0  0  0  0  0  0  0
    1.8809    7.4217   14.0016 C   0  0  0  0  0  0  0  0  0  0  0  0
    2.3088    6.2361   14.5490 C   0  0  0  0  0  0  0  0  0  0  0  0
    1.9437    5.0111   14.0395 C   0  0  0  0  0  0  0  0  0  0  0  0
   -0.1205    3.6925   11.2622 O   0  0  0  0  0  0  0  0  0  0  0  0
    0.1940    3.8309    9.9447 C   0  0  0  0  0  0  0  0  0  0  0  0
    1.2188    3.2420    9.2740 C   0  0  0  0  0  0  0  0  0  0  0  0
    1.4445    3.4542    7.9011 C   0  0  0  0  0  0  0  0  0  0  0  0
    0.6128    4.2575    7.2535 N   0  0  0  0  0  0  0  0  0  0  0  0
   -0.4292    4.8670    7.8714 C   0  0  0  0  0  0  0  0  0  0  0  0
   -1.2636    5.6332    7.1343 N   0  0  0  0  0  0  0  0  0  0  0  0
   -2.3252    6.2257    7.7066 C   0  0  0  0  0  0  0  0  0  0  0  0
   -3.1158    6.9297    7.0264 O   0  0  0  0  0  0  0  0  0  0  0  0
   -2.5381    6.0203    9.0837 C   0  0  0  0  0  0  0  0  0  0  0  0
   -1.7109    5.2589    9.8024 N   0  0  0  0  0  0  0  0  0  0  0  0
   -0.6554    4.6732    9.2037 C   0  0  0  0  0  0  0  0  0  0  0  0
   -1.0858    5.7665    6.1188 H   0  0  0  0  0  0  0  0  0  0  0  0
    4.3869    5.2409   20.2695 N   0  0  0  0  0  0  0  0  0  0  0  0
    4.7633    4.6082   21.3984 N   0  0  0  0  0  0  0  0  0  0  0  0
    4.7027    3.3091   21.2725 C   0  0  0  0  0  0  0  0  0  0  0  0
    4.2670    3.0913   19.9809 C   0  0  0  0  0  0  0  0  0  0  0  0
    4.0556    4.3560   19.3236 C   0  0  0  0  0  0  0  0  0  0  0  0
    4.6866    9.4711   20.2178 C   0  0  0  0  0  0  0  0  0  0  0  0
    4.1814    8.7656   19.1519 C   0  0  0  0  0  0  0  0  0  0  0  0
    4.0588    7.4013   19.1724 C   0  0  0  0  0  0  0  0  0  0  0  0
    4.4188    6.6691   20.2388 C   0  0  0  0  0  0  0  0  0  0  0  0
    4.9372    7.3722   21.3599 C   0  0  0  0  0  0  0  0  0  0  0  0
    5.0618    8.7554   21.3296 C   0  0  0  0  0  0  0  0  0  0  0  0
    4.1297   11.5915   19.1585 C   0  0  0  0  0  0  0  0  0  0  0  0
    4.8227   10.8554   20.1895 O   0  0  0  0  0  0  0  0  0  0  0  0
    4.9830    2.2038   22.2621 C   0  0  0  0  0  0  0  0  0  0  0  0
    6.3840    1.6425   22.0128 C   0  0  0  0  0  0  0  0  0  0  0  0
    4.9471    2.7388   23.6755 C   0  0  0  0  0  0  0  0  0  0  0  0
    3.9982    1.1026   22.1453 C   0  0  0  0  0  0  0  0  0  0  0  0
 41 42  1  0  0  0
 42 35  1  0  0  0
 35 36  2  0  0  0
 36 37  1  0  0  0
 37 38  2  0  0  0
 38 39  1  0  0  0
 39 40  2  0  0  0
 38 30  1  0  0  0
 30 31  1  0  0  0
 31 32  2  0  0  0
 32 33  1  0  0  0
 33 34  2  0  0  0
 34  1  1  0  0  0
  1  2  1  0  0  0
  2  3  2  0  0  0
  2  4  1  0  0  0
  4  7  1  0  0  0
  7  8  2  0  0  0
  8  9  1  0  0  0
  9 10  2  0  0  0
 10 17  1  0  0  0
 17 18  1  0  0  0
 18 19  2  0  0  0
 19 20  1  0  0  0
 20 21  2  0  0  0
 21 22  1  0  0  0
 22 23  1  0  0  0
 23 24  1  0  0  0
 24 25  2  0  0  0
 24 26  1  0  0  0
 26 27  2  0  0  0
 27 28  1  0  0  0
 10 11  1  0  0  0
 11 12  2  0  0  0
 12 13  1  0  0  0
 13 14  2  0  0  0
 14 15  1  0  0  0
 15 16  2  0  0  0
 32 43  1  0  0  0
 43 44  1  0  0  0
 43 45  1  0  0  0
 43 46  1  0  0  0
 40 35  1  0  0  0
 34 30  1  0  0  0
 16  7  1  0  0  0
 28 18  1  0  0  0
 16 11  1  0  0  0
 28 22  2  0  0  0
  1  5  1  0  0  0
  4  6  1  0  0  0
 23 29  1  0  0  0
M  END
> <minimizedAffinity>
-9.19645

> <CNNscore>
0.0339246206

> <CNNaffinity>
6.3525400162

> <CNN_VS>
0.2155075073

> <CNNaffinity_variance>
0.3651648164

$$$$
[H]OC(=O)c1c([H])nc(-c2c([H])nc(C([H])([H])[H])nc2OC([H])([H])[C@@]2([H])C([H])([H])[C@]2([H])c2nc([H])c(OC([H])([H])[H])c([H])c2[H])c([H])c1[H]


 30 33  0  0  0  0  0  0  0  0999 V2000
    3.6819    3.4431   15.6968 C   0  0  0  0  0  0  0  0  0  0  0  0
    4.1213    3.3049   16.9853 N   0  0  0  0  0  0  0  0  0  0  0  0
    3.9873    2.1674   17.6639 C   0  0  0  0  0  0  0  0  0  0  0  0
    4.4797    2.0466   19.0784 C   0  0  0  0  0  0  0  0  0  0  0  0
    3.3998    1.1279   17.0533 N   0  0  0  0  0  0  0  0  0  0  0  0
    2.9584    1.2213   15.8009 C   0  0  0  0  0  0  0  0  0  0  0  0
    3.0827    2.4090   15.0516 C   0  0  0  0  0  0  0  0  0  0  0  0
    2.5849    2.4162   13.6753 C   0  0  0  0  0  0  0  0  0  0  0  0
    1.3942    1.9043   13.2754 C   0  0  0  0  0  0  0  0  0  0  0  0
    0.9694    1.9193   11.9395 C   0  0  0  0  0  0  0  0  0  0  0  0
    1.7933    2.4740   11.0028 C   0  0  0  0  0  0  0  0  0  0  0  0
    2.9841    2.9780   11.4481 C   0  0  0  0  0  0  0  0  0  0  0  0
    3.3854    2.9643   12.7088 N   0  0  0  0  0  0  0  0  0  0  0  0
    1.4030    2.5185    9.5877 C   0  0  0  0  0  0  0  0  0  0  0  0
    2.3320    2.6430    8.5828 O   0  0  0  0  0  0  0  0  0  0  0  0
    0.1831    2.4398    9.2954 O   0  0  0  0  0  0  0  0  0  0  0  0
    2.0583    2.7826    7.6410 H   0  0  0  0  0  0  0  0  0  0  0  0
    3.8585    4.6467   15.0652 O   0  0  0  0  0  0  0  0  0  0  0  0
    3.2493    5.8634   15.3428 C   0  0  0  0  0  0  0  0  0  0  0  0
    2.0424    6.1603   13.1259 C   0  0  0  0  0  0  0  0  0  0  0  0
    1.8899    7.4624   13.9165 C   0  0  0  0  0  0  0  0  0  0  0  0
    1.9586    6.1131   14.6006 C   0  0  0  0  0  0  0  0  0  0  0  0
   -1.4197    5.2169   10.8436 C   0  0  0  0  0  0  0  0  0  0  0  0
   -1.3546    4.8929   12.1806 C   0  0  0  0  0  0  0  0  0  0  0  0
   -0.1965    5.2245   12.8840 C   0  0  0  0  0  0  0  0  0  0  0  0
    0.8666    5.8582   12.2818 C   0  0  0  0  0  0  0  0  0  0  0  0
    0.7675    6.1583   10.9784 N   0  0  0  0  0  0  0  0  0  0  0  0
   -0.3368    5.8541   10.2626 C   0  0  0  0  0  0  0  0  0  0  0  0
   -3.7243    5.6823   10.1881 C   0  0  0  0  0  0  0  0  0  0  0  0
   -2.5424    4.9136   10.0916 O   0  0  0  0  0  0  0  0  0  0  0  0
 29 30  1  0  0  0
 30 23  1  0  0  0
 23 24  2  0  0  0
 24 25  1  0  0  0
 25 26  2  0  0  0
 26 27  1  0  0  0
 27 28  2  0  0  0
 26 20  1  0  0  0
 20 21  1  0  0  0
 21 22  1  0  0  0
 22 19  1  0  0  0
 19 18  1  0  0  0
 18  1  1  0  0  0
  1  2  2  0  0  0
  2  3  1  0  0  0
  3  4  1  0  0  0
  3  5  2  0  0  0
  5  6  1  0  0  0
  6  7  2  0  0  0
  7  8  1  0  0  0
  8  9  2  0  0  0
  9 10  1  0  0  0
 10 11  2  0  0  0
 11 12  1  0  0  0
 12 13  2  0  0  0
 11 14  1  0  0  0
 14 15  1  0  0  0
 14 16  2  0  0  0
 28 23  1  0  0  0
 22 20  1  0  0  0
  7  1  1  0  0  0
 13  8  1  0  0  0
 15 17  1  0  0  0
M  END
> <minimizedAffinity>
-5.59110

> <CNNscore>
0.4150527418

> <CNNaffinity>
5.8847012520

> <CNN_VS>
2.4424614906

> <CNNaffinity_variance>
0.3283585906

$$$$
[H]OC(=O)c1c([H])nc(-c2c([H])nc(C([H])([H])[H])nc2OC([H])([H])[C@@]2([H])C([H])([H])[C@]2([H])c2nc([H])c(OC([H])([H])[H])c([H])c2[H])c([H])c1[H]


 30 33  0  0  0  0  0  0  0  0999 V2000
    3.9863    3.3043   16.9341 C   0  0  0  0  0  0  0  0  0  0  0  0
    4.2077    2.9319   18.2320 N   0  0  0  0  0  0  0  0  0  0  0  0
    3.9883    1.6915   18.6629 C   0  0  0  0  0  0  0  0  0  0  0  0
    4.2406    1.3131   20.0950 C   0  0  0  0  0  0  0  0  0  0  0  0
    3.5345    0.7843   17.7857 N   0  0  0  0  0  0  0  0  0  0  0  0
    3.3061    1.1062   16.5144 C   0  0  0  0  0  0  0  0  0  0  0  0
    3.5265    2.4088   16.0222 C   0  0  0  0  0  0  0  0  0  0  0  0
    3.2651    2.6686   14.6059 C   0  0  0  0  0  0  0  0  0  0  0  0
    2.4258    1.9452   13.8236 C   0  0  0  0  0  0  0  0  0  0  0  0
    2.2224    2.2236   12.4647 C   0  0  0  0  0  0  0  0  0  0  0  0
    2.9011    3.2693   11.9079 C   0  0  0  0  0  0  0  0  0  0  0  0
    3.7369    3.9719   12.7312 C   0  0  0  0  0  0  0  0  0  0  0  0
    3.9291    3.7097   14.0138 N   0  0  0  0  0  0  0  0  0  0  0  0
    2.7294    3.6090   10.4895 C   0  0  0  0  0  0  0  0  0  0  0  0
    3.6741    4.3268    9.7963 O   0  0  0  0  0  0  0  0  0  0  0  0
    1.6865    3.2289    9.8998 O   0  0  0  0  0  0  0  0  0  0  0  0
    3.5053    4.6469    8.8741 H   0  0  0  0  0  0  0  0  0  0  0  0
    4.2383    4.6009   16.5676 O   0  0  0  0  0  0  0  0  0  0  0  0
    3.6661    5.7641   17.0656 C   0  0  0  0  0  0  0  0  0  0  0  0
    4.3563    6.2421   19.4644 C   0  0  0  0  0  0  0  0  0  0  0  0
    3.7747    7.5329   18.8818 C   0  0  0  0  0  0  0  0  0  0  0  0
    4.5337    6.5391   18.0276 C   0  0  0  0  0  0  0  0  0  0  0  0
    7.6000    6.9330   22.1263 C   0  0  0  0  0  0  0  0  0  0  0  0
    7.8303    6.7155   20.7860 C   0  0  0  0  0  0  0  0  0  0  0  0
    6.7316    6.4941   19.9555 C   0  0  0  0  0  0  0  0  0  0  0  0
    5.4423    6.4878   20.4372 C   0  0  0  0  0  0  0  0  0  0  0  0
    5.2565    6.7033   21.7479 N   0  0  0  0  0  0  0  0  0  0  0  0
    6.2939    6.9217   22.5847 C   0  0  0  0  0  0  0  0  0  0  0  0
    9.6437    6.1801   23.2281 C   0  0  0  0  0  0  0  0  0  0  0  0
    8.6496    7.1585   23.0014 O   0  0  0  0  0  0  0  0  0  0  0  0
 29 30  1  0  0  0
 30 23  1  0  0  0
 23 24  2  0  0  0
 24 25  1  0  0  0
 25 26  2  0  0  0
 26 27  1  0  0  0
 27 28  2  0  0  0
 26 20  1  0  0  0
 20 21  1  0  0  0
 21 22  1  0  0  0
 22 19  1  0  0  0
 19 18  1  0  0  0
 18  1  1  0  0  0
  1  2  2  0  0  0
  2  3  1  0  0  0
  3  4  1  0  0  0
  3  5  2  0  0  0
  5  6  1  0  0  0
  6  7  2  0  0  0
  7  8  1  0  0  0
  8  9  2  0  0  0
  9 10  1  0  0  0
 10 11  2  0  0  0
 11 12  1  0  0  0
 12 13  2  0  0  0
 11 14  1  0  0  0
 14 15  1  0  0  0
 14 16  2  0  0  0
 28 23  1  0  0  0
 22 20  1  0  0  0
  7  1  1  0  0  0
 13  8  1  0  0  0
 15 17  1  0  0  0
M  END
> <minimizedAffinity>
-6.82548

> <CNNscore>
0.3963974714

> <CNNaffinity>
6.2150130272

> <CNN_VS>
2.4636154175

> <CNNaffinity_variance>
0.7037823200

$$$$
[H]OC(=O)c1c([H])nc(-c2c([H])nc(C([H])([H])[H])nc2OC([H])([H])[C@@]2([H])C([H])([H])[C@]2([H])c2nc([H])c(OC([H])([H])[H])c([H])c2[H])c([H])c1[H]


 30 33  0  0  0  0  0  0  0  0999 V2000
    4.0395    3.0979   17.7903 C   0  0  0  0  0  0  0  0  0  0  0  0
    3.6761    2.9781   16.4765 N   0  0  0  0  0  0  0  0  0  0  0  0
    3.3424    1.8086   15.9350 C   0  0  0  0  0  0  0  0  0  0  0  0
    2.9480    1.7092   14.4885 C   0  0  0  0  0  0  0  0  0  0  0  0
    3.3670    0.7170   16.7136 N   0  0  0  0  0  0  0  0  0  0  0  0
    3.7151    0.7907   17.9964 C   0  0  0  0  0  0  0  0  0  0  0  0
    4.0747    2.0110   18.6040 C   0  0  0  0  0  0  0  0  0  0  0  0
    4.4265    2.0013   20.0246 C   0  0  0  0  0  0  0  0  0  0  0  0
    5.6455    2.3199   20.5270 C   0  0  0  0  0  0  0  0  0  0  0  0
    5.9386    2.2779   21.8973 C   0  0  0  0  0  0  0  0  0  0  0  0
    4.9513    1.8987   22.7607 C   0  0  0  0  0  0  0  0  0  0  0  0
    3.7380    1.5857   22.2130 C   0  0  0  0  0  0  0  0  0  0  0  0
    3.4607    1.6254   20.9198 N   0  0  0  0  0  0  0  0  0  0  0  0
    5.1987    1.8353   24.2070 C   0  0  0  0  0  0  0  0  0  0  0  0
    6.3194    2.3910   24.7759 O   0  0  0  0  0  0  0  0  0  0  0  0
    4.3573    1.2550   24.9384 O   0  0  0  0  0  0  0  0  0  0  0  0
    6.5363    2.2512   25.7324 H   0  0  0  0  0  0  0  0  0  0  0  0
    4.3676    4.3379   18.2736 O   0  0  0  0  0  0  0  0  0  0  0  0
    3.5649    5.4675   18.3648 C   0  0  0  0  0  0  0  0  0  0  0  0
    5.0377    6.1615   20.3163 C   0  0  0  0  0  0  0  0  0  0  0  0
    3.8277    5.4180   20.8882 C   0  0  0  0  0  0  0  0  0  0  0  0
    3.7297    6.2644   19.6362 C   0  0  0  0  0  0  0  0  0  0  0  0
    6.3277    9.3713   22.7899 C   0  0  0  0  0  0  0  0  0  0  0  0
    5.3731    9.5776   21.8189 C   0  0  0  0  0  0  0  0  0  0  0  0
    4.9846    8.4914   21.0345 C   0  0  0  0  0  0  0  0  0  0  0  0
    5.5254    7.2373   21.2057 C   0  0  0  0  0  0  0  0  0  0  0  0
    6.4524    7.0740   22.1611 N   0  0  0  0  0  0  0  0  0  0  0  0
    6.8551    8.1004   22.9413 C   0  0  0  0  0  0  0  0  0  0  0  0
    8.1022   10.5174   24.0126 C   0  0  0  0  0  0  0  0  0  0  0  0
    6.7549   10.4100   23.6002 O   0  0  0  0  0  0  0  0  0  0  0  0
 29 30  1  0  0  0
 30 23  1  0  0  0
 23 24  2  0  0  0
 24 25  1  0  0  0
 25 26  2  0  0  0
 26 27  1  0  0  0
 27 28  2  0  0  0
 26 20  1  0  0  0
 20 21  1  0  0  0
 21 22  1  0  0  0
 22 19  1  0  0  0
 19 18  1  0  0  0
 18  1  1  0  0  0
  1  2  2  0  0  0
  2  3  1  0  0  0
  3  4  1  0  0  0
  3  5  2  0  0  0
  5  6  1  0  0  0
  6  7  2  0  0  0
  7  8  1  0  0  0
  8  9  2  0  0  0
  9 10  1  0  0  0
 10 11  2  0  0  0
 11 12  1  0  0  0
 12 13  2  0  0  0
 11 14  1  0  0  0
 14 15  1  0  0  0
 14 16  2  0  0  0
 28 23  1  0  0  0
 22 20  1  0  0  0
  7  1  1  0  0  0
 13  8  1  0  0  0
 15 17  1  0  0  0
M  END
> <minimizedAffinity>
-8.44384

> <CNNscore>
0.3429737389

> <CNNaffinity>
6.3293776512

> <CNN_VS>
2.1708102226

> <CNNaffinity_variance>
0.3384421468

$$$$
[H]OC(=O)c1c([H])nc(-c2c([H])nc(C([H])([H])[H])nc2OC([H])([H])[C@@]2([H])C([H])([H])[C@]2([H])c2nc([H])c(OC([H])([H])[H])c([H])c2[H])c([H])c1[H]


 30 33  0  0  0  0  0  0  0  0999 V2000
    4.1338    3.3709   16.3377 C   0  0  0  0  0  0  0  0  0  0  0  0
    3.7101    3.2266   15.0447 N   0  0  0  0  0  0  0  0  0  0  0  0
    3.0196    2.1638   14.6373 C   0  0  0  0  0  0  0  0  0  0  0  0
    2.5684    2.0337   13.2100 C   0  0  0  0  0  0  0  0  0  0  0  0
    2.7354    1.2080   15.5340 N   0  0  0  0  0  0  0  0  0  0  0  0
    3.1295    1.3101   16.8014 C   0  0  0  0  0  0  0  0  0  0  0  0
    3.8621    2.4202   17.2689 C   0  0  0  0  0  0  0  0  0  0  0  0
    4.2387    2.4572   18.6826 C   0  0  0  0  0  0  0  0  0  0  0  0
    4.7842    1.4232   19.3704 C   0  0  0  0  0  0  0  0  0  0  0  0
    5.1117    1.5027   20.7312 C   0  0  0  0  0  0  0  0  0  0  0  0
    4.8690    2.6738   21.3897 C   0  0  0  0  0  0  0  0  0  0  0  0
    4.3181    3.6904   20.6596 C   0  0  0  0  0  0  0  0  0  0  0  0
    4.0091    3.6161   19.3752 N   0  0  0  0  0  0  0  0  0  0  0  0
    5.1905    2.8169   22.8155 C   0  0  0  0  0  0  0  0  0  0  0  0
    6.0481    3.7891   23.2714 O   0  0  0  0  0  0  0  0  0  0  0  0
    4.6626    2.0243   23.6358 O   0  0  0  0  0  0  0  0  0  0  0  0
    6.3466    3.8128   24.2157 H   0  0  0  0  0  0  0  0  0  0  0  0
    4.8385    4.4959   16.6793 O   0  0  0  0  0  0  0  0  0  0  0  0
    4.4778    5.8254   16.5039 C   0  0  0  0  0  0  0  0  0  0  0  0
    4.3097    7.2130   18.6266 C   0  0  0  0  0  0  0  0  0  0  0  0
    4.5114    8.1777   17.4550 C   0  0  0  0  0  0  0  0  0  0  0  0
    5.1233    6.7924   17.4668 C   0  0  0  0  0  0  0  0  0  0  0  0
    6.2430    8.4243   22.2154 C   0  0  0  0  0  0  0  0  0  0  0  0
    6.6329    7.2742   21.5657 C   0  0  0  0  0  0  0  0  0  0  0  0
    5.9664    6.9215   20.3921 C   0  0  0  0  0  0  0  0  0  0  0  0
    4.9435    7.6845   19.8764 C   0  0  0  0  0  0  0  0  0  0  0  0
    4.5912    8.7978   20.5361 N   0  0  0  0  0  0  0  0  0  0  0  0
    5.2119    9.1735   21.6754 C   0  0  0  0  0  0  0  0  0  0  0  0
    7.8168    8.0075   24.0339 C   0  0  0  0  0  0  0  0  0  0  0  0
    6.8660    8.8270   23.3849 O   0  0  0  0  0  0  0  0  0  0  0  0
 29 30  1  0  0  0
 30 23  1  0  0  0
 23 24  2  0  0  0
 24 25  1  0  0  0
 25 26  2  0  0  0
 26 27  1  0  0  0
 27 28  2  0  0  0
 26 20  1  0  0  0
 20 21  1  0  0  0
 21 22  1  0  0  0
 22 19  1  0  0  0
 19 18  1  0  0  0
 18  1  1  0  0  0
  1  2  2  0  0  0
  2  3  1  0  0  0
  3  4  1  0  0  0
  3  5  2  0  0  0
  5  6  1  0  0  0
  6  7  2  0  0  0
  7  8  1  0  0  0
  8  9  2  0  0  0
  9 10  1  0  0  0
 10 11  2  0  0  0
 11 12  1  0  0  0
 12 13  2  0  0  0
 11 14  1  0  0  0
 14 15  1  0  0  0
 14 16  2  0  0  0
 28 23  1  0  0  0
 22 20  1  0  0  0
  7  1  1  0  0  0
 13  8  1  0  0  0
 15 17  1  0  0  0
M  END
> <minimizedAffinity>
-7.75150

> <CNNscore>
0.3130620420

> <CNNaffinity>
6.1577482224

> <CNN_VS>
1.9277572632

> <CNNaffinity_variance>
0.4136827588

$$$$
[H]OC(=O)c1c([H])nc(-c2c([H])nc(C([H])([H])[H])nc2OC([H])([H])[C@@]2([H])C([H])([H])[C@]2([H])c2nc([H])c(OC([H])([H])[H])c([H])c2[H])c([H])c1[H]


 30 33  0  0  0  0  0  0  0  0999 V2000
    5.0316    2.5392   20.6349 C   0  0  0  0  0  0  0  0  0  0  0  0
    5.2348    1.9684   21.8619 N   0  0  0  0  0  0  0  0  0  0  0  0
    5.2959    2.6888   22.9797 C   0  0  0  0  0  0  0  0  0  0  0  0
    5.5207    2.0328   24.3127 C   0  0  0  0  0  0  0  0  0  0  0  0
    5.1523    4.0190   22.8878 N   0  0  0  0  0  0  0  0  0  0  0  0
    4.9533    4.6132   21.7134 C   0  0  0  0  0  0  0  0  0  0  0  0
    4.8829    3.8834   20.5092 C   0  0  0  0  0  0  0  0  0  0  0  0
    4.6437    4.6177   19.2660 C   0  0  0  0  0  0  0  0  0  0  0  0
    5.5966    4.9384   18.3556 C   0  0  0  0  0  0  0  0  0  0  0  0
    5.3197    5.6603   17.1862 C   0  0  0  0  0  0  0  0  0  0  0  0
    4.0333    6.0565   16.9574 C   0  0  0  0  0  0  0  0  0  0  0  0
    3.1041    5.7129   17.9001 C   0  0  0  0  0  0  0  0  0  0  0  0
    3.3649    5.0314   19.0039 N   0  0  0  0  0  0  0  0  0  0  0  0
    3.6822    6.8156   15.7502 C   0  0  0  0  0  0  0  0  0  0  0  0
    2.4704    6.6582   15.1216 O   0  0  0  0  0  0  0  0  0  0  0  0
    4.5186    7.6302   15.2850 O   0  0  0  0  0  0  0  0  0  0  0  0
    2.2813    7.0886   14.2496 H   0  0  0  0  0  0  0  0  0  0  0  0
    4.9791    1.7286   19.5308 O   0  0  0  0  0  0  0  0  0  0  0  0
    3.8635    1.1551   18.9349 C   0  0  0  0  0  0  0  0  0  0  0  0
    2.6447    1.5704   16.7438 C   0  0  0  0  0  0  0  0  0  0  0  0
    2.9988    0.0822   16.8041 C   0  0  0  0  0  0  0  0  0  0  0  0
    3.8840    1.1423   17.4255 C   0  0  0  0  0  0  0  0  0  0  0  0
    2.8752    3.2370   12.8381 C   0  0  0  0  0  0  0  0  0  0  0  0
    3.7674    3.6199   13.8148 C   0  0  0  0  0  0  0  0  0  0  0  0
    3.6487    3.0430   15.0793 C   0  0  0  0  0  0  0  0  0  0  0  0
    2.6752    2.1142   15.3691 C   0  0  0  0  0  0  0  0  0  0  0  0
    1.8240    1.7655   14.3931 N   0  0  0  0  0  0  0  0  0  0  0  0
    1.9061    2.3010   13.1558 C   0  0  0  0  0  0  0  0  0  0  0  0
    2.3224    3.1399   10.4627 C   0  0  0  0  0  0  0  0  0  0  0  0
    2.9416    3.7742   11.5633 O   0  0  0  0  0  0  0  0  0  0  0  0
 29 30  1  0  0  0
 30 23  1  0  0  0
 23 24  2  0  0  0
 24 25  1  0  0  0
 25 26  2  0  0  0
 26 27  1  0  0  0
 27 28  2  0  0  0
 26 20  1  0  0  0
 20 21  1  0  0  0
 21 22  1  0  0  0
 22 19  1  0  0  0
 19 18  1  0  0  0
 18  1  1  0  0  0
  1  2  2  0  0  0
  2  3  1  0  0  0
  3  4  1  0  0  0
  3  5  2  0  0  0
  5  6  1  0  0  0
  6  7  2  0  0  0
  7  8  1  0  0  0
  8  9  2  0  0  0
  9 10  1  0  0  0
 10 11  2  0  0  0
 11 12  1  0  0  0
 12 13  2  0  0  0
 11 14  1  0  0  0
 14 15  1  0  0  0
 14 16  2  0  0  0
 28 23  1  0  0  0
 22 20  1  0  0  0
  7  1  1  0  0  0
 13  8  1  0  0  0
 15 17  1  0  0  0
M  END
> <minimizedAffinity>
-7.59933

> <CNNscore>
0.2867837250

> <CNNaffinity>
5.8897552490

> <CNN_VS>
1.6890859604

> <CNNaffinity_variance>
0.6850500107

$$$$
[H]OC(=O)c1c([H])nc(-c2c([H])nc(C([H])([H])[H])nc2OC([H])([H])[C@@]2([H])C([H])([H])[C@]2([H])c2nc([H])c(OC([H])([H])[H])c([H])c2[H])c([H])c1[H]


 30 33  0  0  0  0  0  0  0  0999 V2000
    4.7682    2.7599   20.2531 C   0  0  0  0  0  0  0  0  0  0  0  0
    4.2337    1.5033   20.1650 N   0  0  0  0  0  0  0  0  0  0  0  0
    3.7246    0.8717   21.2205 C   0  0  0  0  0  0  0  0  0  0  0  0
    3.1449   -0.5086   21.0919 C   0  0  0  0  0  0  0  0  0  0  0  0
    3.7417    1.4984   22.4060 N   0  0  0  0  0  0  0  0  0  0  0  0
    4.2528    2.7209   22.5342 C   0  0  0  0  0  0  0  0  0  0  0  0
    4.8005    3.4203   21.4395 C   0  0  0  0  0  0  0  0  0  0  0  0
    5.3245    4.7674   21.6691 C   0  0  0  0  0  0  0  0  0  0  0  0
    6.5800    5.0521   22.0962 C   0  0  0  0  0  0  0  0  0  0  0  0
    7.0296    6.3612   22.3188 C   0  0  0  0  0  0  0  0  0  0  0  0
    6.1627    7.3919   22.0951 C   0  0  0  0  0  0  0  0  0  0  0  0
    4.9072    7.0612   21.6657 C   0  0  0  0  0  0  0  0  0  0  0  0
    4.4823    5.8259   21.4552 N   0  0  0  0  0  0  0  0  0  0  0  0
    6.5762    8.7845   22.3112 C   0  0  0  0  0  0  0  0  0  0  0  0
    6.0819    9.5347   23.3509 O   0  0  0  0  0  0  0  0  0  0  0  0
    7.4060    9.2975   21.5186 O   0  0  0  0  0  0  0  0  0  0  0  0
    6.2784   10.5026   23.4283 H   0  0  0  0  0  0  0  0  0  0  0  0
    5.2712    3.3438   19.1196 O   0  0  0  0  0  0  0  0  0  0  0  0
    4.5944    4.0811   18.1568 C   0  0  0  0  0  0  0  0  0  0  0  0
    3.3280    3.1243   16.1719 C   0  0  0  0  0  0  0  0  0  0  0  0
    4.2569    2.0291   16.7027 C   0  0  0  0  0  0  0  0  0  0  0  0
    4.6293    3.4957   16.7658 C   0  0  0  0  0  0  0  0  0  0  0  0
    2.9193    3.0850   11.9391 C   0  0  0  0  0  0  0  0  0  0  0  0
    3.7645    3.9838   12.5511 C   0  0  0  0  0  0  0  0  0  0  0  0
    3.8624    3.9550   13.9423 C   0  0  0  0  0  0  0  0  0  0  0  0
    3.1446    3.0629   14.7060 C   0  0  0  0  0  0  0  0  0  0  0  0
    2.3316    2.2025   14.0755 N   0  0  0  0  0  0  0  0  0  0  0  0
    2.2092    2.1985   12.7304 C   0  0  0  0  0  0  0  0  0  0  0  0
    3.4037    4.0314    9.7421 C   0  0  0  0  0  0  0  0  0  0  0  0
    2.7788    3.0645   10.5615 O   0  0  0  0  0  0  0  0  0  0  0  0
 29 30  1  0  0  0
 30 23  1  0  0  0
 23 24  2  0  0  0
 24 25  1  0  0  0
 25 26  2  0  0  0
 26 27  1  0  0  0
 27 28  2  0  0  0
 26 20  1  0  0  0
 20 21  1  0  0  0
 21 22  1  0  0  0
 22 19  1  0  0  0
 19 18  1  0  0  0
 18  1  1  0  0  0
  1  2  2  0  0  0
  2  3  1  0  0  0
  3  4  1  0  0  0
  3  5  2  0  0  0
  5  6  1  0  0  0
  6  7  2  0  0  0
  7  8  1  0  0  0
  8  9  2  0  0  0
  9 10  1  0  0  0
 10 11  2  0  0  0
 11 12  1  0  0  0
 12 13  2  0  0  0
 11 14  1  0  0  0
 14 15  1  0  0  0
 14 16  2  0  0  0
 28 23  1  0  0  0
 22 20  1  0  0  0
  7  1  1  0  0  0
 13  8  1  0  0  0
 15 17  1  0  0  0
M  END
> <minimizedAffinity>
-7.55920

> <CNNscore>
0.2532207072

> <CNNaffinity>
6.2780041695

> <CNN_VS>
1.5897206068

> <CNNaffinity_variance>
0.5441603065

$$$$
[H]OC(=O)c1c([H])nc(-c2c([H])nc(C([H])([H])[H])nc2OC([H])([H])[C@@]2([H])C([H])([H])[C@]2([H])c2nc([H])c(OC([H])([H])[H])c([H])c2[H])c([H])c1[H]


 30 33  0  0  0  0  0  0  0  0999 V2000
    4.5797    3.0815   16.8839 C   0  0  0  0  0  0  0  0  0  0  0  0
    4.1779    2.9895   15.5791 N   0  0  0  0  0  0  0  0  0  0  0  0
    3.2143    2.1580   15.1889 C   0  0  0  0  0  0  0  0  0  0  0  0
    2.7954    2.0794   13.7480 C   0  0  0  0  0  0  0  0  0  0  0  0
    2.6241    1.3888   16.1155 N   0  0  0  0  0  0  0  0  0  0  0  0
    2.9858    1.4478   17.3952 C   0  0  0  0  0  0  0  0  0  0  0  0
    4.0018    2.3155   17.8452 C   0  0  0  0  0  0  0  0  0  0  0  0
    4.3221    2.3269   19.2732 C   0  0  0  0  0  0  0  0  0  0  0  0
    4.8407    1.2806   19.9631 C   0  0  0  0  0  0  0  0  0  0  0  0
    5.1140    1.3354   21.3371 C   0  0  0  0  0  0  0  0  0  0  0  0
    4.8445    2.4943   22.0066 C   0  0  0  0  0  0  0  0  0  0  0  0
    4.3222    3.5240   21.2738 C   0  0  0  0  0  0  0  0  0  0  0  0
    4.0643    3.4730   19.9770 N   0  0  0  0  0  0  0  0  0  0  0  0
    5.1092    2.6116   23.4464 C   0  0  0  0  0  0  0  0  0  0  0  0
    4.3317    3.3948   24.2651 O   0  0  0  0  0  0  0  0  0  0  0  0
    6.0757    1.9747   23.9362 O   0  0  0  0  0  0  0  0  0  0  0  0
    4.5785    3.5573   25.2107 H   0  0  0  0  0  0  0  0  0  0  0  0
    5.5779    3.9638   17.2062 O   0  0  0  0  0  0  0  0  0  0  0  0
    5.5493    5.3515   17.1616 C   0  0  0  0  0  0  0  0  0  0  0  0
    4.2037    6.7415   15.5134 C   0  0  0  0  0  0  0  0  0  0  0  0
    4.1656    7.4579   16.8659 C   0  0  0  0  0  0  0  0  0  0  0  0
    4.2220    5.9482   16.7601 C   0  0  0  0  0  0  0  0  0  0  0  0
    0.5706    7.0773   13.3289 C   0  0  0  0  0  0  0  0  0  0  0  0
    0.8400    5.9462   14.0668 C   0  0  0  0  0  0  0  0  0  0  0  0
    2.0460    5.8862   14.7654 C   0  0  0  0  0  0  0  0  0  0  0  0
    2.9591    6.9156   14.7344 C   0  0  0  0  0  0  0  0  0  0  0  0
    2.6626    8.0015   14.0051 N   0  0  0  0  0  0  0  0  0  0  0  0
    1.5056    8.0979   13.3149 C   0  0  0  0  0  0  0  0  0  0  0  0
   -1.7991    6.5664   13.0440 C   0  0  0  0  0  0  0  0  0  0  0  0
   -0.6095    7.1962   12.6137 O   0  0  0  0  0  0  0  0  0  0  0  0
 29 30  1  0  0  0
 30 23  1  0  0  0
 23 24  2  0  0  0
 24 25  1  0  0  0
 25 26  2  0  0  0
 26 27  1  0  0  0
 27 28  2  0  0  0
 26 20  1  0  0  0
 20 21  1  0  0  0
 21 22  1  0  0  0
 22 19  1  0  0  0
 19 18  1  0  0  0
 18  1  1  0  0  0
  1  2  2  0  0  0
  2  3  1  0  0  0
  3  4  1  0  0  0
  3  5  2  0  0  0
  5  6  1  0  0  0
  6  7  2  0  0  0
  7  8  1  0  0  0
  8  9  2  0  0  0
  9 10  1  0  0  0
 10 11  2  0  0  0
 11 12  1  0  0  0
 12 13  2  0  0  0
 11 14  1  0  0  0
 14 15  1  0  0  0
 14 16  2  0  0  0
 28 23  1  0  0  0
 22 20  1  0  0  0
  7  1  1  0  0  0
 13  8  1  0  0  0
 15 17  1  0  0  0
M  END
> <minimizedAffinity>
-7.36335

> <CNNscore>
0.2436852008

> <CNNaffinity>
6.0318021774

> <CNN_VS>
1.4698609114

> <CNNaffinity_variance>
0.2461107522

$$$$
[H]OC(=O)c1c([H])nc(-c2c([H])nc(C([H])([H])[H])nc2OC([H])([H])[C@@]2([H])C([H])([H])[C@]2([H])c2nc([H])c(OC([H])([H])[H])c([H])c2[H])c([H])c1[H]


 30 33  0  0  0  0  0  0  0  0999 V2000
    4.2617    2.1441   18.7456 C   0  0  0  0  0  0  0  0  0  0  0  0
    4.0756    0.9462   19.3802 N   0  0  0  0  0  0  0  0  0  0  0  0
    3.9447    0.8547   20.7018 C   0  0  0  0  0  0  0  0  0  0  0  0
    3.7418   -0.4758   21.3699 C   0  0  0  0  0  0  0  0  0  0  0  0
    3.9989    1.9821   21.4259 N   0  0  0  0  0  0  0  0  0  0  0  0
    4.1788    3.1673   20.8471 C   0  0  0  0  0  0  0  0  0  0  0  0
    4.3214    3.3031   19.4511 C   0  0  0  0  0  0  0  0  0  0  0  0
    4.4978    4.6471   18.8994 C   0  0  0  0  0  0  0  0  0  0  0  0
    5.6326    5.1061   18.3151 C   0  0  0  0  0  0  0  0  0  0  0  0
    5.7582    6.4105   17.8169 C   0  0  0  0  0  0  0  0  0  0  0  0
    4.6894    7.2528   17.9269 C   0  0  0  0  0  0  0  0  0  0  0  0
    3.5655    6.7505   18.5224 C   0  0  0  0  0  0  0  0  0  0  0  0
    3.4463    5.5195   18.9926 N   0  0  0  0  0  0  0  0  0  0  0  0
    4.7613    8.6307   17.4238 C   0  0  0  0  0  0  0  0  0  0  0  0
    3.6317    9.3500   17.1158 O   0  0  0  0  0  0  0  0  0  0  0  0
    5.8913    9.1601   17.2734 O   0  0  0  0  0  0  0  0  0  0  0  0
    3.6876   10.2355   16.6751 H   0  0  0  0  0  0  0  0  0  0  0  0
    4.3860    2.1551   17.3805 O   0  0  0  0  0  0  0  0  0  0  0  0
    3.5092    1.6470   16.4310 C   0  0  0  0  0  0  0  0  0  0  0  0
    3.7304    3.9509   15.3810 C   0  0  0  0  0  0  0  0  0  0  0  0
    2.3264    3.8469   15.9827 C   0  0  0  0  0  0  0  0  0  0  0  0
    3.0396    2.6446   15.3999 C   0  0  0  0  0  0  0  0  0  0  0  0
    3.8835    6.1783   11.7616 C   0  0  0  0  0  0  0  0  0  0  0  0
    4.0746    4.8145   11.7512 C   0  0  0  0  0  0  0  0  0  0  0  0
    4.0142    4.1308   12.9657 C   0  0  0  0  0  0  0  0  0  0  0  0
    3.7719    4.7779   14.1560 C   0  0  0  0  0  0  0  0  0  0  0  0
    3.5906    6.1065   14.1275 N   0  0  0  0  0  0  0  0  0  0  0  0
    3.6413    6.8044   12.9722 C   0  0  0  0  0  0  0  0  0  0  0  0
    2.8417    7.7096   10.1719 C   0  0  0  0  0  0  0  0  0  0  0  0
    3.9318    6.9128   10.5884 O   0  0  0  0  0  0  0  0  0  0  0  0
 29 30  1  0  0  0
 30 23  1  0  0  0
 23 24  2  0  0  0
 24 25  1  0  0  0
 25 26  2  0  0  0
 26 27  1  0  0  0
 27 28  2  0  0  0
 26 20  1  0  0  0
 20 21  1  0  0  0
 21 22  1  0  0  0
 22 19  1  0  0  0
 19 18  1  0  0  0
 18  1  1  0  0  0
  1  2  2  0  0  0
  2  3  1  0  0  0
  3  4  1  0  0  0
  3  5  2  0  0  0
  5  6  1  0  0  0
  6  7  2  0  0  0
  7  8  1  0  0  0
  8  9  2  0  0  0
  9 10  1  0  0  0
 10 11  2  0  0  0
 11 12  1  0  0  0
 12 13  2  0  0  0
 11 14  1  0  0  0
 14 15  1  0  0  0
 14 16  2  0  0  0
 28 23  1  0  0  0
 22 20  1  0  0  0
  7  1  1  0  0  0
 13  8  1  0  0  0
 15 17  1  0  0  0
M  END
> <minimizedAffinity>
-7.07332

> <CNNscore>
0.2251736671

> <CNNaffinity>
5.9582924843

> <CNN_VS>
1.3416506052

> <CNNaffinity_variance>
0.2969804108

$$$$
[H]OC(=O)c1c([H])nc(-c2c([H])nc(C([H])([H])[H])nc2OC([H])([H])[C@@]2([H])C([H])([H])[C@]2([H])c2nc([H])c(OC([H])([H])[H])c([H])c2[H])c([H])c1[H]


 30 33  0  0  0  0  0  0  0  0999 V2000
    4.5871    8.4221   19.6332 C   0  0  0  0  0  0  0  0  0  0  0  0
    4.9886    8.6795   20.9158 N   0  0  0  0  0  0  0  0  0  0  0  0
    5.9730    9.5311   21.1951 C   0  0  0  0  0  0  0  0  0  0  0  0
    6.3916    9.7926   22.6143 C   0  0  0  0  0  0  0  0  0  0  0  0
    6.5849   10.1522   20.1762 N   0  0  0  0  0  0  0  0  0  0  0  0
    6.2246    9.9294   18.9142 C   0  0  0  0  0  0  0  0  0  0  0  0
    5.1874    9.0349   18.5802 C   0  0  0  0  0  0  0  0  0  0  0  0
    4.8464    8.8647   17.1672 C   0  0  0  0  0  0  0  0  0  0  0  0
    5.5800    8.1620   16.2684 C   0  0  0  0  0  0  0  0  0  0  0  0
    5.2198    8.0431   14.9188 C   0  0  0  0  0  0  0  0  0  0  0  0
    4.0802    8.6637   14.4942 C   0  0  0  0  0  0  0  0  0  0  0  0
    3.3707    9.3616   15.4320 C   0  0  0  0  0  0  0  0  0  0  0  0
    3.7100    9.4740   16.7060 N   0  0  0  0  0  0  0  0  0  0  0  0
    3.6519    8.5753   13.0922 C   0  0  0  0  0  0  0  0  0  0  0  0
    4.5463    8.3494   12.0737 O   0  0  0  0  0  0  0  0  0  0  0  0
    2.4314    8.7111   12.8243 O   0  0  0  0  0  0  0  0  0  0  0  0
    4.2703    8.3997   11.1235 H   0  0  0  0  0  0  0  0  0  0  0  0
    3.5641    7.5331   19.4281 O   0  0  0  0  0  0  0  0  0  0  0  0
    3.5570    6.3964   18.6304 C   0  0  0  0  0  0  0  0  0  0  0  0
    4.9653    5.0548   20.2664 C   0  0  0  0  0  0  0  0  0  0  0  0
    5.0241    4.3450   18.9112 C   0  0  0  0  0  0  0  0  0  0  0  0
    3.7932    5.1002   19.3674 C   0  0  0  0  0  0  0  0  0  0  0  0
    4.9978    2.4677   23.6414 C   0  0  0  0  0  0  0  0  0  0  0  0
    4.2112    3.5981   23.6352 C   0  0  0  0  0  0  0  0  0  0  0  0
    4.2367    4.4132   22.5034 C   0  0  0  0  0  0  0  0  0  0  0  0
    5.0182    4.1185   21.4094 C   0  0  0  0  0  0  0  0  0  0  0  0
    5.7712    3.0094   21.4512 N   0  0  0  0  0  0  0  0  0  0  0  0
    5.7741    2.1944   22.5283 C   0  0  0  0  0  0  0  0  0  0  0  0
    6.1717    1.4710   25.5350 C   0  0  0  0  0  0  0  0  0  0  0  0
    5.0158    1.6191   24.7358 O   0  0  0  0  0  0  0  0  0  0  0  0
 29 30  1  0  0  0
 30 23  1  0  0  0
 23 24  2  0  0  0
 24 25  1  0  0  0
 25 26  2  0  0  0
 26 27  1  0  0  0
 27 28  2  0  0  0
 26 20  1  0  0  0
 20 21  1  0  0  0
 21 22  1  0  0  0
 22 19  1  0  0  0
 19 18  1  0  0  0
 18  1  1  0  0  0
  1  2  2  0  0  0
  2  3  1  0  0  0
  3  4  1  0  0  0
  3  5  2  0  0  0
  5  6  1  0  0  0
  6  7  2  0  0  0
  7  8  1  0  0  0
  8  9  2  0  0  0
  9 10  1  0  0  0
 10 11  2  0  0  0
 11 12  1  0  0  0
 12 13  2  0  0  0
 11 14  1  0  0  0
 14 15  1  0  0  0
 14 16  2  0  0  0
 28 23  1  0  0  0
 22 20  1  0  0  0
  7  1  1  0  0  0
 13  8  1  0  0  0
 15 17  1  0  0  0
M  END
> <minimizedAffinity>
-6.82516

> <CNNscore>
0.2214447558

> <CNNaffinity>
5.6993150711

> <CNN_VS>
1.2620834112

> <CNNaffinity_variance>
0.4713498652

$$$$
[H]OC(=O)C([H])([H])C([H])([H])[C@@]([H])(C(=O)N([H])[C@]([H])(C(=O)N([H])[C@]([H])(C(=O)N([H])[C@]([H])(C(=O)N([H])[C@]([H])(C(=O)N([H])[C@]([H])(C(=O)N([H])[H])C([H])([H])c1c([H])nc([H])n1[H])C([H])([H])C([H])([H])C(=O)N([H])[H])C([H])([H])c1c([H])c([H])c([H])c([H])c1[H])C([H])([H])C([H])(C([H])([H])[H])C([H])([H])[H])C([H])([H])C([H])([H])C(=O)N([H])[H])N([H])[H]


 72 73  0  0  0  0  0  0  0  0999 V2000
    6.0190    5.5812   19.9388 C   0  0  0  0  0  0  0  0  0  0  0  0
    7.7425    6.0847   21.6754 C   0  0  0  0  0  0  0  0  0  0  0  0
    7.5755    4.8645   22.0875 O   0  0  0  0  0  0  0  0  0  0  0  0
    6.9380    6.4577   20.5452 N   0  0  0  0  0  0  0  0  0  0  0  0
    7.0307    7.4268   20.1924 H   0  0  0  0  0  0  0  0  0  0  0  0
    8.6876    6.8656   22.4225 C   0  0  0  0  0  0  0  0  0  0  0  0
    8.1439    8.2501   22.6426 N   0  0  0  0  0  0  0  0  0  0  0  0
    8.3230    9.2808   21.7095 C   0  0  0  0  0  0  0  0  0  0  0  0
    8.9549    9.0389   20.6514 O   0  0  0  0  0  0  0  0  0  0  0  0
    7.6117    8.4363   23.5115 H   0  0  0  0  0  0  0  0  0  0  0  0
    7.7988   10.6529   21.9085 C   0  0  0  0  0  0  0  0  0  0  0  0
    6.7574   10.9845   20.9918 N   0  0  0  0  0  0  0  0  0  0  0  0
    5.6252   10.1866   20.8492 C   0  0  0  0  0  0  0  0  0  0  0  0
    5.4936    9.1520   21.5357 O   0  0  0  0  0  0  0  0  0  0  0  0
    6.8304   11.8616   20.3957 H   0  0  0  0  0  0  0  0  0  0  0  0
    4.5144   10.5168   19.8761 C   0  0  0  0  0  0  0  0  0  0  0  0
    4.7608   11.8897   19.4527 N   0  0  0  0  0  0  0  0  0  0  0  0
    4.8653   12.5538   20.2551 H   0  0  0  0  0  0  0  0  0  0  0  0
    5.5539   11.9504   18.7682 H   0  0  0  0  0  0  0  0  0  0  0  0
    4.5572    9.6255   18.6837 C   0  0  0  0  0  0  0  0  0  0  0  0
    5.9485    9.3906   18.1985 C   0  0  0  0  0  0  0  0  0  0  0  0
    6.3345   10.0340   16.9500 C   0  0  0  0  0  0  0  0  0  0  0  0
    7.2359    9.4121   16.1052 O   0  0  0  0  0  0  0  0  0  0  0  0
    5.8701   11.1544   16.6096 O   0  0  0  0  0  0  0  0  0  0  0  0
    8.1631    9.7918   16.0304 H   0  0  0  0  0  0  0  0  0  0  0  0
    7.3502   10.9160   23.3066 C   0  0  0  0  0  0  0  0  0  0  0  0
    8.4621   11.2975   24.2475 C   0  0  0  0  0  0  0  0  0  0  0  0
    8.5910   10.4906   25.4532 C   0  0  0  0  0  0  0  0  0  0  0  0
    7.9827   10.9558   26.6773 N   0  0  0  0  0  0  0  0  0  0  0  0
    9.1951    9.4008   25.5235 O   0  0  0  0  0  0  0  0  0  0  0  0
    7.2028   11.6391   26.6872 H   0  0  0  0  0  0  0  0  0  0  0  0
    8.3140   10.6095   27.6208 H   0  0  0  0  0  0  0  0  0  0  0  0
    9.2788    6.5001   23.6850 C   0  0  0  0  0  0  0  0  0  0  0  0
   11.1864    5.5669   22.4559 C   0  0  0  0  0  0  0  0  0  0  0  0
   10.5458    5.7863   23.8766 C   0  0  0  0  0  0  0  0  0  0  0  0
   11.6201    6.5907   24.5946 C   0  0  0  0  0  0  0  0  0  0  0  0
    5.7452    5.7680   18.4648 C   0  0  0  0  0  0  0  0  0  0  0  0
    6.7076    5.6659   17.6984 O   0  0  0  0  0  0  0  0  0  0  0  0
    4.4446    6.0509   18.0896 N   0  0  0  0  0  0  0  0  0  0  0  0
    3.7756    6.0023   19.0229 H   0  0  0  0  0  0  0  0  0  0  0  0
    3.6959    6.3647   16.9356 C   0  0  0  0  0  0  0  0  0  0  0  0
    2.9838    5.1364   16.4676 C   0  0  0  0  0  0  0  0  0  0  0  0
    1.7257    5.1700   16.4775 O   0  0  0  0  0  0  0  0  0  0  0  0
    3.6229    3.9617   16.0332 N   0  0  0  0  0  0  0  0  0  0  0  0
    4.6523    3.9211   16.0006 H   0  0  0  0  0  0  0  0  0  0  0  0
    2.8225    2.8365   15.6424 C   0  0  0  0  0  0  0  0  0  0  0  0
    3.1543    1.7041   16.5625 C   0  0  0  0  0  0  0  0  0  0  0  0
    2.4297    0.4942   16.6238 N   0  0  0  0  0  0  0  0  0  0  0  0
    4.1329    1.8063   17.3408 O   0  0  0  0  0  0  0  0  0  0  0  0
    2.7423   -0.3691   16.0918 H   0  0  0  0  0  0  0  0  0  0  0  0
    1.5530    0.3465   17.1850 H   0  0  0  0  0  0  0  0  0  0  0  0
    2.8156    2.4355   14.2273 C   0  0  0  0  0  0  0  0  0  0  0  0
    2.5378    3.4386   13.2171 C   0  0  0  0  0  0  0  0  0  0  0  0
    1.3243    4.1337   13.1768 C   0  0  0  0  0  0  0  0  0  0  0  0
    1.3848    4.9753   12.1191 N   0  0  0  0  0  0  0  0  0  0  0  0
    2.5543    4.8353   11.5175 C   0  0  0  0  0  0  0  0  0  0  0  0
    3.2467    3.8855   12.2085 N   0  0  0  0  0  0  0  0  0  0  0  0
    4.1897    3.6091   11.9039 H   0  0  0  0  0  0  0  0  0  0  0  0
    4.3156    7.0834   15.7911 C   0  0  0  0  0  0  0  0  0  0  0  0
    3.6562    6.8287   14.4674 C   0  0  0  0  0  0  0  0  0  0  0  0
    2.6219    7.8771   14.2037 C   0  0  0  0  0  0  0  0  0  0  0  0
    1.2661    7.5748   14.3000 N   0  0  0  0  0  0  0  0  0  0  0  0
    3.0167    9.0196   13.8968 O   0  0  0  0  0  0  0  0  0  0  0  0
    0.7634    7.2807   13.4100 H   0  0  0  0  0  0  0  0  0  0  0  0
    0.6538    7.5985   15.1483 H   0  0  0  0  0  0  0  0  0  0  0  0
    4.6216    5.6980   20.5961 C   0  0  0  0  0  0  0  0  0  0  0  0
    4.3003    4.5585   21.4444 C   0  0  0  0  0  0  0  0  0  0  0  0
    4.3069    3.2394   21.0381 C   0  0  0  0  0  0  0  0  0  0  0  0
    3.9877    2.1661   21.8667 C   0  0  0  0  0  0  0  0  0  0  0  0
    3.6485    2.4167   23.1510 C   0  0  0  0  0  0  0  0  0  0  0  0
    3.6290    3.7243   23.6058 C   0  0  0  0  0  0  0  0  0  0  0  0
    3.9493    4.7721   22.7667 C   0  0  0  0  0  0  0  0  0  0  0  0
 34 35  1  0  0  0
 35 36  1  0  0  0
 35 33  1  0  0  0
 33  6  1  0  0  0
  6  7  1  0  0  0
  7  8  1  0  0  0
  8  9  2  0  0  0
  8 11  1  0  0  0
 11 26  1  0  0  0
 26 27  1  0  0  0
 27 28  1  0  0  0
 28 29  1  0  0  0
 28 30  2  0  0  0
 11 12  1  0  0  0
 12 13  1  0  0  0
 13 14  2  0  0  0
 13 16  1  0  0  0
 16 17  1  0  0  0
 16 20  1  0  0  0
 20 21  1  0  0  0
 21 22  1  0  0  0
 22 23  1  0  0  0
 22 24  2  0  0  0
  6  2  1  0  0  0
  2  3  2  0  0  0
  2  4  1  0  0  0
  4  1  1  0  0  0
  1 66  1  0  0  0
 66 67  1  0  0  0
 67 68  2  0  0  0
 68 69  1  0  0  0
 69 70  2  0  0  0
 70 71  1  0  0  0
 71 72  2  0  0  0
  1 37  1  0  0  0
 37 38  2  0  0  0
 37 39  1  0  0  0
 39 41  1  0  0  0
 41 59  1  0  0  0
 59 60  1  0  0  0
 60 61  1  0  0  0
 61 62  1  0  0  0
 61 63  2  0  0  0
 41 42  1  0  0  0
 42 43  2  0  0  0
 42 44  1  0  0  0
 44 46  1  0  0  0
 46 52  1  0  0  0
 52 53  1  0  0  0
 53 54  2  0  0  0
 54 55  1  0  0  0
 55 56  2  0  0  0
 56 57  1  0  0  0
 46 47  1  0  0  0
 47 48  1  0  0  0
 47 49  2  0  0  0
 72 67  1  0  0  0
 57 53  1  0  0  0
  7 10  1  0  0  0
 29 31  1  0  0  0
 29 32  1  0  0  0
 12 15  1  0  0  0
 17 18  1  0  0  0
 17 19  1  0  0  0
 23 25  1  0  0  0
  4  5  1  0  0  0
 39 40  1  0  0  0
 62 64  1  0  0  0
 62 65  1  0  0  0
 44 45  1  0  0  0
 57 58  1  0  0  0
 48 50  1  0  0  0
 48 51  1  0  0  0
M  END
> <minimizedAffinity>
-7.53139

> <CNNscore>
0.2757043242

> <CNNaffinity>
7.1731786728

> <CNN_VS>
1.9776763916

> <CNNaffinity_variance>
0.1032359749

$$$$
[H]OC(=O)C([H])([H])C([H])([H])[C@@]([H])(C(=O)N([H])[C@]([H])(C(=O)N([H])[C@]([H])(C(=O)N([H])[C@]([H])(C(=O)N([H])[C@]([H])(C(=O)N([H])[C@]([H])(C(=O)N([H])[H])C([H])([H])c1c([H])nc([H])n1[H])C([H])([H])C([H])([H])C(=O)N([H])[H])C([H])([H])c1c([H])c([H])c([H])c([H])c1[H])C([H])([H])C([H])(C([H])([H])[H])C([H])([H])[H])C([H])([H])C([H])([H])C(=O)N([H])[H])N([H])[H]


 72 73  0  0  0  0  0  0  0  0999 V2000
    4.7144    8.1336   17.7963 C   0  0  0  0  0  0  0  0  0  0  0  0
    4.3960    7.9797   15.3234 C   0  0  0  0  0  0  0  0  0  0  0  0
    5.3428    8.8630   15.2220 O   0  0  0  0  0  0  0  0  0  0  0  0
    4.0740    7.5888   16.6677 N   0  0  0  0  0  0  0  0  0  0  0  0
    3.3151    6.8957   16.7944 H   0  0  0  0  0  0  0  0  0  0  0  0
    3.8155    7.5506   14.0825 C   0  0  0  0  0  0  0  0  0  0  0  0
    4.8743    7.4959   13.0164 N   0  0  0  0  0  0  0  0  0  0  0  0
    4.5648    7.5646   11.6509 C   0  0  0  0  0  0  0  0  0  0  0  0
    3.3627    7.6805   11.3059 O   0  0  0  0  0  0  0  0  0  0  0  0
    5.8641    7.4147   13.3109 H   0  0  0  0  0  0  0  0  0  0  0  0
    5.5923    7.5086   10.5842 C   0  0  0  0  0  0  0  0  0  0  0  0
    5.1937    8.1919    9.3971 N   0  0  0  0  0  0  0  0  0  0  0  0
    5.5164    7.7103    8.1311 C   0  0  0  0  0  0  0  0  0  0  0  0
    6.1659    6.6512    8.0071 O   0  0  0  0  0  0  0  0  0  0  0  0
    4.6330    9.0926    9.4624 H   0  0  0  0  0  0  0  0  0  0  0  0
    5.1104    8.4253    6.8607 C   0  0  0  0  0  0  0  0  0  0  0  0
    5.9198    7.8330    5.8029 N   0  0  0  0  0  0  0  0  0  0  0  0
    6.9447    7.8449    6.0155 H   0  0  0  0  0  0  0  0  0  0  0  0
    5.5714    6.8809    5.5319 H   0  0  0  0  0  0  0  0  0  0  0  0
    3.6703    8.2038    6.5521 C   0  0  0  0  0  0  0  0  0  0  0  0
    2.8913    9.4761    6.5278 C   0  0  0  0  0  0  0  0  0  0  0  0
    1.9490    9.6994    7.6159 C   0  0  0  0  0  0  0  0  0  0  0  0
    0.7384   10.3181    7.3620 O   0  0  0  0  0  0  0  0  0  0  0  0
    2.2038    9.3448    8.7976 O   0  0  0  0  0  0  0  0  0  0  0  0
    0.6023   11.2578    7.6905 H   0  0  0  0  0  0  0  0  0  0  0  0
    6.9305    7.9961   11.0279 C   0  0  0  0  0  0  0  0  0  0  0  0
    7.9787    6.9189   11.1166 C   0  0  0  0  0  0  0  0  0  0  0  0
    9.2927    7.3358   11.5868 C   0  0  0  0  0  0  0  0  0  0  0  0
    9.7064    8.7052   11.3903 N   0  0  0  0  0  0  0  0  0  0  0  0
   10.1147    6.5945   12.1633 O   0  0  0  0  0  0  0  0  0  0  0  0
    9.0291    9.4756   11.2391 H   0  0  0  0  0  0  0  0  0  0  0  0
   10.7295    8.9754   11.3960 H   0  0  0  0  0  0  0  0  0  0  0  0
    3.0321    6.3578   13.8812 C   0  0  0  0  0  0  0  0  0  0  0  0
    2.4464    4.5426   15.4247 C   0  0  0  0  0  0  0  0  0  0  0  0
    3.4113    4.9942   14.2663 C   0  0  0  0  0  0  0  0  0  0  0  0
    3.1488    3.9417   13.1986 C   0  0  0  0  0  0  0  0  0  0  0  0
    5.6591    7.2376   18.5626 C   0  0  0  0  0  0  0  0  0  0  0  0
    6.7213    6.9386   18.0092 O   0  0  0  0  0  0  0  0  0  0  0  0
    5.2572    6.8119   19.8156 N   0  0  0  0  0  0  0  0  0  0  0  0
    4.2607    7.3233   20.0736 H   0  0  0  0  0  0  0  0  0  0  0  0
    5.6884    5.9681   20.8609 C   0  0  0  0  0  0  0  0  0  0  0  0
    4.8945    4.7020   20.8242 C   0  0  0  0  0  0  0  0  0  0  0  0
    3.7344    4.7721   20.3412 O   0  0  0  0  0  0  0  0  0  0  0  0
    5.3533    3.4599   21.2973 N   0  0  0  0  0  0  0  0  0  0  0  0
    6.3069    3.3783   21.6797 H   0  0  0  0  0  0  0  0  0  0  0  0
    4.4773    2.3246   21.2377 C   0  0  0  0  0  0  0  0  0  0  0  0
    4.2545    1.8513   22.6395 C   0  0  0  0  0  0  0  0  0  0  0  0
    3.3458    0.8320   22.9969 N   0  0  0  0  0  0  0  0  0  0  0  0
    4.9015    2.3740   23.5788 O   0  0  0  0  0  0  0  0  0  0  0  0
    3.6607   -0.1727   23.1299 H   0  0  0  0  0  0  0  0  0  0  0  0
    2.3172    0.9744   23.1617 H   0  0  0  0  0  0  0  0  0  0  0  0
    4.8075    1.2290   20.3137 C   0  0  0  0  0  0  0  0  0  0  0  0
    4.1279    1.1640   19.0339 C   0  0  0  0  0  0  0  0  0  0  0  0
    4.4473    2.0276   17.9805 C   0  0  0  0  0  0  0  0  0  0  0  0
    3.6303    1.7131   16.9488 N   0  0  0  0  0  0  0  0  0  0  0  0
    2.8385    0.7166   17.3086 C   0  0  0  0  0  0  0  0  0  0  0  0
    3.1611    0.3954   18.5937 N   0  0  0  0  0  0  0  0  0  0  0  0
    2.6556   -0.3565   19.0812 H   0  0  0  0  0  0  0  0  0  0  0  0
    5.8111    6.4736   22.2537 C   0  0  0  0  0  0  0  0  0  0  0  0
    7.1362    7.1020   22.5718 C   0  0  0  0  0  0  0  0  0  0  0  0
    6.9261    8.4497   23.1866 C   0  0  0  0  0  0  0  0  0  0  0  0
    5.8686    9.2580   22.7775 N   0  0  0  0  0  0  0  0  0  0  0  0
    7.7264    8.8176   24.0694 O   0  0  0  0  0  0  0  0  0  0  0  0
    6.0614    9.9691   22.0104 H   0  0  0  0  0  0  0  0  0  0  0  0
    4.8832    9.2662   23.1296 H   0  0  0  0  0  0  0  0  0  0  0  0
    3.6818    8.5838   18.8590 C   0  0  0  0  0  0  0  0  0  0  0  0
    3.5759   10.0327   18.9641 C   0  0  0  0  0  0  0  0  0  0  0  0
    2.5438   10.7926   18.4519 C   0  0  0  0  0  0  0  0  0  0  0  0
    2.4687   12.1795   18.5583 C   0  0  0  0  0  0  0  0  0  0  0  0
    3.4610   12.8354   19.2003 C   0  0  0  0  0  0  0  0  0  0  0  0
    4.5176   12.1161   19.7327 C   0  0  0  0  0  0  0  0  0  0  0  0
    4.5709   10.7421   19.6154 C   0  0  0  0  0  0  0  0  0  0  0  0
 34 35  1  0  0  0
 35 36  1  0  0  0
 35 33  1  0  0  0
 33  6  1  0  0  0
  6  7  1  0  0  0
  7  8  1  0  0  0
  8  9  2  0  0  0
  8 11  1  0  0  0
 11 26  1  0  0  0
 26 27  1  0  0  0
 27 28  1  0  0  0
 28 29  1  0  0  0
 28 30  2  0  0  0
 11 12  1  0  0  0
 12 13  1  0  0  0
 13 14  2  0  0  0
 13 16  1  0  0  0
 16 17  1  0  0  0
 16 20  1  0  0  0
 20 21  1  0  0  0
 21 22  1  0  0  0
 22 23  1  0  0  0
 22 24  2  0  0  0
  6  2  1  0  0  0
  2  3  2  0  0  0
  2  4  1  0  0  0
  4  1  1  0  0  0
  1 66  1  0  0  0
 66 67  1  0  0  0
 67 68  2  0  0  0
 68 69  1  0  0  0
 69 70  2  0  0  0
 70 71  1  0  0  0
 71 72  2  0  0  0
  1 37  1  0  0  0
 37 38  2  0  0  0
 37 39  1  0  0  0
 39 41  1  0  0  0
 41 59  1  0  0  0
 59 60  1  0  0  0
 60 61  1  0  0  0
 61 62  1  0  0  0
 61 63  2  0  0  0
 41 42  1  0  0  0
 42 43  2  0  0  0
 42 44  1  0  0  0
 44 46  1  0  0  0
 46 52  1  0  0  0
 52 53  1  0  0  0
 53 54  2  0  0  0
 54 55  1  0  0  0
 55 56  2  0  0  0
 56 57  1  0  0  0
 46 47  1  0  0  0
 47 48  1  0  0  0
 47 49  2  0  0  0
 72 67  1  0  0  0
 57 53  1  0  0  0
  7 10  1  0  0  0
 29 31  1  0  0  0
 29 32  1  0  0  0
 12 15  1  0  0  0
 17 18  1  0  0  0
 17 19  1  0  0  0
 23 25  1  0  0  0
  4  5  1  0  0  0
 39 40  1  0  0  0
 62 64  1  0  0  0
 62 65  1  0  0  0
 44 45  1  0  0  0
 57 58  1  0  0  0
 48 50  1  0  0  0
 48 51  1  0  0  0
M  END
> <minimizedAffinity>
-8.11000

> <CNNscore>
0.2075437903

> <CNNaffinity>
6.9811081886

> <CNN_VS>
1.4488856792

> <CNNaffinity_variance>
0.4772701859

$$$$
[H]OC(=O)C([H])([H])C([H])([H])[C@@]([H])(C(=O)N([H])[C@]([H])(C(=O)N([H])[C@]([H])(C(=O)N([H])[C@]([H])(C(=O)N([H])[C@]([H])(C(=O)N([H])[C@]([H])(C(=O)N([H])[H])C([H])([H])c1c([H])nc([H])n1[H])C([H])([H])C([H])([H])C(=O)N([H])[H])C([H])([H])c1c([H])c([H])c([H])c([H])c1[H])C([H])([H])C([H])(C([H])([H])[H])C([H])([H])[H])C([H])([H])C([H])([H])C(=O)N([H])[H])N([H])[H]


 72 73  0  0  0  0  0  0  0  0999 V2000
    4.7169    8.1478   17.7527 C   0  0  0  0  0  0  0  0  0  0  0  0
    4.4172    7.8604   15.2894 C   0  0  0  0  0  0  0  0  0  0  0  0
    5.3805    8.7199   15.1477 O   0  0  0  0  0  0  0  0  0  0  0  0
    4.0766    7.5515   16.6503 N   0  0  0  0  0  0  0  0  0  0  0  0
    3.3043    6.8799   16.8085 H   0  0  0  0  0  0  0  0  0  0  0  0
    3.8398    7.3723   14.0690 C   0  0  0  0  0  0  0  0  0  0  0  0
    4.8736    7.3801   12.9772 N   0  0  0  0  0  0  0  0  0  0  0  0
    4.5388    7.5879   11.6319 C   0  0  0  0  0  0  0  0  0  0  0  0
    3.3351    7.7789   11.3283 O   0  0  0  0  0  0  0  0  0  0  0  0
    5.8654    7.2360   13.2390 H   0  0  0  0  0  0  0  0  0  0  0  0
    5.5413    7.5956   10.5402 C   0  0  0  0  0  0  0  0  0  0  0  0
    5.1240    8.3637    9.4128 N   0  0  0  0  0  0  0  0  0  0  0  0
    5.3436    7.9290    8.1083 C   0  0  0  0  0  0  0  0  0  0  0  0
    5.9134    6.8386    7.8955 O   0  0  0  0  0  0  0  0  0  0  0  0
    4.6289    9.2936    9.5543 H   0  0  0  0  0  0  0  0  0  0  0  0
    4.9165    8.7335    6.8999 C   0  0  0  0  0  0  0  0  0  0  0  0
    3.5770    9.2196    7.2073 N   0  0  0  0  0  0  0  0  0  0  0  0
    2.9195    8.4568    7.4927 H   0  0  0  0  0  0  0  0  0  0  0  0
    3.5983   10.0155    7.8909 H   0  0  0  0  0  0  0  0  0  0  0  0
    5.8176    9.8987    6.6798 C   0  0  0  0  0  0  0  0  0  0  0  0
    6.1618   10.0881    5.2405 C   0  0  0  0  0  0  0  0  0  0  0  0
    7.5187    9.7512    4.8317 C   0  0  0  0  0  0  0  0  0  0  0  0
    8.1919   10.5675    3.9411 O   0  0  0  0  0  0  0  0  0  0  0  0
    8.1075    8.7258    5.2665 O   0  0  0  0  0  0  0  0  0  0  0  0
    8.3399   10.2355    3.0044 H   0  0  0  0  0  0  0  0  0  0  0  0
    6.8948    8.0375   10.9852 C   0  0  0  0  0  0  0  0  0  0  0  0
    7.9053    6.9250   11.0766 C   0  0  0  0  0  0  0  0  0  0  0  0
    9.2261    7.2933   11.5677 C   0  0  0  0  0  0  0  0  0  0  0  0
    9.7036    8.6392   11.3553 N   0  0  0  0  0  0  0  0  0  0  0  0
   10.0025    6.5280   12.1754 O   0  0  0  0  0  0  0  0  0  0  0  0
    9.0641    9.4354   11.1753 H   0  0  0  0  0  0  0  0  0  0  0  0
   10.7373    8.8648   11.3783 H   0  0  0  0  0  0  0  0  0  0  0  0
    3.1416    6.1225   13.9025 C   0  0  0  0  0  0  0  0  0  0  0  0
    2.6837    4.2669   15.4411 C   0  0  0  0  0  0  0  0  0  0  0  0
    3.6277    4.7965   14.2985 C   0  0  0  0  0  0  0  0  0  0  0  0
    3.4741    3.7238   13.2296 C   0  0  0  0  0  0  0  0  0  0  0  0
    5.7069    7.3061   18.5235 C   0  0  0  0  0  0  0  0  0  0  0  0
    6.7610    7.0150   17.9508 O   0  0  0  0  0  0  0  0  0  0  0  0
    5.3520    6.9168   19.8021 N   0  0  0  0  0  0  0  0  0  0  0  0
    4.3495    7.4108   20.0702 H   0  0  0  0  0  0  0  0  0  0  0  0
    5.8353    6.1241   20.8645 C   0  0  0  0  0  0  0  0  0  0  0  0
    5.0001    4.8889   20.9702 C   0  0  0  0  0  0  0  0  0  0  0  0
    3.8059    4.9752   20.5821 O   0  0  0  0  0  0  0  0  0  0  0  0
    5.4564    3.6593   21.4772 N   0  0  0  0  0  0  0  0  0  0  0  0
    6.4360    3.5637   21.7831 H   0  0  0  0  0  0  0  0  0  0  0  0
    4.5417    2.5565   21.5590 C   0  0  0  0  0  0  0  0  0  0  0  0
    4.2858    2.2879   23.0086 C   0  0  0  0  0  0  0  0  0  0  0  0
    4.3696    3.2661   24.0228 N   0  0  0  0  0  0  0  0  0  0  0  0
    3.9752    1.1297   23.3774 O   0  0  0  0  0  0  0  0  0  0  0  0
    3.5092    3.7784   24.3742 H   0  0  0  0  0  0  0  0  0  0  0  0
    5.2574    3.5579   24.5045 H   0  0  0  0  0  0  0  0  0  0  0  0
    4.8440    1.3339   20.7993 C   0  0  0  0  0  0  0  0  0  0  0  0
    4.1220    1.0792   19.5673 C   0  0  0  0  0  0  0  0  0  0  0  0
    4.3671    1.8104   18.3999 C   0  0  0  0  0  0  0  0  0  0  0  0
    3.5273    1.3354   17.4513 N   0  0  0  0  0  0  0  0  0  0  0  0
    2.7911    0.3655   17.9677 C   0  0  0  0  0  0  0  0  0  0  0  0
    3.1728    0.2252   19.2690 N   0  0  0  0  0  0  0  0  0  0  0  0
    2.7168   -0.4753   19.8689 H   0  0  0  0  0  0  0  0  0  0  0  0
    6.0823    6.7104   22.2083 C   0  0  0  0  0  0  0  0  0  0  0  0
    7.0013    7.8968   22.2088 C   0  0  0  0  0  0  0  0  0  0  0  0
    8.1491    7.6513   23.1366 C   0  0  0  0  0  0  0  0  0  0  0  0
    8.4103    6.3707   23.6171 N   0  0  0  0  0  0  0  0  0  0  0  0
    8.8546    8.6274   23.4601 O   0  0  0  0  0  0  0  0  0  0  0  0
    7.9844    6.1005   24.5536 H   0  0  0  0  0  0  0  0  0  0  0  0
    8.9845    5.6157   23.1753 H   0  0  0  0  0  0  0  0  0  0  0  0
    3.6877    8.5880   18.8229 C   0  0  0  0  0  0  0  0  0  0  0  0
    3.5986   10.0355   18.9578 C   0  0  0  0  0  0  0  0  0  0  0  0
    2.5698   10.8165   18.4711 C   0  0  0  0  0  0  0  0  0  0  0  0
    2.5108   12.2016   18.6057 C   0  0  0  0  0  0  0  0  0  0  0  0
    3.5164   12.8341   19.2506 C   0  0  0  0  0  0  0  0  0  0  0  0
    4.5703   12.0931   19.7580 C   0  0  0  0  0  0  0  0  0  0  0  0
    4.6075   10.7213   19.6129 C   0  0  0  0  0  0  0  0  0  0  0  0
 34 35  1  0  0  0
 35 36  1  0  0  0
 35 33  1  0  0  0
 33  6  1  0  0  0
  6  7  1  0  0  0
  7  8  1  0  0  0
  8  9  2  0  0  0
  8 11  1  0  0  0
 11 26  1  0  0  0
 26 27  1  0  0  0
 27 28  1  0  0  0
 28 29  1  0  0  0
 28 30  2  0  0  0
 11 12  1  0  0  0
 12 13  1  0  0  0
 13 14  2  0  0  0
 13 16  1  0  0  0
 16 17  1  0  0  0
 16 20  1  0  0  0
 20 21  1  0  0  0
 21 22  1  0  0  0
 22 23  1  0  0  0
 22 24  2  0  0  0
  6  2  1  0  0  0
  2  3  2  0  0  0
  2  4  1  0  0  0
  4  1  1  0  0  0
  1 66  1  0  0  0
 66 67  1  0  0  0
 67 68  2  0  0  0
 68 69  1  0  0  0
 69 70  2  0  0  0
 70 71  1  0  0  0
 71 72  2  0  0  0
  1 37  1  0  0  0
 37 38  2  0  0  0
 37 39  1  0  0  0
 39 41  1  0  0  0
 41 59  1  0  0  0
 59 60  1  0  0  0
 60 61  1  0  0  0
 61 62  1  0  0  0
 61 63  2  0  0  0
 41 42  1  0  0  0
 42 43  2  0  0  0
 42 44  1  0  0  0
 44 46  1  0  0  0
 46 52  1  0  0  0
 52 53  1  0  0  0
 53 54  2  0  0  0
 54 55  1  0  0  0
 55 56  2  0  0  0
 56 57  1  0  0  0
 46 47  1  0  0  0
 47 48  1  0  0  0
 47 49  2  0  0  0
 72 67  1  0  0  0
 57 53  1  0  0  0
  7 10  1  0  0  0
 29 31  1  0  0  0
 29 32  1  0  0  0
 12 15  1  0  0  0
 17 18  1  0  0  0
 17 19  1  0  0  0
 23 25  1  0  0  0
  4  5  1  0  0  0
 39 40  1  0  0  0
 62 64  1  0  0  0
 62 65  1  0  0  0
 44 45  1  0  0  0
 57 58  1  0  0  0
 48 50  1  0  0  0
 48 51  1  0  0  0
M  END
> <minimizedAffinity>
-8.43589

> <CNNscore>
0.2059864700

> <CNNaffinity>
6.9047861099

> <CNN_VS>
1.4222924709

> <CNNaffinity_variance>
0.3378750980

$$$$
[H]OC(=O)C([H])([H])C([H])([H])[C@@]([H])(C(=O)N([H])[C@]([H])(C(=O)N([H])[C@]([H])(C(=O)N([H])[C@]([H])(C(=O)N([H])[C@]([H])(C(=O)N([H])[C@]([H])(C(=O)N([H])[H])C([H])([H])c1c([H])nc([H])n1[H])C([H])([H])C([H])([H])C(=O)N([H])[H])C([H])([H])c1c([H])c([H])c([H])c([H])c1[H])C([H])([H])C([H])(C([H])([H])[H])C([H])([H])[H])C([H])([H])C([H])([H])C(=O)N([H])[H])N([H])[H]


 72 73  0  0  0  0  0  0  0  0999 V2000
    3.0295    3.4118   15.6913 C   0  0  0  0  0  0  0  0  0  0  0  0
    4.5114    3.0445   17.6685 C   0  0  0  0  0  0  0  0  0  0  0  0
    5.4898    3.4478   16.9156 O   0  0  0  0  0  0  0  0  0  0  0  0
    3.2227    3.0359   17.0338 N   0  0  0  0  0  0  0  0  0  0  0  0
    2.4164    2.7085   17.5950 H   0  0  0  0  0  0  0  0  0  0  0  0
    4.8762    2.6587   19.0023 C   0  0  0  0  0  0  0  0  0  0  0  0
    5.4975    3.8257   19.7185 N   0  0  0  0  0  0  0  0  0  0  0  0
    4.8399    5.0564   19.8535 C   0  0  0  0  0  0  0  0  0  0  0  0
    3.6908    5.1877   19.3639 O   0  0  0  0  0  0  0  0  0  0  0  0
    6.4396    3.7035   20.1314 H   0  0  0  0  0  0  0  0  0  0  0  0
    5.4357    6.2201   20.5519 C   0  0  0  0  0  0  0  0  0  0  0  0
    4.5943    7.3717   20.5224 N   0  0  0  0  0  0  0  0  0  0  0  0
    5.0801    8.6249   20.1584 C   0  0  0  0  0  0  0  0  0  0  0  0
    6.2789    8.7671   19.8395 O   0  0  0  0  0  0  0  0  0  0  0  0
    3.5664    7.2885   20.7800 H   0  0  0  0  0  0  0  0  0  0  0  0
    4.2057    9.8596   20.1297 C   0  0  0  0  0  0  0  0  0  0  0  0
    5.1236   10.9903   20.1919 N   0  0  0  0  0  0  0  0  0  0  0  0
    5.7911   10.9328   20.9962 H   0  0  0  0  0  0  0  0  0  0  0  0
    5.6056   11.1524   19.2739 H   0  0  0  0  0  0  0  0  0  0  0  0
    3.4227    9.9386   18.8653 C   0  0  0  0  0  0  0  0  0  0  0  0
    3.6268   11.2316   18.1493 C   0  0  0  0  0  0  0  0  0  0  0  0
    2.4386   11.9073   17.6460 C   0  0  0  0  0  0  0  0  0  0  0  0
    2.5407   12.7669   16.5672 O   0  0  0  0  0  0  0  0  0  0  0  0
    1.3054   11.7346   18.1685 O   0  0  0  0  0  0  0  0  0  0  0  0
    2.4475   13.7538   16.7304 H   0  0  0  0  0  0  0  0  0  0  0  0
    5.8416    5.9211   21.9558 C   0  0  0  0  0  0  0  0  0  0  0  0
    4.6891    5.6318   22.8805 C   0  0  0  0  0  0  0  0  0  0  0  0
    4.4394    4.2283   23.1790 C   0  0  0  0  0  0  0  0  0  0  0  0
    3.0977    3.8090   23.5092 N   0  0  0  0  0  0  0  0  0  0  0  0
    5.3059    3.3301   23.1717 O   0  0  0  0  0  0  0  0  0  0  0  0
    2.2601    4.3559   23.2365 H   0  0  0  0  0  0  0  0  0  0  0  0
    2.9188    2.9151   24.0467 H   0  0  0  0  0  0  0  0  0  0  0  0
    4.0048    2.0532   19.9775 C   0  0  0  0  0  0  0  0  0  0  0  0
    5.6931    0.6554   21.0803 C   0  0  0  0  0  0  0  0  0  0  0  0
    4.1917    0.7465   20.6170 C   0  0  0  0  0  0  0  0  0  0  0  0
    3.4381    0.5727   21.9279 C   0  0  0  0  0  0  0  0  0  0  0  0
    2.7515    4.8696   15.4083 C   0  0  0  0  0  0  0  0  0  0  0  0
    1.7515    5.3629   15.9381 O   0  0  0  0  0  0  0  0  0  0  0  0
    3.6281    5.5339   14.5700 N   0  0  0  0  0  0  0  0  0  0  0  0
    4.4920    4.8231   14.3064 H   0  0  0  0  0  0  0  0  0  0  0  0
    3.7935    6.7941   13.9576 C   0  0  0  0  0  0  0  0  0  0  0  0
    4.0204    6.5983   12.4930 C   0  0  0  0  0  0  0  0  0  0  0  0
    2.9968    6.5123   11.7657 O   0  0  0  0  0  0  0  0  0  0  0  0
    5.2862    6.4965   11.8894 N   0  0  0  0  0  0  0  0  0  0  0  0
    6.1364    6.5826   12.4656 H   0  0  0  0  0  0  0  0  0  0  0  0
    5.3675    6.2726   10.4742 C   0  0  0  0  0  0  0  0  0  0  0  0
    6.2462    5.0816   10.2545 C   0  0  0  0  0  0  0  0  0  0  0  0
    7.5999    5.1570    9.8617 N   0  0  0  0  0  0  0  0  0  0  0  0
    5.7791    3.9293   10.4222 O   0  0  0  0  0  0  0  0  0  0  0  0
    8.3884    5.1110   10.5705 H   0  0  0  0  0  0  0  0  0  0  0  0
    7.9332    5.2561    8.8695 H   0  0  0  0  0  0  0  0  0  0  0  0
    5.7158    7.4043    9.6017 C   0  0  0  0  0  0  0  0  0  0  0  0
    4.6499    8.1280    8.9352 C   0  0  0  0  0  0  0  0  0  0  0  0
    4.8816    8.9037    7.7941 C   0  0  0  0  0  0  0  0  0  0  0  0
    3.6948    9.4461    7.4363 N   0  0  0  0  0  0  0  0  0  0  0  0
    2.7611    9.0496    8.2851 C   0  0  0  0  0  0  0  0  0  0  0  0
    3.3703    8.2408    9.1982 N   0  0  0  0  0  0  0  0  0  0  0  0
    2.8253    7.8245    9.9651 H   0  0  0  0  0  0  0  0  0  0  0  0
    4.7433    7.7962   14.5091 C   0  0  0  0  0  0  0  0  0  0  0  0
    4.1199    8.7984   15.4359 C   0  0  0  0  0  0  0  0  0  0  0  0
    3.8455   10.0713   14.6993 C   0  0  0  0  0  0  0  0  0  0  0  0
    2.5380   10.4607   14.4202 N   0  0  0  0  0  0  0  0  0  0  0  0
    4.8223   10.7624   14.3481 O   0  0  0  0  0  0  0  0  0  0  0  0
    2.1313   10.1788   13.4787 H   0  0  0  0  0  0  0  0  0  0  0  0
    1.8807   11.0088   15.0224 H   0  0  0  0  0  0  0  0  0  0  0  0
    1.8151    2.6735   15.0760 C   0  0  0  0  0  0  0  0  0  0  0  0
    1.8127    2.7081   13.6199 C   0  0  0  0  0  0  0  0  0  0  0  0
    2.7488    2.0979   12.8097 C   0  0  0  0  0  0  0  0  0  0  0  0
    2.7299    2.1520   11.4179 C   0  0  0  0  0  0  0  0  0  0  0  0
    1.7394    2.8413   10.8090 C   0  0  0  0  0  0  0  0  0  0  0  0
    0.7757    3.4696   11.5796 C   0  0  0  0  0  0  0  0  0  0  0  0
    0.8144    3.4022   12.9574 C   0  0  0  0  0  0  0  0  0  0  0  0
 34 35  1  0  0  0
 35 36  1  0  0  0
 35 33  1  0  0  0
 33  6  1  0  0  0
  6  7  1  0  0  0
  7  8  1  0  0  0
  8  9  2  0  0  0
  8 11  1  0  0  0
 11 26  1  0  0  0
 26 27  1  0  0  0
 27 28  1  0  0  0
 28 29  1  0  0  0
 28 30  2  0  0  0
 11 12  1  0  0  0
 12 13  1  0  0  0
 13 14  2  0  0  0
 13 16  1  0  0  0
 16 17  1  0  0  0
 16 20  1  0  0  0
 20 21  1  0  0  0
 21 22  1  0  0  0
 22 23  1  0  0  0
 22 24  2  0  0  0
  6  2  1  0  0  0
  2  3  2  0  0  0
  2  4  1  0  0  0
  4  1  1  0  0  0
  1 66  1  0  0  0
 66 67  1  0  0  0
 67 68  2  0  0  0
 68 69  1  0  0  0
 69 70  2  0  0  0
 70 71  1  0  0  0
 71 72  2  0  0  0
  1 37  1  0  0  0
 37 38  2  0  0  0
 37 39  1  0  0  0
 39 41  1  0  0  0
 41 59  1  0  0  0
 59 60  1  0  0  0
 60 61  1  0  0  0
 61 62  1  0  0  0
 61 63  2  0  0  0
 41 42  1  0  0  0
 42 43  2  0  0  0
 42 44  1  0  0  0
 44 46  1  0  0  0
 46 52  1  0  0  0
 52 53  1  0  0  0
 53 54  2  0  0  0
 54 55  1  0  0  0
 55 56  2  0  0  0
 56 57  1  0  0  0
 46 47  1  0  0  0
 47 48  1  0  0  0
 47 49  2  0  0  0
 72 67  1  0  0  0
 57 53  1  0  0  0
  7 10  1  0  0  0
 29 31  1  0  0  0
 29 32  1  0  0  0
 12 15  1  0  0  0
 17 18  1  0  0  0
 17 19  1  0  0  0
 23 25  1  0  0  0
  4  5  1  0  0  0
 39 40  1  0  0  0
 62 64  1  0  0  0
 62 65  1  0  0  0
 44 45  1  0  0  0
 57 58  1  0  0  0
 48 50  1  0  0  0
 48 51  1  0  0  0
M  END
> <minimizedAffinity>
-7.61746

> <CNNscore>
0.1402901709

> <CNNaffinity>
7.0488119125

> <CNN_VS>
0.9888790250

> <CNNaffinity_variance>
0.3608127236

$$$$
[H]OC(=O)C([H])([H])C([H])([H])[C@@]([H])(C(=O)N([H])[C@]([H])(C(=O)N([H])[C@]([H])(C(=O)N([H])[C@]([H])(C(=O)N([H])[C@]([H])(C(=O)N([H])[C@]([H])(C(=O)N([H])[H])C([H])([H])c1c([H])nc([H])n1[H])C([H])([H])C([H])([H])C(=O)N([H])[H])C([H])([H])c1c([H])c([H])c([H])c([H])c1[H])C([H])([H])C([H])(C([H])([H])[H])C([H])([H])[H])C([H])([H])C([H])([H])C(=O)N([H])[H])N([H])[H]


 72 73  0  0  0  0  0  0  0  0999 V2000
    5.5489    6.6401   21.1327 C   0  0  0  0  0  0  0  0  0  0  0  0
    7.6605    7.3163   22.2833 C   0  0  0  0  0  0  0  0  0  0  0  0
    8.2287    6.3299   21.6579 O   0  0  0  0  0  0  0  0  0  0  0  0
    6.2624    7.4870   22.0013 N   0  0  0  0  0  0  0  0  0  0  0  0
    5.7672    8.2544   22.4894 H   0  0  0  0  0  0  0  0  0  0  0  0
    8.5135    8.0632   23.1639 C   0  0  0  0  0  0  0  0  0  0  0  0
    8.1998    9.5297   23.0547 N   0  0  0  0  0  0  0  0  0  0  0  0
    8.9704   10.4030   22.2745 C   0  0  0  0  0  0  0  0  0  0  0  0
    9.9534    9.9446   21.6412 O   0  0  0  0  0  0  0  0  0  0  0  0
    7.3788    9.8960   23.5691 H   0  0  0  0  0  0  0  0  0  0  0  0
    8.6810   11.8519   22.1562 C   0  0  0  0  0  0  0  0  0  0  0  0
    7.9755   12.1781   20.9600 N   0  0  0  0  0  0  0  0  0  0  0  0
    6.7527   11.5902   20.6470 C   0  0  0  0  0  0  0  0  0  0  0  0
    6.2380   10.7572   21.4218 O   0  0  0  0  0  0  0  0  0  0  0  0
    8.3784   12.8885   20.2796 H   0  0  0  0  0  0  0  0  0  0  0  0
    5.9938   11.9165   19.3792 C   0  0  0  0  0  0  0  0  0  0  0  0
    6.2336   10.7944   18.4801 N   0  0  0  0  0  0  0  0  0  0  0  0
    7.2506   10.5823   18.3513 H   0  0  0  0  0  0  0  0  0  0  0  0
    5.6731    9.9499   18.7521 H   0  0  0  0  0  0  0  0  0  0  0  0
    4.5313   12.0278   19.6377 C   0  0  0  0  0  0  0  0  0  0  0  0
    3.7269   11.9926   18.3816 C   0  0  0  0  0  0  0  0  0  0  0  0
    2.4950   11.2157   18.4027 C   0  0  0  0  0  0  0  0  0  0  0  0
    2.5287    9.8818   18.7667 O   0  0  0  0  0  0  0  0  0  0  0  0
    1.3844   11.7242   18.0944 O   0  0  0  0  0  0  0  0  0  0  0  0
    2.3900    9.1870   18.0543 H   0  0  0  0  0  0  0  0  0  0  0  0
    7.9631   12.4087   23.3393 C   0  0  0  0  0  0  0  0  0  0  0  0
    8.8675   12.8093   24.4745 C   0  0  0  0  0  0  0  0  0  0  0  0
    8.8645   11.9354   25.6397 C   0  0  0  0  0  0  0  0  0  0  0  0
    9.8993   12.0892   26.6349 N   0  0  0  0  0  0  0  0  0  0  0  0
    8.0215   11.0423   25.8621 O   0  0  0  0  0  0  0  0  0  0  0  0
   10.4398   12.9671   26.7456 H   0  0  0  0  0  0  0  0  0  0  0  0
   10.1448   11.3014   27.2974 H   0  0  0  0  0  0  0  0  0  0  0  0
    8.6859    7.8305   24.5757 C   0  0  0  0  0  0  0  0  0  0  0  0
   10.1504    6.7568   26.2258 C   0  0  0  0  0  0  0  0  0  0  0  0
    9.9156    8.0412   25.3471 C   0  0  0  0  0  0  0  0  0  0  0  0
   11.1844    8.0950   24.5081 C   0  0  0  0  0  0  0  0  0  0  0  0
    4.8136    7.2827   19.9799 C   0  0  0  0  0  0  0  0  0  0  0  0
    4.7629    8.5160   19.9649 O   0  0  0  0  0  0  0  0  0  0  0  0
    4.2445    6.4427   19.0402 N   0  0  0  0  0  0  0  0  0  0  0  0
    4.5332    5.3597   19.2948 H   0  0  0  0  0  0  0  0  0  0  0  0
    3.4427    6.5025   17.8808 C   0  0  0  0  0  0  0  0  0  0  0  0
    3.0397    5.1157   17.4948 C   0  0  0  0  0  0  0  0  0  0  0  0
    1.8253    4.9324   17.2193 O   0  0  0  0  0  0  0  0  0  0  0  0
    3.9178    4.0194   17.4309 N   0  0  0  0  0  0  0  0  0  0  0  0
    4.9191    4.1530   17.6352 H   0  0  0  0  0  0  0  0  0  0  0  0
    3.3970    2.7287   17.0808 C   0  0  0  0  0  0  0  0  0  0  0  0
    3.8035    1.7703   18.1555 C   0  0  0  0  0  0  0  0  0  0  0  0
    3.2806    0.4665   18.2941 N   0  0  0  0  0  0  0  0  0  0  0  0
    4.6615    2.1183   19.0021 O   0  0  0  0  0  0  0  0  0  0  0  0
    3.7845   -0.3800   17.8994 H   0  0  0  0  0  0  0  0  0  0  0  0
    2.3828    0.2282   18.7866 H   0  0  0  0  0  0  0  0  0  0  0  0
    3.6544    2.2093   15.7290 C   0  0  0  0  0  0  0  0  0  0  0  0
    2.6527    2.4107   14.6994 C   0  0  0  0  0  0  0  0  0  0  0  0
    2.5386    3.6186   14.0027 C   0  0  0  0  0  0  0  0  0  0  0  0
    1.5110    3.4789   13.1336 N   0  0  0  0  0  0  0  0  0  0  0  0
    0.9967    2.2668   13.2584 C   0  0  0  0  0  0  0  0  0  0  0  0
    1.7132    1.6278   14.2266 N   0  0  0  0  0  0  0  0  0  0  0  0
    1.4741    0.6639   14.4955 H   0  0  0  0  0  0  0  0  0  0  0  0
    3.8756    7.2773   16.6880 C   0  0  0  0  0  0  0  0  0  0  0  0
    5.3581    7.2830   16.4557 C   0  0  0  0  0  0  0  0  0  0  0  0
    5.7625    8.5543   15.7784 C   0  0  0  0  0  0  0  0  0  0  0  0
    6.9016    8.5998   14.9788 N   0  0  0  0  0  0  0  0  0  0  0  0
    5.0481    9.5609   15.9562 O   0  0  0  0  0  0  0  0  0  0  0  0
    7.8118    8.9053   15.4366 H   0  0  0  0  0  0  0  0  0  0  0  0
    6.9909    8.3711   13.9616 H   0  0  0  0  0  0  0  0  0  0  0  0
    4.4456    5.8642   21.8937 C   0  0  0  0  0  0  0  0  0  0  0  0
    4.8900    4.5546   22.3506 C   0  0  0  0  0  0  0  0  0  0  0  0
    5.9341    3.8355   21.8048 C   0  0  0  0  0  0  0  0  0  0  0  0
    6.3358    2.5798   22.2544 C   0  0  0  0  0  0  0  0  0  0  0  0
    5.6712    2.0181   23.2887 C   0  0  0  0  0  0  0  0  0  0  0  0
    4.6171    2.7018   23.8707 C   0  0  0  0  0  0  0  0  0  0  0  0
    4.2367    3.9453   23.4086 C   0  0  0  0  0  0  0  0  0  0  0  0
 34 35  1  0  0  0
 35 36  1  0  0  0
 35 33  1  0  0  0
 33  6  1  0  0  0
  6  7  1  0  0  0
  7  8  1  0  0  0
  8  9  2  0  0  0
  8 11  1  0  0  0
 11 26  1  0  0  0
 26 27  1  0  0  0
 27 28  1  0  0  0
 28 29  1  0  0  0
 28 30  2  0  0  0
 11 12  1  0  0  0
 12 13  1  0  0  0
 13 14  2  0  0  0
 13 16  1  0  0  0
 16 17  1  0  0  0
 16 20  1  0  0  0
 20 21  1  0  0  0
 21 22  1  0  0  0
 22 23  1  0  0  0
 22 24  2  0  0  0
  6  2  1  0  0  0
  2  3  2  0  0  0
  2  4  1  0  0  0
  4  1  1  0  0  0
  1 66  1  0  0  0
 66 67  1  0  0  0
 67 68  2  0  0  0
 68 69  1  0  0  0
 69 70  2  0  0  0
 70 71  1  0  0  0
 71 72  2  0  0  0
  1 37  1  0  0  0
 37 38  2  0  0  0
 37 39  1  0  0  0
 39 41  1  0  0  0
 41 59  1  0  0  0
 59 60  1  0  0  0
 60 61  1  0  0  0
 61 62  1  0  0  0
 61 63  2  0  0  0
 41 42  1  0  0  0
 42 43  2  0  0  0
 42 44  1  0  0  0
 44 46  1  0  0  0
 46 52  1  0  0  0
 52 53  1  0  0  0
 53 54  2  0  0  0
 54 55  1  0  0  0
 55 56  2  0  0  0
 56 57  1  0  0  0
 46 47  1  0  0  0
 47 48  1  0  0  0
 47 49  2  0  0  0
 72 67  1  0  0  0
 57 53  1  0  0  0
  7 10  1  0  0  0
 29 31  1  0  0  0
 29 32  1  0  0  0
 12 15  1  0  0  0
 17 18  1  0  0  0
 17 19  1  0  0  0
 23 25  1  0  0  0
  4  5  1  0  0  0
 39 40  1  0  0  0
 62 64  1  0  0  0
 62 65  1  0  0  0
 44 45  1  0  0  0
 57 58  1  0  0  0
 48 50  1  0  0  0
 48 51  1  0  0  0
M  END
> <minimizedAffinity>
-7.65377

> <CNNscore>
0.1323400438

> <CNNaffinity>
6.9109816551

> <CNN_VS>
0.9145995975

> <CNNaffinity_variance>
0.3116819263

$$$$
[H]OC(=O)C([H])([H])C([H])([H])[C@@]([H])(C(=O)N([H])[C@]([H])(C(=O)N([H])[C@]([H])(C(=O)N([H])[C@]([H])(C(=O)N([H])[C@]([H])(C(=O)N([H])[C@]([H])(C(=O)N([H])[H])C([H])([H])c1c([H])nc([H])n1[H])C([H])([H])C([H])([H])C(=O)N([H])[H])C([H])([H])c1c([H])c([H])c([H])c([H])c1[H])C([H])([H])C([H])(C([H])([H])[H])C([H])([H])[H])C([H])([H])C([H])([H])C(=O)N([H])[H])N([H])[H]


 72 73  0  0  0  0  0  0  0  0999 V2000
    4.6680    5.2718   21.1541 C   0  0  0  0  0  0  0  0  0  0  0  0
    3.7803    4.7836   18.8707 C   0  0  0  0  0  0  0  0  0  0  0  0
    2.7584    5.5175   19.1929 O   0  0  0  0  0  0  0  0  0  0  0  0
    4.7849    4.6633   19.8904 N   0  0  0  0  0  0  0  0  0  0  0  0
    5.6112    4.0758   19.6795 H   0  0  0  0  0  0  0  0  0  0  0  0
    3.7338    4.2004   17.5597 C   0  0  0  0  0  0  0  0  0  0  0  0
    3.7319    5.2855   16.5189 N   0  0  0  0  0  0  0  0  0  0  0  0
    2.6279    5.5228   15.6881 C   0  0  0  0  0  0  0  0  0  0  0  0
    1.6036    4.8081   15.8206 O   0  0  0  0  0  0  0  0  0  0  0  0
    4.5757    5.8792   16.4268 H   0  0  0  0  0  0  0  0  0  0  0  0
    2.6067    6.5842   14.6538 C   0  0  0  0  0  0  0  0  0  0  0  0
    3.8022    7.3623   14.6365 N   0  0  0  0  0  0  0  0  0  0  0  0
    3.7728    8.7523   14.7124 C   0  0  0  0  0  0  0  0  0  0  0  0
    2.6832    9.3550   14.8048 O   0  0  0  0  0  0  0  0  0  0  0  0
    4.7491    6.8844   14.5665 H   0  0  0  0  0  0  0  0  0  0  0  0
    5.0292    9.5954   14.6866 C   0  0  0  0  0  0  0  0  0  0  0  0
    4.6313   10.8724   14.1071 N   0  0  0  0  0  0  0  0  0  0  0  0
    4.1413   10.7706   13.1877 H   0  0  0  0  0  0  0  0  0  0  0  0
    4.0954   11.4610   14.7910 H   0  0  0  0  0  0  0  0  0  0  0  0
    5.5530    9.8278   16.0612 C   0  0  0  0  0  0  0  0  0  0  0  0
    6.5597    8.8042   16.4673 C   0  0  0  0  0  0  0  0  0  0  0  0
    6.1411    7.8135   17.4496 C   0  0  0  0  0  0  0  0  0  0  0  0
    4.7951    7.6222   17.7038 O   0  0  0  0  0  0  0  0  0  0  0  0
    6.9754    7.1163   18.0860 O   0  0  0  0  0  0  0  0  0  0  0  0
    4.4220    7.9454   18.5788 H   0  0  0  0  0  0  0  0  0  0  0  0
    2.3144    6.0683   13.2850 C   0  0  0  0  0  0  0  0  0  0  0  0
    3.5177    6.0046   12.3822 C   0  0  0  0  0  0  0  0  0  0  0  0
    4.1708    4.7076   12.2697 C   0  0  0  0  0  0  0  0  0  0  0  0
    5.4354    4.6162   11.5788 N   0  0  0  0  0  0  0  0  0  0  0  0
    3.7232    3.6386   12.7329 O   0  0  0  0  0  0  0  0  0  0  0  0
    6.0581    5.4346   11.4460 H   0  0  0  0  0  0  0  0  0  0  0  0
    5.7776    3.6977   11.1800 H   0  0  0  0  0  0  0  0  0  0  0  0
    4.6354    3.2011   17.0444 C   0  0  0  0  0  0  0  0  0  0  0  0
    3.6948    1.1708   18.0510 C   0  0  0  0  0  0  0  0  0  0  0  0
    4.3044    1.8038   16.7454 C   0  0  0  0  0  0  0  0  0  0  0  0
    3.1744    1.6247   15.7416 C   0  0  0  0  0  0  0  0  0  0  0  0
    5.3533    6.6034   21.3532 C   0  0  0  0  0  0  0  0  0  0  0  0
    4.8675    7.5768   20.7697 O   0  0  0  0  0  0  0  0  0  0  0  0
    6.4760    6.6274   22.1604 N   0  0  0  0  0  0  0  0  0  0  0  0
    6.6239    5.5812   22.6128 H   0  0  0  0  0  0  0  0  0  0  0  0
    7.4720    7.5241   22.6012 C   0  0  0  0  0  0  0  0  0  0  0  0
    7.5688    8.6593   21.6334 C   0  0  0  0  0  0  0  0  0  0  0  0
    8.3592    8.5146   20.6646 O   0  0  0  0  0  0  0  0  0  0  0  0
    6.8501    9.8628   21.7424 N   0  0  0  0  0  0  0  0  0  0  0  0
    6.1846    9.9930   22.5186 H   0  0  0  0  0  0  0  0  0  0  0  0
    7.0607   10.8916   20.7642 C   0  0  0  0  0  0  0  0  0  0  0  0
    8.3241   11.6072   21.1253 C   0  0  0  0  0  0  0  0  0  0  0  0
    8.6005   12.1295   22.4072 N   0  0  0  0  0  0  0  0  0  0  0  0
    9.2133   11.7691   20.2552 O   0  0  0  0  0  0  0  0  0  0  0  0
    9.1732   11.5873   23.1173 H   0  0  0  0  0  0  0  0  0  0  0  0
    8.2801   13.0683   22.7556 H   0  0  0  0  0  0  0  0  0  0  0  0
    5.9536   11.8111   20.4607 C   0  0  0  0  0  0  0  0  0  0  0  0
    4.7998   11.3044   19.7425 C   0  0  0  0  0  0  0  0  0  0  0  0
    3.9316   12.1502   19.0437 C   0  0  0  0  0  0  0  0  0  0  0  0
    2.9671   11.3696   18.5041 N   0  0  0  0  0  0  0  0  0  0  0  0
    3.1947   10.1082   18.8301 C   0  0  0  0  0  0  0  0  0  0  0  0
    4.3255   10.0913   19.5916 N   0  0  0  0  0  0  0  0  0  0  0  0
    4.6834    9.2023   19.9661 H   0  0  0  0  0  0  0  0  0  0  0  0
    8.8249    7.0403   22.9837 C   0  0  0  0  0  0  0  0  0  0  0  0
    9.2174    5.7344   22.3572 C   0  0  0  0  0  0  0  0  0  0  0  0
   10.6281    5.8097   21.8646 C   0  0  0  0  0  0  0  0  0  0  0  0
   11.0923    6.9515   21.2167 N   0  0  0  0  0  0  0  0  0  0  0  0
   11.3640    4.8209   22.0539 O   0  0  0  0  0  0  0  0  0  0  0  0
   11.0368    6.9712   20.1547 H   0  0  0  0  0  0  0  0  0  0  0  0
   11.5016    7.8171   21.6390 H   0  0  0  0  0  0  0  0  0  0  0  0
    5.2693    4.3727   22.2625 C   0  0  0  0  0  0  0  0  0  0  0  0
    5.1526    2.9524   21.9617 C   0  0  0  0  0  0  0  0  0  0  0  0
    3.9845    2.2201   22.0284 C   0  0  0  0  0  0  0  0  0  0  0  0
    3.8993    0.8593   21.7433 C   0  0  0  0  0  0  0  0  0  0  0  0
    5.0222    0.2017   21.3775 C   0  0  0  0  0  0  0  0  0  0  0  0
    6.2185    0.8939   21.2948 C   0  0  0  0  0  0  0  0  0  0  0  0
    6.2791    2.2425   21.5817 C   0  0  0  0  0  0  0  0  0  0  0  0
 34 35  1  0  0  0
 35 36  1  0  0  0
 35 33  1  0  0  0
 33  6  1  0  0  0
  6  7  1  0  0  0
  7  8  1  0  0  0
  8  9  2  0  0  0
  8 11  1  0  0  0
 11 26  1  0  0  0
 26 27  1  0  0  0
 27 28  1  0  0  0
 28 29  1  0  0  0
 28 30  2  0  0  0
 11 12  1  0  0  0
 12 13  1  0  0  0
 13 14  2  0  0  0
 13 16  1  0  0  0
 16 17  1  0  0  0
 16 20  1  0  0  0
 20 21  1  0  0  0
 21 22  1  0  0  0
 22 23  1  0  0  0
 22 24  2  0  0  0
  6  2  1  0  0  0
  2  3  2  0  0  0
  2  4  1  0  0  0
  4  1  1  0  0  0
  1 66  1  0  0  0
 66 67  1  0  0  0
 67 68  2  0  0  0
 68 69  1  0  0  0
 69 70  2  0  0  0
 70 71  1  0  0  0
 71 72  2  0  0  0
  1 37  1  0  0  0
 37 38  2  0  0  0
 37 39  1  0  0  0
 39 41  1  0  0  0
 41 59  1  0  0  0
 59 60  1  0  0  0
 60 61  1  0  0  0
 61 62  1  0  0  0
 61 63  2  0  0  0
 41 42  1  0  0  0
 42 43  2  0  0  0
 42 44  1  0  0  0
 44 46  1  0  0  0
 46 52  1  0  0  0
 52 53  1  0  0  0
 53 54  2  0  0  0
 54 55  1  0  0  0
 55 56  2  0  0  0
 56 57  1  0  0  0
 46 47  1  0  0  0
 47 48  1  0  0  0
 47 49  2  0  0  0
 72 67  1  0  0  0
 57 53  1  0  0  0
  7 10  1  0  0  0
 29 31  1  0  0  0
 29 32  1  0  0  0
 12 15  1  0  0  0
 17 18  1  0  0  0
 17 19  1  0  0  0
 23 25  1  0  0  0
  4  5  1  0  0  0
 39 40  1  0  0  0
 62 64  1  0  0  0
 62 65  1  0  0  0
 44 45  1  0  0  0
 57 58  1  0  0  0
 48 50  1  0  0  0
 48 51  1  0  0  0
M  END
> <minimizedAffinity>
-7.74582

> <CNNscore>
0.1288903952

> <CNNaffinity>
6.7532072067

> <CNN_VS>
0.8704235554

> <CNNaffinity_variance>
0.6755260825

$$$$
[H]OC(=O)C([H])([H])C([H])([H])[C@@]([H])(C(=O)N([H])[C@]([H])(C(=O)N([H])[C@]([H])(C(=O)N([H])[C@]([H])(C(=O)N([H])[C@]([H])(C(=O)N([H])[C@]([H])(C(=O)N([H])[H])C([H])([H])c1c([H])nc([H])n1[H])C([H])([H])C([H])([H])C(=O)N([H])[H])C([H])([H])c1c([H])c([H])c([H])c([H])c1[H])C([H])([H])C([H])(C([H])([H])[H])C([H])([H])[H])C([H])([H])C([H])([H])C(=O)N([H])[H])N([H])[H]


 72 73  0  0  0  0  0  0  0  0999 V2000
    5.6513    5.5262   20.8580 C   0  0  0  0  0  0  0  0  0  0  0  0
    4.2877    4.6594   18.9530 C   0  0  0  0  0  0  0  0  0  0  0  0
    3.2447    5.0597   19.6154 O   0  0  0  0  0  0  0  0  0  0  0  0
    5.5472    4.9126   19.5957 N   0  0  0  0  0  0  0  0  0  0  0  0
    6.4042    4.5974   19.1074 H   0  0  0  0  0  0  0  0  0  0  0  0
    4.0142    4.0167   17.6987 C   0  0  0  0  0  0  0  0  0  0  0  0
    4.0920    5.0219   16.5833 N   0  0  0  0  0  0  0  0  0  0  0  0
    2.9466    5.5543   15.9752 C   0  0  0  0  0  0  0  0  0  0  0  0
    1.8167    5.1828   16.3786 O   0  0  0  0  0  0  0  0  0  0  0  0
    5.0280    5.3331   16.2670 H   0  0  0  0  0  0  0  0  0  0  0  0
    3.0010    6.5428   14.8722 C   0  0  0  0  0  0  0  0  0  0  0  0
    1.7072    6.9215   14.4057 N   0  0  0  0  0  0  0  0  0  0  0  0
    1.3462    6.7984   13.0665 C   0  0  0  0  0  0  0  0  0  0  0  0
    2.1579    6.3414   12.2350 O   0  0  0  0  0  0  0  0  0  0  0  0
    0.9867    7.3074   15.0853 H   0  0  0  0  0  0  0  0  0  0  0  0
   -0.0179    7.2029   12.5511 C   0  0  0  0  0  0  0  0  0  0  0  0
    0.0722    7.1185   11.0986 N   0  0  0  0  0  0  0  0  0  0  0  0
    0.8778    7.6592   10.7057 H   0  0  0  0  0  0  0  0  0  0  0  0
    0.0471    6.1244   10.7633 H   0  0  0  0  0  0  0  0  0  0  0  0
   -1.0750    6.2681   13.0273 C   0  0  0  0  0  0  0  0  0  0  0  0
   -1.2063    5.0651   12.1544 C   0  0  0  0  0  0  0  0  0  0  0  0
   -2.4134    4.9590   11.3462 C   0  0  0  0  0  0  0  0  0  0  0  0
   -3.3697    4.0098   11.6586 O   0  0  0  0  0  0  0  0  0  0  0  0
   -2.6180    5.7117   10.3569 O   0  0  0  0  0  0  0  0  0  0  0  0
   -3.4707    3.2142   11.0535 H   0  0  0  0  0  0  0  0  0  0  0  0
    3.7976    7.7585   15.2082 C   0  0  0  0  0  0  0  0  0  0  0  0
    3.7470    8.8362   14.1579 C   0  0  0  0  0  0  0  0  0  0  0  0
    4.8721    8.8890   13.2345 C   0  0  0  0  0  0  0  0  0  0  0  0
    4.8343    8.0852   12.0356 N   0  0  0  0  0  0  0  0  0  0  0  0
    5.8934    9.5893   13.3904 O   0  0  0  0  0  0  0  0  0  0  0  0
    3.9480    7.7333   11.6285 H   0  0  0  0  0  0  0  0  0  0  0  0
    5.7218    7.8250   11.5212 H   0  0  0  0  0  0  0  0  0  0  0  0
    4.6793    2.8466   17.1834 C   0  0  0  0  0  0  0  0  0  0  0  0
    3.4841    1.0095   18.2864 C   0  0  0  0  0  0  0  0  0  0  0  0
    4.0633    1.5411   16.9231 C   0  0  0  0  0  0  0  0  0  0  0  0
    2.8221    1.5940   16.0436 C   0  0  0  0  0  0  0  0  0  0  0  0
    6.5531    6.7328   20.9748 C   0  0  0  0  0  0  0  0  0  0  0  0
    7.6904    6.6304   20.5058 O   0  0  0  0  0  0  0  0  0  0  0  0
    6.0416    7.8511   21.6075 N   0  0  0  0  0  0  0  0  0  0  0  0
    4.9373    7.6559   21.8597 H   0  0  0  0  0  0  0  0  0  0  0  0
    6.4445    9.1380   22.0225 C   0  0  0  0  0  0  0  0  0  0  0  0
    5.9062   10.1503   21.0633 C   0  0  0  0  0  0  0  0  0  0  0  0
    6.3288   11.3296   21.1847 O   0  0  0  0  0  0  0  0  0  0  0  0
    4.9650    9.8723   20.0564 N   0  0  0  0  0  0  0  0  0  0  0  0
    4.6206    8.9092   19.9295 H   0  0  0  0  0  0  0  0  0  0  0  0
    4.5002   10.9434   19.2218 C   0  0  0  0  0  0  0  0  0  0  0  0
    3.2266   10.4945   18.5773 C   0  0  0  0  0  0  0  0  0  0  0  0
    2.0470   11.2684   18.5294 N   0  0  0  0  0  0  0  0  0  0  0  0
    3.1723    9.3637   18.0369 O   0  0  0  0  0  0  0  0  0  0  0  0
    1.8030   11.8588   17.6820 H   0  0  0  0  0  0  0  0  0  0  0  0
    1.3313   11.3213   19.2976 H   0  0  0  0  0  0  0  0  0  0  0  0
    5.4393   11.5476   18.2646 C   0  0  0  0  0  0  0  0  0  0  0  0
    6.3622   10.6858   17.5507 C   0  0  0  0  0  0  0  0  0  0  0  0
    7.7492   10.8275   17.6669 C   0  0  0  0  0  0  0  0  0  0  0  0
    8.3113    9.8874   16.8726 N   0  0  0  0  0  0  0  0  0  0  0  0
    7.3562    9.1867   16.2842 C   0  0  0  0  0  0  0  0  0  0  0  0
    6.1665    9.6947   16.7148 N   0  0  0  0  0  0  0  0  0  0  0  0
    5.2809    9.2999   16.3708 H   0  0  0  0  0  0  0  0  0  0  0  0
    7.8649    9.4276   22.3530 C   0  0  0  0  0  0  0  0  0  0  0  0
    8.3368    8.8270   23.6448 C   0  0  0  0  0  0  0  0  0  0  0  0
    7.6734    9.5126   24.7973 C   0  0  0  0  0  0  0  0  0  0  0  0
    6.7217    8.8467   25.5653 N   0  0  0  0  0  0  0  0  0  0  0  0
    8.0016   10.6908   25.0405 O   0  0  0  0  0  0  0  0  0  0  0  0
    5.7002    8.9655   25.2940 H   0  0  0  0  0  0  0  0  0  0  0  0
    6.8738    8.2298   26.3968 H   0  0  0  0  0  0  0  0  0  0  0  0
    6.2098    4.5389   21.9124 C   0  0  0  0  0  0  0  0  0  0  0  0
    5.5164    3.2581   21.9086 C   0  0  0  0  0  0  0  0  0  0  0  0
    4.2336    3.0483   22.3731 C   0  0  0  0  0  0  0  0  0  0  0  0
    3.5940    1.8110   22.3663 C   0  0  0  0  0  0  0  0  0  0  0  0
    4.2583    0.7400   21.8777 C   0  0  0  0  0  0  0  0  0  0  0  0
    5.5475    0.9007   21.3988 C   0  0  0  0  0  0  0  0  0  0  0  0
    6.1614    2.1365   21.4151 C   0  0  0  0  0  0  0  0  0  0  0  0
 34 35  1  0  0  0
 35 36  1  0  0  0
 35 33  1  0  0  0
 33  6  1  0  0  0
  6  7  1  0  0  0
  7  8  1  0  0  0
  8  9  2  0  0  0
  8 11  1  0  0  0
 11 26  1  0  0  0
 26 27  1  0  0  0
 27 28  1  0  0  0
 28 29  1  0  0  0
 28 30  2  0  0  0
 11 12  1  0  0  0
 12 13  1  0  0  0
 13 14  2  0  0  0
 13 16  1  0  0  0
 16 17  1  0  0  0
 16 20  1  0  0  0
 20 21  1  0  0  0
 21 22  1  0  0  0
 22 23  1  0  0  0
 22 24  2  0  0  0
  6  2  1  0  0  0
  2  3  2  0  0  0
  2  4  1  0  0  0
  4  1  1  0  0  0
  1 66  1  0  0  0
 66 67  1  0  0  0
 67 68  2  0  0  0
 68 69  1  0  0  0
 69 70  2  0  0  0
 70 71  1  0  0  0
 71 72  2  0  0  0
  1 37  1  0  0  0
 37 38  2  0  0  0
 37 39  1  0  0  0
 39 41  1  0  0  0
 41 59  1  0  0  0
 59 60  1  0  0  0
 60 61  1  0  0  0
 61 62  1  0  0  0
 61 63  2  0  0  0
 41 42  1  0  0  0
 42 43  2  0  0  0
 42 44  1  0  0  0
 44 46  1  0  0  0
 46 52  1  0  0  0
 52 53  1  0  0  0
 53 54  2  0  0  0
 54 55  1  0  0  0
 55 56  2  0  0  0
 56 57  1  0  0  0
 46 47  1  0  0  0
 47 48  1  0  0  0
 47 49  2  0  0  0
 72 67  1  0  0  0
 57 53  1  0  0  0
  7 10  1  0  0  0
 29 31  1  0  0  0
 29 32  1  0  0  0
 12 15  1  0  0  0
 17 18  1  0  0  0
 17 19  1  0  0  0
 23 25  1  0  0  0
  4  5  1  0  0  0
 39 40  1  0  0  0
 62 64  1  0  0  0
 62 65  1  0  0  0
 44 45  1  0  0  0
 57 58  1  0  0  0
 48 50  1  0  0  0
 48 51  1  0  0  0
M  END
> <minimizedAffinity>
-8.22913

> <CNNscore>
0.1211386621

> <CNNaffinity>
7.1303548813

> <CNN_VS>
0.8637616634

> <CNNaffinity_variance>
0.7590000033

$$$$
[H]OC(=O)C([H])([H])C([H])([H])[C@@]([H])(C(=O)N([H])[C@]([H])(C(=O)N([H])[C@]([H])(C(=O)N([H])[C@]([H])(C(=O)N([H])[C@]([H])(C(=O)N([H])[C@]([H])(C(=O)N([H])[H])C([H])([H])c1c([H])nc([H])n1[H])C([H])([H])C([H])([H])C(=O)N([H])[H])C([H])([H])c1c([H])c([H])c([H])c([H])c1[H])C([H])([H])C([H])(C([H])([H])[H])C([H])([H])[H])C([H])([H])C([H])([H])C(=O)N([H])[H])N([H])[H]


 72 73  0  0  0  0  0  0  0  0999 V2000
    3.0938    3.8915   15.8924 C   0  0  0  0  0  0  0  0  0  0  0  0
    4.6417    4.0322   17.8480 C   0  0  0  0  0  0  0  0  0  0  0  0
    5.5722    4.3353   16.9942 O   0  0  0  0  0  0  0  0  0  0  0  0
    3.3430    3.8110   17.2752 N   0  0  0  0  0  0  0  0  0  0  0  0
    2.5745    3.5540   17.9199 H   0  0  0  0  0  0  0  0  0  0  0  0
    5.0625    3.9514   19.2182 C   0  0  0  0  0  0  0  0  0  0  0  0
    5.4504    5.3170   19.7136 N   0  0  0  0  0  0  0  0  0  0  0  0
    4.5638    6.4025   19.6851 C   0  0  0  0  0  0  0  0  0  0  0  0
    3.4044    6.2278   19.2349 O   0  0  0  0  0  0  0  0  0  0  0  0
    6.4040    5.4480   20.0963 H   0  0  0  0  0  0  0  0  0  0  0  0
    4.9271    7.7571   20.1646 C   0  0  0  0  0  0  0  0  0  0  0  0
    3.9493    8.7412   19.8322 N   0  0  0  0  0  0  0  0  0  0  0  0
    4.3076    9.9904   19.3324 C   0  0  0  0  0  0  0  0  0  0  0  0
    5.5101   10.2769   19.1565 O   0  0  0  0  0  0  0  0  0  0  0  0
    2.9153    8.5310   19.9611 H   0  0  0  0  0  0  0  0  0  0  0  0
    3.2859   11.0504   18.9824 C   0  0  0  0  0  0  0  0  0  0  0  0
    3.9897   12.3224   19.0898 N   0  0  0  0  0  0  0  0  0  0  0  0
    4.4689   12.4493   20.0117 H   0  0  0  0  0  0  0  0  0  0  0  0
    4.6286   12.4848   18.2733 H   0  0  0  0  0  0  0  0  0  0  0  0
    2.7912   10.8851   17.5874 C   0  0  0  0  0  0  0  0  0  0  0  0
    3.2562   11.9788   16.6854 C   0  0  0  0  0  0  0  0  0  0  0  0
    4.4225   11.7061   15.8566 C   0  0  0  0  0  0  0  0  0  0  0  0
    5.6240   11.3642   16.4504 O   0  0  0  0  0  0  0  0  0  0  0  0
    4.3740   11.7740   14.5996 O   0  0  0  0  0  0  0  0  0  0  0  0
    6.3711   12.0359   16.4416 H   0  0  0  0  0  0  0  0  0  0  0  0
    5.2231    7.8059   21.6259 C   0  0  0  0  0  0  0  0  0  0  0  0
    6.5290    8.4734   21.9665 C   0  0  0  0  0  0  0  0  0  0  0  0
    6.6410    9.0212   23.3114 C   0  0  0  0  0  0  0  0  0  0  0  0
    6.9009    8.1263   24.4142 N   0  0  0  0  0  0  0  0  0  0  0  0
    6.5319   10.2298   23.6030 O   0  0  0  0  0  0  0  0  0  0  0  0
    7.3293    7.1910   24.2838 H   0  0  0  0  0  0  0  0  0  0  0  0
    6.6625    8.3975   25.4090 H   0  0  0  0  0  0  0  0  0  0  0  0
    4.3122    3.3688   20.3020 C   0  0  0  0  0  0  0  0  0  0  0  0
    3.7339    1.6462   21.9508 C   0  0  0  0  0  0  0  0  0  0  0  0
    4.8627    2.6122   21.4316 C   0  0  0  0  0  0  0  0  0  0  0  0
    5.9728    1.6402   21.0579 C   0  0  0  0  0  0  0  0  0  0  0  0
    2.5091    5.1799   15.3628 C   0  0  0  0  0  0  0  0  0  0  0  0
    1.4289    5.5425   15.8378 O   0  0  0  0  0  0  0  0  0  0  0  0
    3.2199    5.8454   14.3808 N   0  0  0  0  0  0  0  0  0  0  0  0
    4.2149    5.2951   14.2126 H   0  0  0  0  0  0  0  0  0  0  0  0
    3.1093    6.9759   13.5439 C   0  0  0  0  0  0  0  0  0  0  0  0
    3.6115    6.6242   12.1806 C   0  0  0  0  0  0  0  0  0  0  0  0
    3.9518    5.4273   11.9913 O   0  0  0  0  0  0  0  0  0  0  0  0
    3.7340    7.5355   11.1169 N   0  0  0  0  0  0  0  0  0  0  0  0
    3.4435    8.5159   11.2468 H   0  0  0  0  0  0  0  0  0  0  0  0
    4.2654    7.0780    9.8647 C   0  0  0  0  0  0  0  0  0  0  0  0
    5.4606    7.9199    9.5460 C   0  0  0  0  0  0  0  0  0  0  0  0
    6.2214    8.6139   10.5114 N   0  0  0  0  0  0  0  0  0  0  0  0
    5.8350    8.0360    8.3542 O   0  0  0  0  0  0  0  0  0  0  0  0
    7.1129    8.2047   10.9165 H   0  0  0  0  0  0  0  0  0  0  0  0
    5.9836    9.5633   10.8952 H   0  0  0  0  0  0  0  0  0  0  0  0
    3.3501    6.9350    8.7223 C   0  0  0  0  0  0  0  0  0  0  0  0
    2.6143    8.0984    8.2651 C   0  0  0  0  0  0  0  0  0  0  0  0
    1.3414    7.9929    7.6942 C   0  0  0  0  0  0  0  0  0  0  0  0
    0.9474    9.2462    7.3704 N   0  0  0  0  0  0  0  0  0  0  0  0
    1.8975   10.1022    7.7079 C   0  0  0  0  0  0  0  0  0  0  0  0
    2.9127    9.3751    8.2554 N   0  0  0  0  0  0  0  0  0  0  0  0
    3.7676    9.8452    8.5821 H   0  0  0  0  0  0  0  0  0  0  0  0
    3.6299    8.3012   13.9721 C   0  0  0  0  0  0  0  0  0  0  0  0
    5.0270    8.2723   14.5189 C   0  0  0  0  0  0  0  0  0  0  0  0
    5.0007    7.8820   15.9630 C   0  0  0  0  0  0  0  0  0  0  0  0
    6.1080    7.2793   16.5543 N   0  0  0  0  0  0  0  0  0  0  0  0
    3.9598    8.1139   16.6094 O   0  0  0  0  0  0  0  0  0  0  0  0
    6.1360    6.2163   16.5766 H   0  0  0  0  0  0  0  0  0  0  0  0
    6.9395    7.7377   16.9942 H   0  0  0  0  0  0  0  0  0  0  0  0
    2.0796    2.8096   15.4458 C   0  0  0  0  0  0  0  0  0  0  0  0
    1.9641    2.7085   13.9974 C   0  0  0  0  0  0  0  0  0  0  0  0
    0.9213    3.2129   13.2470 C   0  0  0  0  0  0  0  0  0  0  0  0
    0.8290    3.0965   11.8620 C   0  0  0  0  0  0  0  0  0  0  0  0
    1.8145    2.4522   11.1981 C   0  0  0  0  0  0  0  0  0  0  0  0
    2.8828    1.9299   11.9074 C   0  0  0  0  0  0  0  0  0  0  0  0
    2.9533    2.0575   13.2797 C   0  0  0  0  0  0  0  0  0  0  0  0
 34 35  1  0  0  0
 35 36  1  0  0  0
 35 33  1  0  0  0
 33  6  1  0  0  0
  6  7  1  0  0  0
  7  8  1  0  0  0
  8  9  2  0  0  0
  8 11  1  0  0  0
 11 26  1  0  0  0
 26 27  1  0  0  0
 27 28  1  0  0  0
 28 29  1  0  0  0
 28 30  2  0  0  0
 11 12  1  0  0  0
 12 13  1  0  0  0
 13 14  2  0  0  0
 13 16  1  0  0  0
 16 17  1  0  0  0
 16 20  1  0  0  0
 20 21  1  0  0  0
 21 22  1  0  0  0
 22 23  1  0  0  0
 22 24  2  0  0  0
  6  2  1  0  0  0
  2  3  2  0  0  0
  2  4  1  0  0  0
  4  1  1  0  0  0
  1 66  1  0  0  0
 66 67  1  0  0  0
 67 68  2  0  0  0
 68 69  1  0  0  0
 69 70  2  0  0  0
 70 71  1  0  0  0
 71 72  2  0  0  0
  1 37  1  0  0  0
 37 38  2  0  0  0
 37 39  1  0  0  0
 39 41  1  0  0  0
 41 59  1  0  0  0
 59 60  1  0  0  0
 60 61  1  0  0  0
 61 62  1  0  0  0
 61 63  2  0  0  0
 41 42  1  0  0  0
 42 43  2  0  0  0
 42 44  1  0  0  0
 44 46  1  0  0  0
 46 52  1  0  0  0
 52 53  1  0  0  0
 53 54  2  0  0  0
 54 55  1  0  0  0
 55 56  2  0  0  0
 56 57  1  0  0  0
 46 47  1  0  0  0
 47 48  1  0  0  0
 47 49  2  0  0  0
 72 67  1  0  0  0
 57 53  1  0  0  0
  7 10  1  0  0  0
 29 31  1  0  0  0
 29 32  1  0  0  0
 12 15  1  0  0  0
 17 18  1  0  0  0
 17 19  1  0  0  0
 23 25  1  0  0  0
  4  5  1  0  0  0
 39 40  1  0  0  0
 62 64  1  0  0  0
 62 65  1  0  0  0
 44 45  1  0  0  0
 57 58  1  0  0  0
 48 50  1  0  0  0
 48 51  1  0  0  0
M  END
> <minimizedAffinity>
-7.48952

> <CNNscore>
0.1103820130

> <CNNaffinity>
6.9921493530

> <CNN_VS>
0.7718074918

> <CNNaffinity_variance>
0.2268390357

$$$$
[H]OC(=O)C([H])([H])C([H])([H])[C@@]([H])(C(=O)N([H])[C@]([H])(C(=O)N([H])[C@]([H])(C(=O)N([H])[C@]([H])(C(=O)N([H])[C@]([H])(C(=O)N([H])[C@]([H])(C(=O)N([H])[H])C([H])([H])c1c([H])nc([H])n1[H])C([H])([H])C([H])([H])C(=O)N([H])[H])C([H])([H])c1c([H])c([H])c([H])c([H])c1[H])C([H])([H])C([H])(C([H])([H])[H])C([H])([H])[H])C([H])([H])C([H])([H])C(=O)N([H])[H])N([H])[H]


 72 73  0  0  0  0  0  0  0  0999 V2000
    3.5422    5.9523   15.6866 C   0  0  0  0  0  0  0  0  0  0  0  0
    4.4110    6.6418   17.9248 C   0  0  0  0  0  0  0  0  0  0  0  0
    5.5007    6.0072   17.6140 O   0  0  0  0  0  0  0  0  0  0  0  0
    3.3904    6.6239   16.9141 N   0  0  0  0  0  0  0  0  0  0  0  0
    2.4997    7.1074   17.1265 H   0  0  0  0  0  0  0  0  0  0  0  0
    4.3959    7.2422   19.2288 C   0  0  0  0  0  0  0  0  0  0  0  0
    5.4822    6.6430   20.0784 N   0  0  0  0  0  0  0  0  0  0  0  0
    5.2204    5.6603   21.0434 C   0  0  0  0  0  0  0  0  0  0  0  0
    4.0393    5.2632   21.2006 O   0  0  0  0  0  0  0  0  0  0  0  0
    6.4552    6.9663   19.9316 H   0  0  0  0  0  0  0  0  0  0  0  0
    6.2754    5.0595   21.8936 C   0  0  0  0  0  0  0  0  0  0  0  0
    6.7080    5.9321   22.9359 N   0  0  0  0  0  0  0  0  0  0  0  0
    7.7010    6.8859   22.7281 C   0  0  0  0  0  0  0  0  0  0  0  0
    8.2368    7.0027   21.6063 O   0  0  0  0  0  0  0  0  0  0  0  0
    6.2698    5.8677   23.9022 H   0  0  0  0  0  0  0  0  0  0  0  0
    8.1795    7.8142   23.8231 C   0  0  0  0  0  0  0  0  0  0  0  0
    7.0322    8.0068   24.7015 N   0  0  0  0  0  0  0  0  0  0  0  0
    6.1736    8.3208   24.1917 H   0  0  0  0  0  0  0  0  0  0  0  0
    6.8610    7.1684   25.3090 H   0  0  0  0  0  0  0  0  0  0  0  0
    9.2912    7.2028   24.6030 C   0  0  0  0  0  0  0  0  0  0  0  0
   10.6335    7.5736   24.0673 C   0  0  0  0  0  0  0  0  0  0  0  0
   11.6668    6.5474   24.0948 C   0  0  0  0  0  0  0  0  0  0  0  0
   12.9946    6.9033   23.9423 O   0  0  0  0  0  0  0  0  0  0  0  0
   11.3881    5.3291   24.2531 O   0  0  0  0  0  0  0  0  0  0  0  0
   13.4578    6.6689   23.0821 H   0  0  0  0  0  0  0  0  0  0  0  0
    5.8909    3.7358   22.4638 C   0  0  0  0  0  0  0  0  0  0  0  0
    6.3377    2.5581   21.6389 C   0  0  0  0  0  0  0  0  0  0  0  0
    5.2866    1.6698   21.1620 C   0  0  0  0  0  0  0  0  0  0  0  0
    4.0210    2.2344   20.7566 N   0  0  0  0  0  0  0  0  0  0  0  0
    5.3865    0.4294   21.0671 O   0  0  0  0  0  0  0  0  0  0  0  0
    3.9183    3.2272   20.4756 H   0  0  0  0  0  0  0  0  0  0  0  0
    3.1415    1.6465   20.7293 H   0  0  0  0  0  0  0  0  0  0  0  0
    4.4473    8.6543   19.5121 C   0  0  0  0  0  0  0  0  0  0  0  0
    5.2953   10.8754   20.1187 C   0  0  0  0  0  0  0  0  0  0  0  0
    5.4078    9.3295   20.3914 C   0  0  0  0  0  0  0  0  0  0  0  0
    5.0770    9.2382   21.8743 C   0  0  0  0  0  0  0  0  0  0  0  0
    3.6055    6.7945   14.4339 C   0  0  0  0  0  0  0  0  0  0  0  0
    4.3143    7.8045   14.4724 O   0  0  0  0  0  0  0  0  0  0  0  0
    2.8570    6.3780   13.3481 N   0  0  0  0  0  0  0  0  0  0  0  0
    2.3721    5.3678   13.6038 H   0  0  0  0  0  0  0  0  0  0  0  0
    2.5187    6.7957   12.0436 C   0  0  0  0  0  0  0  0  0  0  0  0
    1.0320    6.7622   11.8913 C   0  0  0  0  0  0  0  0  0  0  0  0
    0.5358    7.4926   10.9943 O   0  0  0  0  0  0  0  0  0  0  0  0
    0.1673    5.9849   12.6819 N   0  0  0  0  0  0  0  0  0  0  0  0
    0.5558    5.3668   13.4094 H   0  0  0  0  0  0  0  0  0  0  0  0
   -1.2477    6.0701   12.4578 C   0  0  0  0  0  0  0  0  0  0  0  0
   -1.8620    6.6870   13.6748 C   0  0  0  0  0  0  0  0  0  0  0  0
   -3.1830    7.1811   13.7320 N   0  0  0  0  0  0  0  0  0  0  0  0
   -1.1853    6.7856   14.7265 O   0  0  0  0  0  0  0  0  0  0  0  0
   -3.9806    6.5940   14.1134 H   0  0  0  0  0  0  0  0  0  0  0  0
   -3.4804    8.1396   13.4187 H   0  0  0  0  0  0  0  0  0  0  0  0
   -1.9626    4.8658   12.0087 C   0  0  0  0  0  0  0  0  0  0  0  0
   -3.2689    5.0151   11.3960 C   0  0  0  0  0  0  0  0  0  0  0  0
   -3.4508    5.7193   10.2009 C   0  0  0  0  0  0  0  0  0  0  0  0
   -4.7726    5.6793    9.9148 N   0  0  0  0  0  0  0  0  0  0  0  0
   -5.4017    4.9974   10.8574 C   0  0  0  0  0  0  0  0  0  0  0  0
   -4.4586    4.5990   11.7578 N   0  0  0  0  0  0  0  0  0  0  0  0
   -4.7327    4.0564   12.5878 H   0  0  0  0  0  0  0  0  0  0  0  0
    3.1844    6.2056   10.8524 C   0  0  0  0  0  0  0  0  0  0  0  0
    4.6274    6.5865   10.6950 C   0  0  0  0  0  0  0  0  0  0  0  0
    5.5015    5.4200   11.0320 C   0  0  0  0  0  0  0  0  0  0  0  0
    6.8878    5.5288   10.9577 N   0  0  0  0  0  0  0  0  0  0  0  0
    4.9468    4.3579   11.3773 O   0  0  0  0  0  0  0  0  0  0  0  0
    7.3562    5.2347   10.0491 H   0  0  0  0  0  0  0  0  0  0  0  0
    7.5531    5.8668   11.6913 H   0  0  0  0  0  0  0  0  0  0  0  0
    2.3576    4.9885   15.4294 C   0  0  0  0  0  0  0  0  0  0  0  0
    2.6744    3.6054   15.7581 C   0  0  0  0  0  0  0  0  0  0  0  0
    3.3221    3.1900   16.9040 C   0  0  0  0  0  0  0  0  0  0  0  0
    3.6214    1.8606   17.1928 C   0  0  0  0  0  0  0  0  0  0  0  0
    3.2613    0.9071   16.3049 C   0  0  0  0  0  0  0  0  0  0  0  0
    2.6078    1.2745   15.1409 C   0  0  0  0  0  0  0  0  0  0  0  0
    2.3213    2.5982   14.8759 C   0  0  0  0  0  0  0  0  0  0  0  0
 34 35  1  0  0  0
 35 36  1  0  0  0
 35 33  1  0  0  0
 33  6  1  0  0  0
  6  7  1  0  0  0
  7  8  1  0  0  0
  8  9  2  0  0  0
  8 11  1  0  0  0
 11 26  1  0  0  0
 26 27  1  0  0  0
 27 28  1  0  0  0
 28 29  1  0  0  0
 28 30  2  0  0  0
 11 12  1  0  0  0
 12 13  1  0  0  0
 13 14  2  0  0  0
 13 16  1  0  0  0
 16 17  1  0  0  0
 16 20  1  0  0  0
 20 21  1  0  0  0
 21 22  1  0  0  0
 22 23  1  0  0  0
 22 24  2  0  0  0
  6  2  1  0  0  0
  2  3  2  0  0  0
  2  4  1  0  0  0
  4  1  1  0  0  0
  1 66  1  0  0  0
 66 67  1  0  0  0
 67 68  2  0  0  0
 68 69  1  0  0  0
 69 70  2  0  0  0
 70 71  1  0  0  0
 71 72  2  0  0  0
  1 37  1  0  0  0
 37 38  2  0  0  0
 37 39  1  0  0  0
 39 41  1  0  0  0
 41 59  1  0  0  0
 59 60  1  0  0  0
 60 61  1  0  0  0
 61 62  1  0  0  0
 61 63  2  0  0  0
 41 42  1  0  0  0
 42 43  2  0  0  0
 42 44  1  0  0  0
 44 46  1  0  0  0
 46 52  1  0  0  0
 52 53  1  0  0  0
 53 54  2  0  0  0
 54 55  1  0  0  0
 55 56  2  0  0  0
 56 57  1  0  0  0
 46 47  1  0  0  0
 47 48  1  0  0  0
 47 49  2  0  0  0
 72 67  1  0  0  0
 57 53  1  0  0  0
  7 10  1  0  0  0
 29 31  1  0  0  0
 29 32  1  0  0  0
 12 15  1  0  0  0
 17 18  1  0  0  0
 17 19  1  0  0  0
 23 25  1  0  0  0
  4  5  1  0  0  0
 39 40  1  0  0  0
 62 64  1  0  0  0
 62 65  1  0  0  0
 44 45  1  0  0  0
 57 58  1  0  0  0
 48 50  1  0  0  0
 48 51  1  0  0  0
M  END
> <minimizedAffinity>
-8.54164

> <CNNscore>
0.1044214368

> <CNNaffinity>
6.8558950424

> <CNN_VS>
0.7159023881

> <CNNaffinity_variance>
0.4500092864

$$$$
[H]c1nc2c([H])c([H])c([H])c([H])n2c1C#Cc1c([H])c(C(=O)N([H])c2c([H])c([H])c(C([H])([H])N3C([H])([H])C([H])([H])N(C([H])([H])[H])C([H])([H])C3([H])[H])c(C(F)(F)F)c2[H])c([H])c([H])c1C([H])([H])[H]


 40 44  0  0  0  0  0  0  0  0999 V2000
    3.9867    2.6804   17.4172 N   0  0  0  0  0  0  0  0  0  0  0  0
    3.7635    1.6985   18.3758 C   0  0  0  0  0  0  0  0  0  0  0  0
    3.1479    0.6481   18.1047 O   0  0  0  0  0  0  0  0  0  0  0  0
    4.5305    3.5413   17.7564 H   0  0  0  0  0  0  0  0  0  0  0  0
    4.2263    1.8154   19.7596 C   0  0  0  0  0  0  0  0  0  0  0  0
    3.9376    0.8670   20.7131 C   0  0  0  0  0  0  0  0  0  0  0  0
    4.3578    0.9535   22.0395 C   0  0  0  0  0  0  0  0  0  0  0  0
    5.1023    2.0592   22.3902 C   0  0  0  0  0  0  0  0  0  0  0  0
    5.6043    2.2525   23.7850 C   0  0  0  0  0  0  0  0  0  0  0  0
    5.4209    3.0452   21.4645 C   0  0  0  0  0  0  0  0  0  0  0  0
    4.9745    2.8977   20.1730 C   0  0  0  0  0  0  0  0  0  0  0  0
    6.1987    4.2017   21.8278 C   0  0  0  0  0  0  0  0  0  0  0  0
    6.8601    5.1748   22.1191 C   0  0  0  0  0  0  0  0  0  0  0  0
    7.6586    6.3361   22.4435 C   0  0  0  0  0  0  0  0  0  0  0  0
    7.1462    7.5757   22.6956 C   0  0  0  0  0  0  0  0  0  0  0  0
    8.1943    8.3699   22.9518 N   0  0  0  0  0  0  0  0  0  0  0  0
    9.3306    7.6622   22.8659 C   0  0  0  0  0  0  0  0  0  0  0  0
   10.6705    7.9613   23.0276 C   0  0  0  0  0  0  0  0  0  0  0  0
   11.6602    7.0376   22.8816 C   0  0  0  0  0  0  0  0  0  0  0  0
   11.2968    5.7521   22.5585 C   0  0  0  0  0  0  0  0  0  0  0  0
    9.9690    5.4554   22.3983 C   0  0  0  0  0  0  0  0  0  0  0  0
    8.9956    6.4035   22.5511 N   0  0  0  0  0  0  0  0  0  0  0  0
    2.8806    2.9110   13.2909 C   0  0  0  0  0  0  0  0  0  0  0  0
    2.7634    1.7324   13.9977 C   0  0  0  0  0  0  0  0  0  0  0  0
    3.1134    1.6292   15.3539 C   0  0  0  0  0  0  0  0  0  0  0  0
    3.5952    2.7011   16.0552 C   0  0  0  0  0  0  0  0  0  0  0  0
    3.7073    3.8799   15.3276 C   0  0  0  0  0  0  0  0  0  0  0  0
    3.3656    3.9945   13.9914 C   0  0  0  0  0  0  0  0  0  0  0  0
    3.5373    5.3016   13.3152 C   0  0  0  0  0  0  0  0  0  0  0  0
    2.4014    5.8791   12.8522 F   0  0  0  0  0  0  0  0  0  0  0  0
    4.5772    5.2778   12.3724 F   0  0  0  0  0  0  0  0  0  0  0  0
    4.0307    6.2223   14.2709 F   0  0  0  0  0  0  0  0  0  0  0  0
    2.5420    3.0611   11.8796 C   0  0  0  0  0  0  0  0  0  0  0  0
    2.2438    3.5203    7.8603 C   0  0  0  0  0  0  0  0  0  0  0  0
    1.2522    2.8473    8.6449 N   0  0  0  0  0  0  0  0  0  0  0  0
    0.3188    3.6800    9.3172 C   0  0  0  0  0  0  0  0  0  0  0  0
    0.6529    4.0226   10.7398 C   0  0  0  0  0  0  0  0  0  0  0  0
    1.1592    2.9395   11.5192 N   0  0  0  0  0  0  0  0  0  0  0  0
    1.0140    1.7226   10.7443 C   0  0  0  0  0  0  0  0  0  0  0  0
    1.7342    1.7656    9.4374 C   0  0  0  0  0  0  0  0  0  0  0  0
 34 35  1  0  0  0
 35 36  1  0  0  0
 36 37  1  0  0  0
 37 38  1  0  0  0
 38 33  1  0  0  0
 33 23  1  0  0  0
 23 24  2  0  0  0
 24 25  1  0  0  0
 25 26  2  0  0  0
 26  1  1  0  0  0
  1  2  1  0  0  0
  2  3  2  0  0  0
  2  5  1  0  0  0
  5  6  2  0  0  0
  6  7  1  0  0  0
  7  8  2  0  0  0
  8  9  1  0  0  0
  8 10  1  0  0  0
 10 11  2  0  0  0
 10 12  1  0  0  0
 12 13  3  0  0  0
 13 14  1  0  0  0
 14 15  2  0  0  0
 15 16  1  0  0  0
 16 17  2  0  0  0
 17 18  1  0  0  0
 18 19  2  0  0  0
 19 20  1  0  0  0
 20 21  2  0  0  0
 21 22  1  0  0  0
 26 27  1  0  0  0
 27 28  2  0  0  0
 28 29  1  0  0  0
 29 30  1  0  0  0
 29 31  1  0  0  0
 29 32  1  0  0  0
 38 39  1  0  0  0
 39 40  1  0  0  0
 40 35  1  0  0  0
 28 23  1  0  0  0
 11  5  1  0  0  0
 22 14  1  0  0  0
 22 17  1  0  0  0
  1  4  1  0  0  0
M  END
> <minimizedAffinity>
-9.09282

> <CNNscore>
0.4081421196

> <CNNaffinity>
6.6831579208

> <CNN_VS>
2.7276782990

> <CNNaffinity_variance>
0.1417104453

$$$$
[H]c1nc2c([H])c([H])c([H])c([H])n2c1C#Cc1c([H])c(C(=O)N([H])c2c([H])c([H])c(C([H])([H])N3C([H])([H])C([H])([H])N(C([H])([H])[H])C([H])([H])C3([H])[H])c(C(F)(F)F)c2[H])c([H])c([H])c1C([H])([H])[H]


 40 44  0  0  0  0  0  0  0  0999 V2000
    3.7412    3.0719   15.7042 N   0  0  0  0  0  0  0  0  0  0  0  0
    3.5686    1.8900   16.4156 C   0  0  0  0  0  0  0  0  0  0  0  0
    3.2141    0.8344   15.8537 O   0  0  0  0  0  0  0  0  0  0  0  0
    4.0521    3.9191   16.2851 H   0  0  0  0  0  0  0  0  0  0  0  0
    3.7862    1.7897   17.8597 C   0  0  0  0  0  0  0  0  0  0  0  0
    3.3417    0.7167   18.5966 C   0  0  0  0  0  0  0  0  0  0  0  0
    3.5274    0.5958   19.9729 C   0  0  0  0  0  0  0  0  0  0  0  0
    4.1960    1.6205   20.6075 C   0  0  0  0  0  0  0  0  0  0  0  0
    4.4501    1.5933   22.0804 C   0  0  0  0  0  0  0  0  0  0  0  0
    4.6651    2.7259   19.9084 C   0  0  0  0  0  0  0  0  0  0  0  0
    4.4478    2.7818   18.5524 C   0  0  0  0  0  0  0  0  0  0  0  0
    5.3642    3.7983   20.5686 C   0  0  0  0  0  0  0  0  0  0  0  0
    5.9582    4.6902   21.1349 C   0  0  0  0  0  0  0  0  0  0  0  0
    6.6769    5.7377   21.8263 C   0  0  0  0  0  0  0  0  0  0  0  0
    7.8584    5.5544   22.4843 C   0  0  0  0  0  0  0  0  0  0  0  0
    8.1973    6.7494   22.9867 N   0  0  0  0  0  0  0  0  0  0  0  0
    7.2663    7.6583   22.6604 C   0  0  0  0  0  0  0  0  0  0  0  0
    7.1069    9.0095   22.9050 C   0  0  0  0  0  0  0  0  0  0  0  0
    6.0417    9.7256   22.4503 C   0  0  0  0  0  0  0  0  0  0  0  0
    5.0882    9.0625   21.7154 C   0  0  0  0  0  0  0  0  0  0  0  0
    5.2461    7.7234   21.4729 C   0  0  0  0  0  0  0  0  0  0  0  0
    6.3264    7.0289   21.9421 N   0  0  0  0  0  0  0  0  0  0  0  0
    3.0587    3.6809   11.5249 C   0  0  0  0  0  0  0  0  0  0  0  0
    3.9533    4.4635   12.2246 C   0  0  0  0  0  0  0  0  0  0  0  0
    4.2013    4.2824   13.5951 C   0  0  0  0  0  0  0  0  0  0  0  0
    3.5631    3.3118   14.3187 C   0  0  0  0  0  0  0  0  0  0  0  0
    2.6651    2.5333   13.5981 C   0  0  0  0  0  0  0  0  0  0  0  0
    2.4122    2.7016   12.2480 C   0  0  0  0  0  0  0  0  0  0  0  0
    1.4247    1.8173   11.5860 C   0  0  0  0  0  0  0  0  0  0  0  0
    0.7174    1.0042   12.4086 F   0  0  0  0  0  0  0  0  0  0  0  0
    1.9690    1.1531   10.4755 F   0  0  0  0  0  0  0  0  0  0  0  0
    0.4431    2.6397   10.9822 F   0  0  0  0  0  0  0  0  0  0  0  0
    2.7600    3.8414   10.1057 C   0  0  0  0  0  0  0  0  0  0  0  0
    1.5996    3.6424    6.2239 C   0  0  0  0  0  0  0  0  0  0  0  0
    1.4061    4.8051    7.0380 N   0  0  0  0  0  0  0  0  0  0  0  0
    2.5319    5.6582    7.1836 C   0  0  0  0  0  0  0  0  0  0  0  0
    3.3783    5.4235    8.4008 C   0  0  0  0  0  0  0  0  0  0  0  0
    2.6511    5.1807    9.6046 N   0  0  0  0  0  0  0  0  0  0  0  0
    1.2485    5.4371    9.3411 C   0  0  0  0  0  0  0  0  0  0  0  0
    0.6881    4.5873    8.2494 C   0  0  0  0  0  0  0  0  0  0  0  0
 34 35  1  0  0  0
 35 36  1  0  0  0
 36 37  1  0  0  0
 37 38  1  0  0  0
 38 33  1  0  0  0
 33 23  1  0  0  0
 23 24  2  0  0  0
 24 25  1  0  0  0
 25 26  2  0  0  0
 26  1  1  0  0  0
  1  2  1  0  0  0
  2  3  2  0  0  0
  2  5  1  0  0  0
  5  6  2  0  0  0
  6  7  1  0  0  0
  7  8  2  0  0  0
  8  9  1  0  0  0
  8 10  1  0  0  0
 10 11  2  0  0  0
 10 12  1  0  0  0
 12 13  3  0  0  0
 13 14  1  0  0  0
 14 15  2  0  0  0
 15 16  1  0  0  0
 16 17  2  0  0  0
 17 18  1  0  0  0
 18 19  2  0  0  0
 19 20  1  0  0  0
 20 21  2  0  0  0
 21 22  1  0  0  0
 26 27  1  0  0  0
 27 28  2  0  0  0
 28 29  1  0  0  0
 29 30  1  0  0  0
 29 31  1  0  0  0
 29 32  1  0  0  0
 38 39  1  0  0  0
 39 40  1  0  0  0
 40 35  1  0  0  0
 28 23  1  0  0  0
 11  5  1  0  0  0
 22 14  1  0  0  0
 22 17  1  0  0  0
  1  4  1  0  0  0
M  END
> <minimizedAffinity>
-8.58131

> <CNNscore>
0.3530877531

> <CNNaffinity>
6.4837241173

> <CNN_VS>
2.2893235683

> <CNNaffinity_variance>
0.2741019726

$$$$
[H]c1nc2c([H])c([H])c([H])c([H])n2c1C#Cc1c([H])c(C(=O)N([H])c2c([H])c([H])c(C([H])([H])N3C([H])([H])C([H])([H])N(C([H])([H])[H])C([H])([H])C3([H])[H])c(C(F)(F)F)c2[H])c([H])c([H])c1C([H])([H])[H]


 40 44  0  0  0  0  0  0  0  0999 V2000
    3.6015    3.0661   16.4283 N   0  0  0  0  0  0  0  0  0  0  0  0
    3.5801    2.1168   17.4438 C   0  0  0  0  0  0  0  0  0  0  0  0
    2.9616    1.0408   17.3201 O   0  0  0  0  0  0  0  0  0  0  0  0
    4.1674    3.9536   16.6381 H   0  0  0  0  0  0  0  0  0  0  0  0
    4.2718    2.2999   18.7209 C   0  0  0  0  0  0  0  0  0  0  0  0
    4.6851    1.2378   19.4911 C   0  0  0  0  0  0  0  0  0  0  0  0
    5.3393    1.3797   20.7138 C   0  0  0  0  0  0  0  0  0  0  0  0
    5.5737    2.6648   21.1537 C   0  0  0  0  0  0  0  0  0  0  0  0
    6.2677    2.9321   22.4505 C   0  0  0  0  0  0  0  0  0  0  0  0
    5.1763    3.7711   20.4130 C   0  0  0  0  0  0  0  0  0  0  0  0
    4.5355    3.5599   19.2157 C   0  0  0  0  0  0  0  0  0  0  0  0
    5.4198    5.1152   20.8699 C   0  0  0  0  0  0  0  0  0  0  0  0
    5.6136    6.2516   21.2442 C   0  0  0  0  0  0  0  0  0  0  0  0
    5.8265    7.6155   21.6759 C   0  0  0  0  0  0  0  0  0  0  0  0
    5.0864    8.6807   21.2514 C   0  0  0  0  0  0  0  0  0  0  0  0
    5.5878    9.7570   21.8720 N   0  0  0  0  0  0  0  0  0  0  0  0
    6.6083    9.3901   22.6615 C   0  0  0  0  0  0  0  0  0  0  0  0
    7.4670   10.0658   23.5083 C   0  0  0  0  0  0  0  0  0  0  0  0
    8.4493    9.4459   24.2189 C   0  0  0  0  0  0  0  0  0  0  0  0
    8.5825    8.0852   24.0788 C   0  0  0  0  0  0  0  0  0  0  0  0
    7.7316    7.4153   23.2397 C   0  0  0  0  0  0  0  0  0  0  0  0
    6.7536    8.0638   22.5379 N   0  0  0  0  0  0  0  0  0  0  0  0
    1.6712    3.1124   12.6106 C   0  0  0  0  0  0  0  0  0  0  0  0
    2.4861    2.0652   12.9870 C   0  0  0  0  0  0  0  0  0  0  0  0
    3.1276    2.0209   14.2355 C   0  0  0  0  0  0  0  0  0  0  0  0
    2.9794    3.0232   15.1556 C   0  0  0  0  0  0  0  0  0  0  0  0
    2.1556    4.0702   14.7596 C   0  0  0  0  0  0  0  0  0  0  0  0
    1.5178    4.1254   13.5327 C   0  0  0  0  0  0  0  0  0  0  0  0
    0.6702    5.2985   13.2154 C   0  0  0  0  0  0  0  0  0  0  0  0
   -0.6238    5.0266   12.9159 F   0  0  0  0  0  0  0  0  0  0  0  0
    1.2864    6.1650   12.2988 F   0  0  0  0  0  0  0  0  0  0  0  0
    0.5960    6.1059   14.3760 F   0  0  0  0  0  0  0  0  0  0  0  0
    0.9959    3.2068   11.3206 C   0  0  0  0  0  0  0  0  0  0  0  0
   -0.7524    1.7656    7.9559 C   0  0  0  0  0  0  0  0  0  0  0  0
    0.1361    2.8893    7.9543 N   0  0  0  0  0  0  0  0  0  0  0  0
    1.5234    2.5869    7.9697 C   0  0  0  0  0  0  0  0  0  0  0  0
    2.1744    2.5674    9.3220 C   0  0  0  0  0  0  0  0  0  0  0  0
    1.7822    3.6250   10.1965 N   0  0  0  0  0  0  0  0  0  0  0  0
    0.9880    4.5676    9.4329 C   0  0  0  0  0  0  0  0  0  0  0  0
   -0.2305    3.9563    8.8248 C   0  0  0  0  0  0  0  0  0  0  0  0
 34 35  1  0  0  0
 35 36  1  0  0  0
 36 37  1  0  0  0
 37 38  1  0  0  0
 38 33  1  0  0  0
 33 23  1  0  0  0
 23 24  2  0  0  0
 24 25  1  0  0  0
 25 26  2  0  0  0
 26  1  1  0  0  0
  1  2  1  0  0  0
  2  3  2  0  0  0
  2  5  1  0  0  0
  5  6  2  0  0  0
  6  7  1  0  0  0
  7  8  2  0  0  0
  8  9  1  0  0  0
  8 10  1  0  0  0
 10 11  2  0  0  0
 10 12  1  0  0  0
 12 13  3  0  0  0
 13 14  1  0  0  0
 14 15  2  0  0  0
 15 16  1  0  0  0
 16 17  2  0  0  0
 17 18  1  0  0  0
 18 19  2  0  0  0
 19 20  1  0  0  0
 20 21  2  0  0  0
 21 22  1  0  0  0
 26 27  1  0  0  0
 27 28  2  0  0  0
 28 29  1  0  0  0
 29 30  1  0  0  0
 29 31  1  0  0  0
 29 32  1  0  0  0
 38 39  1  0  0  0
 39 40  1  0  0  0
 40 35  1  0  0  0
 28 23  1  0  0  0
 11  5  1  0  0  0
 22 14  1  0  0  0
 22 17  1  0  0  0
  1  4  1  0  0  0
M  END
> <minimizedAffinity>
-8.63326

> <CNNscore>
0.3404527903

> <CNNaffinity>
6.4162788391

> <CNN_VS>
2.1844401360

> <CNNaffinity_variance>
0.2355250567

$$$$
[H]c1nc2c([H])c([H])c([H])c([H])n2c1C#Cc1c([H])c(C(=O)N([H])c2c([H])c([H])c(C([H])([H])N3C([H])([H])C([H])([H])N(C([H])([H])[H])C([H])([H])C3([H])[H])c(C(F)(F)F)c2[H])c([H])c([H])c1C([H])([H])[H]


 40 44  0  0  0  0  0  0  0  0999 V2000
    3.6129    2.6100   16.0774 N   0  0  0  0  0  0  0  0  0  0  0  0
    3.4512    1.4916   16.8873 C   0  0  0  0  0  0  0  0  0  0  0  0
    3.0477    0.4045   16.4280 O   0  0  0  0  0  0  0  0  0  0  0  0
    3.9696    3.4920   16.5742 H   0  0  0  0  0  0  0  0  0  0  0  0
    3.7377    1.4988   18.3229 C   0  0  0  0  0  0  0  0  0  0  0  0
    3.3478    0.4750   19.1547 C   0  0  0  0  0  0  0  0  0  0  0  0
    3.5997    0.4563   20.5256 C   0  0  0  0  0  0  0  0  0  0  0  0
    4.2782    1.5339   21.0530 C   0  0  0  0  0  0  0  0  0  0  0  0
    4.6010    1.6166   22.5103 C   0  0  0  0  0  0  0  0  0  0  0  0
    4.6937    2.5931   20.2554 C   0  0  0  0  0  0  0  0  0  0  0  0
    4.4125    2.5481   18.9108 C   0  0  0  0  0  0  0  0  0  0  0  0
    5.4030    3.7206   20.8035 C   0  0  0  0  0  0  0  0  0  0  0  0
    6.0065    4.6597   21.2756 C   0  0  0  0  0  0  0  0  0  0  0  0
    6.7379    5.7647   21.8549 C   0  0  0  0  0  0  0  0  0  0  0  0
    7.9656    5.6516   22.4403 C   0  0  0  0  0  0  0  0  0  0  0  0
    8.3013    6.8827   22.8488 N   0  0  0  0  0  0  0  0  0  0  0  0
    7.3239    7.7462   22.5349 C   0  0  0  0  0  0  0  0  0  0  0  0
    7.1408    9.1049   22.7116 C   0  0  0  0  0  0  0  0  0  0  0  0
    6.0268    9.7649   22.2901 C   0  0  0  0  0  0  0  0  0  0  0  0
    5.0467    9.0347   21.6613 C   0  0  0  0  0  0  0  0  0  0  0  0
    5.2281    7.6882   21.4861 C   0  0  0  0  0  0  0  0  0  0  0  0
    6.3575    7.0510   21.9198 N   0  0  0  0  0  0  0  0  0  0  0  0
    3.0006    3.1634   11.8796 C   0  0  0  0  0  0  0  0  0  0  0  0
    2.5278    2.0423   12.5293 C   0  0  0  0  0  0  0  0  0  0  0  0
    2.7093    1.8373   13.9068 C   0  0  0  0  0  0  0  0  0  0  0  0
    3.3716    2.7456   14.6874 C   0  0  0  0  0  0  0  0  0  0  0  0
    3.8414    3.8684   14.0164 C   0  0  0  0  0  0  0  0  0  0  0  0
    3.6689    4.0821   12.6601 C   0  0  0  0  0  0  0  0  0  0  0  0
    4.2230    5.3136   12.0503 C   0  0  0  0  0  0  0  0  0  0  0  0
    4.4930    6.3266   12.9099 F   0  0  0  0  0  0  0  0  0  0  0  0
    3.4960    5.7182   10.9195 F   0  0  0  0  0  0  0  0  0  0  0  0
    5.4815    4.9901   11.4880 F   0  0  0  0  0  0  0  0  0  0  0  0
    2.8470    3.4117   10.4500 C   0  0  0  0  0  0  0  0  0  0  0  0
    3.5436    5.0785    6.8180 C   0  0  0  0  0  0  0  0  0  0  0  0
    4.1138    3.8295    7.2261 N   0  0  0  0  0  0  0  0  0  0  0  0
    3.2733    2.6914    7.1047 C   0  0  0  0  0  0  0  0  0  0  0  0
    2.5131    2.3040    8.3396 C   0  0  0  0  0  0  0  0  0  0  0  0
    3.2596    2.3705    9.5542 N   0  0  0  0  0  0  0  0  0  0  0  0
    4.6488    2.6096    9.2147 C   0  0  0  0  0  0  0  0  0  0  0  0
    4.8589    3.8683    8.4402 C   0  0  0  0  0  0  0  0  0  0  0  0
 34 35  1  0  0  0
 35 36  1  0  0  0
 36 37  1  0  0  0
 37 38  1  0  0  0
 38 33  1  0  0  0
 33 23  1  0  0  0
 23 24  2  0  0  0
 24 25  1  0  0  0
 25 26  2  0  0  0
 26  1  1  0  0  0
  1  2  1  0  0  0
  2  3  2  0  0  0
  2  5  1  0  0  0
  5  6  2  0  0  0
  6  7  1  0  0  0
  7  8  2  0  0  0
  8  9  1  0  0  0
  8 10  1  0  0  0
 10 11  2  0  0  0
 10 12  1  0  0  0
 12 13  3  0  0  0
 13 14  1  0  0  0
 14 15  2  0  0  0
 15 16  1  0  0  0
 16 17  2  0  0  0
 17 18  1  0  0  0
 18 19  2  0  0  0
 19 20  1  0  0  0
 20 21  2  0  0  0
 21 22  1  0  0  0
 26 27  1  0  0  0
 27 28  2  0  0  0
 28 29  1  0  0  0
 29 30  1  0  0  0
 29 31  1  0  0  0
 29 32  1  0  0  0
 38 39  1  0  0  0
 39 40  1  0  0  0
 40 35  1  0  0  0
 28 23  1  0  0  0
 11  5  1  0  0  0
 22 14  1  0  0  0
 22 17  1  0  0  0
  1  4  1  0  0  0
M  END
> <minimizedAffinity>
-9.13244

> <CNNscore>
0.3273173869

> <CNNaffinity>
6.6128273010

> <CNN_VS>
2.1644933224

> <CNNaffinity_variance>
0.3406655788

$$$$
[H]c1nc2c([H])c([H])c([H])c([H])n2c1C#Cc1c([H])c(C(=O)N([H])c2c([H])c([H])c(C([H])([H])N3C([H])([H])C([H])([H])N(C([H])([H])[H])C([H])([H])C3([H])[H])c(C(F)(F)F)c2[H])c([H])c([H])c1C([H])([H])[H]


 40 44  0  0  0  0  0  0  0  0999 V2000
    3.5139    3.1069   16.1607 N   0  0  0  0  0  0  0  0  0  0  0  0
    3.5131    2.1973   17.2122 C   0  0  0  0  0  0  0  0  0  0  0  0
    2.9073    1.1098   17.1355 O   0  0  0  0  0  0  0  0  0  0  0  0
    4.0702    4.0088   16.3312 H   0  0  0  0  0  0  0  0  0  0  0  0
    4.2129    2.4382   18.4752 C   0  0  0  0  0  0  0  0  0  0  0  0
    4.4981    1.4256   19.3614 C   0  0  0  0  0  0  0  0  0  0  0  0
    5.1565    1.6241   20.5740 C   0  0  0  0  0  0  0  0  0  0  0  0
    5.5324    2.9146   20.8791 C   0  0  0  0  0  0  0  0  0  0  0  0
    6.2440    3.2406   22.1527 C   0  0  0  0  0  0  0  0  0  0  0  0
    5.2679    3.9723   20.0177 C   0  0  0  0  0  0  0  0  0  0  0  0
    4.6148    3.7066   18.8380 C   0  0  0  0  0  0  0  0  0  0  0  0
    5.6595    5.3220   20.3336 C   0  0  0  0  0  0  0  0  0  0  0  0
    5.9890    6.4612   20.5838 C   0  0  0  0  0  0  0  0  0  0  0  0
    6.3805    7.8262   20.8580 C   0  0  0  0  0  0  0  0  0  0  0  0
    7.4615    8.1793   21.6125 C   0  0  0  0  0  0  0  0  0  0  0  0
    7.4852    9.5188   21.6303 N   0  0  0  0  0  0  0  0  0  0  0  0
    6.4579    9.9995   20.9140 C   0  0  0  0  0  0  0  0  0  0  0  0
    6.0076   11.2683   20.6008 C   0  0  0  0  0  0  0  0  0  0  0  0
    4.9066   11.4968   19.8329 C   0  0  0  0  0  0  0  0  0  0  0  0
    4.2204   10.4069   19.3532 C   0  0  0  0  0  0  0  0  0  0  0  0
    4.6666    9.1493   19.6634 C   0  0  0  0  0  0  0  0  0  0  0  0
    5.7759    8.9492   20.4373 N   0  0  0  0  0  0  0  0  0  0  0  0
    1.5431    2.9785   12.3657 C   0  0  0  0  0  0  0  0  0  0  0  0
    2.4246    1.9887   12.7473 C   0  0  0  0  0  0  0  0  0  0  0  0
    3.0812    2.0022   13.9887 C   0  0  0  0  0  0  0  0  0  0  0  0
    2.8818    3.0072   14.8961 C   0  0  0  0  0  0  0  0  0  0  0  0
    1.9913    3.9960   14.4950 C   0  0  0  0  0  0  0  0  0  0  0  0
    1.3381    3.9939   13.2750 C   0  0  0  0  0  0  0  0  0  0  0  0
    0.4168    5.1082   12.9511 C   0  0  0  0  0  0  0  0  0  0  0  0
   -0.8842    4.7666   12.7814 F   0  0  0  0  0  0  0  0  0  0  0  0
    0.9176    5.9294   11.9284 F   0  0  0  0  0  0  0  0  0  0  0  0
    0.4025    5.9935   14.0558 F   0  0  0  0  0  0  0  0  0  0  0  0
    0.8494    3.0123   11.0825 C   0  0  0  0  0  0  0  0  0  0  0  0
   -2.4219    2.1651    8.8385 C   0  0  0  0  0  0  0  0  0  0  0  0
   -1.0831    1.9272    8.3880 N   0  0  0  0  0  0  0  0  0  0  0  0
   -0.4710    0.7343    8.8557 C   0  0  0  0  0  0  0  0  0  0  0  0
    0.3810    0.8734   10.0836 C   0  0  0  0  0  0  0  0  0  0  0  0
    1.2207    2.0272   10.1087 N   0  0  0  0  0  0  0  0  0  0  0  0
    1.1585    2.6560    8.8037 C   0  0  0  0  0  0  0  0  0  0  0  0
   -0.2227    3.0629    8.4098 C   0  0  0  0  0  0  0  0  0  0  0  0
 34 35  1  0  0  0
 35 36  1  0  0  0
 36 37  1  0  0  0
 37 38  1  0  0  0
 38 33  1  0  0  0
 33 23  1  0  0  0
 23 24  2  0  0  0
 24 25  1  0  0  0
 25 26  2  0  0  0
 26  1  1  0  0  0
  1  2  1  0  0  0
  2  3  2  0  0  0
  2  5  1  0  0  0
  5  6  2  0  0  0
  6  7  1  0  0  0
  7  8  2  0  0  0
  8  9  1  0  0  0
  8 10  1  0  0  0
 10 11  2  0  0  0
 10 12  1  0  0  0
 12 13  3  0  0  0
 13 14  1  0  0  0
 14 15  2  0  0  0
 15 16  1  0  0  0
 16 17  2  0  0  0
 17 18  1  0  0  0
 18 19  2  0  0  0
 19 20  1  0  0  0
 20 21  2  0  0  0
 21 22  1  0  0  0
 26 27  1  0  0  0
 27 28  2  0  0  0
 28 29  1  0  0  0
 29 30  1  0  0  0
 29 31  1  0  0  0
 29 32  1  0  0  0
 38 39  1  0  0  0
 39 40  1  0  0  0
 40 35  1  0  0  0
 28 23  1  0  0  0
 11  5  1  0  0  0
 22 14  1  0  0  0
 22 17  1  0  0  0
  1  4  1  0  0  0
M  END
> <minimizedAffinity>
-8.85680

> <CNNscore>
0.3271884620

> <CNNaffinity>
6.3885602951

> <CNN_VS>
2.0902631283

> <CNNaffinity_variance>
0.3396766782

$$$$
[H]c1nc2c([H])c([H])c([H])c([H])n2c1C#Cc1c([H])c(C(=O)N([H])c2c([H])c([H])c(C([H])([H])N3C([H])([H])C([H])([H])N(C([H])([H])[H])C([H])([H])C3([H])[H])c(C(F)(F)F)c2[H])c([H])c([H])c1C([H])([H])[H]


 40 44  0  0  0  0  0  0  0  0999 V2000
    3.1868    3.9465   16.1454 N   0  0  0  0  0  0  0  0  0  0  0  0
    3.1919    2.7875   16.9133 C   0  0  0  0  0  0  0  0  0  0  0  0
    2.5504    1.7739   16.5715 O   0  0  0  0  0  0  0  0  0  0  0  0
    3.7761    4.7571   16.5295 H   0  0  0  0  0  0  0  0  0  0  0  0
    3.9398    2.6642   18.1657 C   0  0  0  0  0  0  0  0  0  0  0  0
    4.1718    1.4485   18.7658 C   0  0  0  0  0  0  0  0  0  0  0  0
    4.8738    1.2995   19.9609 C   0  0  0  0  0  0  0  0  0  0  0  0
    5.3519    2.4480   20.5543 C   0  0  0  0  0  0  0  0  0  0  0  0
    6.1180    2.4036   21.8373 C   0  0  0  0  0  0  0  0  0  0  0  0
    5.1444    3.6999   19.9884 C   0  0  0  0  0  0  0  0  0  0  0  0
    4.4436    3.7755   18.8085 C   0  0  0  0  0  0  0  0  0  0  0  0
    5.6428    4.9019   20.6060 C   0  0  0  0  0  0  0  0  0  0  0  0
    6.0510    5.9219   21.1179 C   0  0  0  0  0  0  0  0  0  0  0  0
    6.5197    7.1516   21.7176 C   0  0  0  0  0  0  0  0  0  0  0  0
    7.3102    7.2130   22.8285 C   0  0  0  0  0  0  0  0  0  0  0  0
    7.5238    8.5142   23.0656 N   0  0  0  0  0  0  0  0  0  0  0  0
    6.8930    9.2526   22.1403 C   0  0  0  0  0  0  0  0  0  0  0  0
    6.7725   10.6092   21.9035 C   0  0  0  0  0  0  0  0  0  0  0  0
    6.0541   11.1208   20.8660 C   0  0  0  0  0  0  0  0  0  0  0  0
    5.4247   10.2368   20.0226 C   0  0  0  0  0  0  0  0  0  0  0  0
    5.5441    8.8923   20.2570 C   0  0  0  0  0  0  0  0  0  0  0  0
    6.2723    8.4062   21.3073 N   0  0  0  0  0  0  0  0  0  0  0  0
    1.1840    4.5522   12.4138 C   0  0  0  0  0  0  0  0  0  0  0  0
    1.0974    5.4802   13.4305 C   0  0  0  0  0  0  0  0  0  0  0  0
    1.7487    5.3102   14.6632 C   0  0  0  0  0  0  0  0  0  0  0  0
    2.5110    4.2046   14.9267 C   0  0  0  0  0  0  0  0  0  0  0  0
    2.5868    3.2801   13.8917 C   0  0  0  0  0  0  0  0  0  0  0  0
    1.9502    3.4360   12.6729 C   0  0  0  0  0  0  0  0  0  0  0  0
    2.0946    2.3778   11.6459 C   0  0  0  0  0  0  0  0  0  0  0  0
    2.5859    2.7819   10.4487 F   0  0  0  0  0  0  0  0  0  0  0  0
    0.9423    1.5832   11.5384 F   0  0  0  0  0  0  0  0  0  0  0  0
    3.0498    1.4449   12.1167 F   0  0  0  0  0  0  0  0  0  0  0  0
    0.5148    4.6806   11.1236 C   0  0  0  0  0  0  0  0  0  0  0  0
   -1.2598    6.8521    8.1927 C   0  0  0  0  0  0  0  0  0  0  0  0
   -1.7825    5.6052    8.6660 N   0  0  0  0  0  0  0  0  0  0  0  0
   -2.5418    5.6625    9.8646 C   0  0  0  0  0  0  0  0  0  0  0  0
   -1.7873    5.3825   11.1317 C   0  0  0  0  0  0  0  0  0  0  0  0
   -0.8652    4.2957   11.0581 N   0  0  0  0  0  0  0  0  0  0  0  0
   -1.0711    3.6172    9.7932 C   0  0  0  0  0  0  0  0  0  0  0  0
   -0.8784    4.5053    8.6089 C   0  0  0  0  0  0  0  0  0  0  0  0
 34 35  1  0  0  0
 35 36  1  0  0  0
 36 37  1  0  0  0
 37 38  1  0  0  0
 38 33  1  0  0  0
 33 23  1  0  0  0
 23 24  2  0  0  0
 24 25  1  0  0  0
 25 26  2  0  0  0
 26  1  1  0  0  0
  1  2  1  0  0  0
  2  3  2  0  0  0
  2  5  1  0  0  0
  5  6  2  0  0  0
  6  7  1  0  0  0
  7  8  2  0  0  0
  8  9  1  0  0  0
  8 10  1  0  0  0
 10 11  2  0  0  0
 10 12  1  0  0  0
 12 13  3  0  0  0
 13 14  1  0  0  0
 14 15  2  0  0  0
 15 16  1  0  0  0
 16 17  2  0  0  0
 17 18  1  0  0  0
 18 19  2  0  0  0
 19 20  1  0  0  0
 20 21  2  0  0  0
 21 22  1  0  0  0
 26 27  1  0  0  0
 27 28  2  0  0  0
 28 29  1  0  0  0
 29 30  1  0  0  0
 29 31  1  0  0  0
 29 32  1  0  0  0
 38 39  1  0  0  0
 39 40  1  0  0  0
 40 35  1  0  0  0
 28 23  1  0  0  0
 11  5  1  0  0  0
 22 14  1  0  0  0
 22 17  1  0  0  0
  1  4  1  0  0  0
M  END
> <minimizedAffinity>
-8.55089

> <CNNscore>
0.3175112605

> <CNNaffinity>
6.3237309456

> <CNN_VS>
2.0078558922

> <CNNaffinity_variance>
0.2556017339

$$$$
[H]c1nc2c([H])c([H])c([H])c([H])n2c1C#Cc1c([H])c(C(=O)N([H])c2c([H])c([H])c(C([H])([H])N3C([H])([H])C([H])([H])N(C([H])([H])[H])C([H])([H])C3([H])[H])c(C(F)(F)F)c2[H])c([H])c([H])c1C([H])([H])[H]


 40 44  0  0  0  0  0  0  0  0999 V2000
    3.4920    2.7461   16.2520 N   0  0  0  0  0  0  0  0  0  0  0  0
    3.8026    1.7652   17.1869 C   0  0  0  0  0  0  0  0  0  0  0  0
    3.5987    0.5561   16.9583 O   0  0  0  0  0  0  0  0  0  0  0  0
    3.7122    3.7535   16.5495 H   0  0  0  0  0  0  0  0  0  0  0  0
    4.3858    2.0669   18.4953 C   0  0  0  0  0  0  0  0  0  0  0  0
    4.5888    1.0977   19.4499 C   0  0  0  0  0  0  0  0  0  0  0  0
    5.1352    1.3547   20.7064 C   0  0  0  0  0  0  0  0  0  0  0  0
    5.4832    2.6593   20.9835 C   0  0  0  0  0  0  0  0  0  0  0  0
    6.0772    3.0466   22.2995 C   0  0  0  0  0  0  0  0  0  0  0  0
    5.2985    3.6748   20.0533 C   0  0  0  0  0  0  0  0  0  0  0  0
    4.7544    3.3522   18.8332 C   0  0  0  0  0  0  0  0  0  0  0  0
    5.6612    5.0390   20.3399 C   0  0  0  0  0  0  0  0  0  0  0  0
    5.9657    6.1837   20.5966 C   0  0  0  0  0  0  0  0  0  0  0  0
    6.3291    7.5440   20.9274 C   0  0  0  0  0  0  0  0  0  0  0  0
    7.3597    7.8851   21.7545 C   0  0  0  0  0  0  0  0  0  0  0  0
    7.3717    9.2238   21.8065 N   0  0  0  0  0  0  0  0  0  0  0  0
    6.3859    9.7156   21.0411 C   0  0  0  0  0  0  0  0  0  0  0  0
    5.9454   10.9889   20.7323 C   0  0  0  0  0  0  0  0  0  0  0  0
    4.8911   11.2294   19.9047 C   0  0  0  0  0  0  0  0  0  0  0  0
    4.2438   10.1475   19.3577 C   0  0  0  0  0  0  0  0  0  0  0  0
    4.6803    8.8854   19.6636 C   0  0  0  0  0  0  0  0  0  0  0  0
    5.7423    8.6732   20.4983 N   0  0  0  0  0  0  0  0  0  0  0  0
    1.9293    2.3864   12.2857 C   0  0  0  0  0  0  0  0  0  0  0  0
    1.3398    1.7338   13.3482 C   0  0  0  0  0  0  0  0  0  0  0  0
    1.8277    1.8383   14.6610 C   0  0  0  0  0  0  0  0  0  0  0  0
    2.9250    2.5991   14.9614 C   0  0  0  0  0  0  0  0  0  0  0  0
    3.5064    3.2489   13.8791 C   0  0  0  0  0  0  0  0  0  0  0  0
    3.0352    3.1542   12.5814 C   0  0  0  0  0  0  0  0  0  0  0  0
    3.7435    3.8848   11.5044 C   0  0  0  0  0  0  0  0  0  0  0  0
    3.0566    4.9052   10.9344 F   0  0  0  0  0  0  0  0  0  0  0  0
    4.3301    3.0151   10.5714 F   0  0  0  0  0  0  0  0  0  0  0  0
    4.8788    4.5072   12.0773 F   0  0  0  0  0  0  0  0  0  0  0  0
    1.4654    2.2965   10.9052 C   0  0  0  0  0  0  0  0  0  0  0  0
   -1.1987    2.1743    7.8486 C   0  0  0  0  0  0  0  0  0  0  0  0
   -0.0283    1.3498    7.8977 N   0  0  0  0  0  0  0  0  0  0  0  0
   -0.1238    0.1790    8.6955 C   0  0  0  0  0  0  0  0  0  0  0  0
    0.3788    0.3039   10.1044 C   0  0  0  0  0  0  0  0  0  0  0  0
    1.5998    1.0288   10.2482 N   0  0  0  0  0  0  0  0  0  0  0  0
    2.1333    1.2768    8.9228 C   0  0  0  0  0  0  0  0  0  0  0  0
    1.2037    2.0501    8.0476 C   0  0  0  0  0  0  0  0  0  0  0  0
 34 35  1  0  0  0
 35 36  1  0  0  0
 36 37  1  0  0  0
 37 38  1  0  0  0
 38 33  1  0  0  0
 33 23  1  0  0  0
 23 24  2  0  0  0
 24 25  1  0  0  0
 25 26  2  0  0  0
 26  1  1  0  0  0
  1  2  1  0  0  0
  2  3  2  0  0  0
  2  5  1  0  0  0
  5  6  2  0  0  0
  6  7  1  0  0  0
  7  8  2  0  0  0
  8  9  1  0  0  0
  8 10  1  0  0  0
 10 11  2  0  0  0
 10 12  1  0  0  0
 12 13  3  0  0  0
 13 14  1  0  0  0
 14 15  2  0  0  0
 15 16  1  0  0  0
 16 17  2  0  0  0
 17 18  1  0  0  0
 18 19  2  0  0  0
 19 20  1  0  0  0
 20 21  2  0  0  0
 21 22  1  0  0  0
 26 27  1  0  0  0
 27 28  2  0  0  0
 28 29  1  0  0  0
 29 30  1  0  0  0
 29 31  1  0  0  0
 29 32  1  0  0  0
 38 39  1  0  0  0
 39 40  1  0  0  0
 40 35  1  0  0  0
 28 23  1  0  0  0
 11  5  1  0  0  0
 22 14  1  0  0  0
 22 17  1  0  0  0
  1  4  1  0  0  0
M  END
> <minimizedAffinity>
-8.97721

> <CNNscore>
0.3100440204

> <CNNaffinity>
6.4083280563

> <CNN_VS>
1.9868638515

> <CNNaffinity_variance>
0.2871524394

$$$$
[H]c1nc2c([H])c([H])c([H])c([H])n2c1C#Cc1c([H])c(C(=O)N([H])c2c([H])c([H])c(C([H])([H])N3C([H])([H])C([H])([H])N(C([H])([H])[H])C([H])([H])C3([H])[H])c(C(F)(F)F)c2[H])c([H])c([H])c1C([H])([H])[H]


 40 44  0  0  0  0  0  0  0  0999 V2000
    3.2044    1.9990   14.2181 N   0  0  0  0  0  0  0  0  0  0  0  0
    2.6214    2.9404   13.3775 C   0  0  0  0  0  0  0  0  0  0  0  0
    2.2392    4.0489   13.8027 O   0  0  0  0  0  0  0  0  0  0  0  0
    3.5005    1.0808   13.7477 H   0  0  0  0  0  0  0  0  0  0  0  0
    2.4125    2.7110   11.9469 C   0  0  0  0  0  0  0  0  0  0  0  0
    1.9015    3.6797   11.1147 C   0  0  0  0  0  0  0  0  0  0  0  0
    1.6850    3.4894    9.7508 C   0  0  0  0  0  0  0  0  0  0  0  0
    2.0086    2.2545    9.2312 C   0  0  0  0  0  0  0  0  0  0  0  0
    1.8171    1.9423    7.7818 C   0  0  0  0  0  0  0  0  0  0  0  0
    2.5278    1.2426   10.0294 C   0  0  0  0  0  0  0  0  0  0  0  0
    2.7163    1.4972   11.3668 C   0  0  0  0  0  0  0  0  0  0  0  0
    2.8671   -0.0488    9.4894 C   0  0  0  0  0  0  0  0  0  0  0  0
    3.1679   -1.1308    9.0333 C   0  0  0  0  0  0  0  0  0  0  0  0
    3.5506   -2.4145    8.4882 C   0  0  0  0  0  0  0  0  0  0  0  0
    4.5249   -2.5915    7.5490 C   0  0  0  0  0  0  0  0  0  0  0  0
    4.5784   -3.9083    7.3075 N   0  0  0  0  0  0  0  0  0  0  0  0
    3.6723   -4.5448    8.0647 C   0  0  0  0  0  0  0  0  0  0  0  0
    3.3007   -5.8670    8.2212 C   0  0  0  0  0  0  0  0  0  0  0  0
    2.3227   -6.2666    9.0803 C   0  0  0  0  0  0  0  0  0  0  0  0
    1.6833   -5.3007    9.8201 C   0  0  0  0  0  0  0  0  0  0  0  0
    2.0515   -3.9903    9.6651 C   0  0  0  0  0  0  0  0  0  0  0  0
    3.0377   -3.6173    8.7944 N   0  0  0  0  0  0  0  0  0  0  0  0
    3.9180    2.0840   18.4355 C   0  0  0  0  0  0  0  0  0  0  0  0
    4.3782    3.0904   17.6122 C   0  0  0  0  0  0  0  0  0  0  0  0
    4.1538    3.0912   16.2258 C   0  0  0  0  0  0  0  0  0  0  0  0
    3.4611    2.0847   15.6093 C   0  0  0  0  0  0  0  0  0  0  0  0
    3.0054    1.0792   16.4537 C   0  0  0  0  0  0  0  0  0  0  0  0
    3.2197    1.0669   17.8208 C   0  0  0  0  0  0  0  0  0  0  0  0
    2.6946   -0.0645   18.6206 C   0  0  0  0  0  0  0  0  0  0  0  0
    1.3555   -0.0649   18.8324 F   0  0  0  0  0  0  0  0  0  0  0  0
    3.4455   -0.2825   19.7865 F   0  0  0  0  0  0  0  0  0  0  0  0
    2.9319   -1.2558   17.8934 F   0  0  0  0  0  0  0  0  0  0  0  0
    4.1385    2.0350   19.8771 C   0  0  0  0  0  0  0  0  0  0  0  0
    3.5423    3.8297   23.4657 C   0  0  0  0  0  0  0  0  0  0  0  0
    4.8095    3.3003   23.0584 N   0  0  0  0  0  0  0  0  0  0  0  0
    5.5854    4.1282   22.2045 C   0  0  0  0  0  0  0  0  0  0  0  0
    5.4414    3.8685   20.7332 C   0  0  0  0  0  0  0  0  0  0  0  0
    5.4085    2.4905   20.3633 N   0  0  0  0  0  0  0  0  0  0  0  0
    5.7365    1.7031   21.5358 C   0  0  0  0  0  0  0  0  0  0  0  0
    4.8016    1.9271   22.6777 C   0  0  0  0  0  0  0  0  0  0  0  0
 34 35  1  0  0  0
 35 36  1  0  0  0
 36 37  1  0  0  0
 37 38  1  0  0  0
 38 33  1  0  0  0
 33 23  1  0  0  0
 23 24  2  0  0  0
 24 25  1  0  0  0
 25 26  2  0  0  0
 26  1  1  0  0  0
  1  2  1  0  0  0
  2  3  2  0  0  0
  2  5  1  0  0  0
  5  6  2  0  0  0
  6  7  1  0  0  0
  7  8  2  0  0  0
  8  9  1  0  0  0
  8 10  1  0  0  0
 10 11  2  0  0  0
 10 12  1  0  0  0
 12 13  3  0  0  0
 13 14  1  0  0  0
 14 15  2  0  0  0
 15 16  1  0  0  0
 16 17  2  0  0  0
 17 18  1  0  0  0
 18 19  2  0  0  0
 19 20  1  0  0  0
 20 21  2  0  0  0
 21 22  1  0  0  0
 26 27  1  0  0  0
 27 28  2  0  0  0
 28 29  1  0  0  0
 29 30  1  0  0  0
 29 31  1  0  0  0
 29 32  1  0  0  0
 38 39  1  0  0  0
 39 40  1  0  0  0
 40 35  1  0  0  0
 28 23  1  0  0  0
 11  5  1  0  0  0
 22 14  1  0  0  0
 22 17  1  0  0  0
  1  4  1  0  0  0
M  END
> <minimizedAffinity>
-8.62685

> <CNNscore>
0.2593984008

> <CNNaffinity>
6.8165969849

> <CNN_VS>
1.7682143450

> <CNNaffinity_variance>
0.0870912522

$$$$
[H]c1nc2c([H])c([H])c([H])c([H])n2c1C#Cc1c([H])c(C(=O)N([H])c2c([H])c([H])c(C([H])([H])N3C([H])([H])C([H])([H])N(C([H])([H])[H])C([H])([H])C3([H])[H])c(C(F)(F)F)c2[H])c([H])c([H])c1C([H])([H])[H]


 40 44  0  0  0  0  0  0  0  0999 V2000
    3.2925    4.0037   16.7261 N   0  0  0  0  0  0  0  0  0  0  0  0
    3.4175    2.7672   17.3492 C   0  0  0  0  0  0  0  0  0  0  0  0
    2.9033    1.7377   16.8683 O   0  0  0  0  0  0  0  0  0  0  0  0
    3.7774    4.8221   17.2231 H   0  0  0  0  0  0  0  0  0  0  0  0
    4.1521    2.5759   18.6010 C   0  0  0  0  0  0  0  0  0  0  0  0
    4.3003    1.3389   19.1837 C   0  0  0  0  0  0  0  0  0  0  0  0
    4.9877    1.1257   20.3776 C   0  0  0  0  0  0  0  0  0  0  0  0
    5.5403    2.2308   20.9885 C   0  0  0  0  0  0  0  0  0  0  0  0
    6.2983    2.1166   22.2719 C   0  0  0  0  0  0  0  0  0  0  0  0
    5.4188    3.5019   20.4405 C   0  0  0  0  0  0  0  0  0  0  0  0
    4.7277    3.6414   19.2607 C   0  0  0  0  0  0  0  0  0  0  0  0
    5.9952    4.6586   21.0764 C   0  0  0  0  0  0  0  0  0  0  0  0
    6.4833    5.6232   21.6245 C   0  0  0  0  0  0  0  0  0  0  0  0
    7.0719    6.7597   22.2979 C   0  0  0  0  0  0  0  0  0  0  0  0
    6.4995    7.9971   22.3614 C   0  0  0  0  0  0  0  0  0  0  0  0
    7.3437    8.7654   23.0629 N   0  0  0  0  0  0  0  0  0  0  0  0
    8.4127    8.0439   23.4316 C   0  0  0  0  0  0  0  0  0  0  0  0
    9.5621    8.3164   24.1497 C   0  0  0  0  0  0  0  0  0  0  0  0
   10.5234    7.3835   24.3942 C   0  0  0  0  0  0  0  0  0  0  0  0
   10.3298    6.1162   23.8987 C   0  0  0  0  0  0  0  0  0  0  0  0
    9.1907    5.8459   23.1872 C   0  0  0  0  0  0  0  0  0  0  0  0
    8.2415    6.8027   22.9565 N   0  0  0  0  0  0  0  0  0  0  0  0
    1.2710    4.8215   13.0453 C   0  0  0  0  0  0  0  0  0  0  0  0
    1.2381    5.7175   14.0934 C   0  0  0  0  0  0  0  0  0  0  0  0
    1.8969    5.4779   15.3104 C   0  0  0  0  0  0  0  0  0  0  0  0
    2.6133    4.3319   15.5262 C   0  0  0  0  0  0  0  0  0  0  0  0
    2.6352    3.4404   14.4602 C   0  0  0  0  0  0  0  0  0  0  0  0
    1.9907    3.6649   13.2563 C   0  0  0  0  0  0  0  0  0  0  0  0
    2.0755    2.6367   12.1929 C   0  0  0  0  0  0  0  0  0  0  0  0
    0.8905    2.1985   11.7013 F   0  0  0  0  0  0  0  0  0  0  0  0
    2.9600    1.5994   12.5283 F   0  0  0  0  0  0  0  0  0  0  0  0
    2.7205    3.2208   11.0761 F   0  0  0  0  0  0  0  0  0  0  0  0
    0.5918    5.0223   11.7696 C   0  0  0  0  0  0  0  0  0  0  0  0
    1.8111    4.2961    7.9696 C   0  0  0  0  0  0  0  0  0  0  0  0
    1.1939    5.5251    8.3701 N   0  0  0  0  0  0  0  0  0  0  0  0
    2.0437    6.4733    8.9988 C   0  0  0  0  0  0  0  0  0  0  0  0
    2.0607    6.4438   10.4994 C   0  0  0  0  0  0  0  0  0  0  0  0
    0.7830    6.2838   11.1149 N   0  0  0  0  0  0  0  0  0  0  0  0
   -0.2297    6.4001   10.0837 C   0  0  0  0  0  0  0  0  0  0  0  0
   -0.0805    5.3914    8.9935 C   0  0  0  0  0  0  0  0  0  0  0  0
 34 35  1  0  0  0
 35 36  1  0  0  0
 36 37  1  0  0  0
 37 38  1  0  0  0
 38 33  1  0  0  0
 33 23  1  0  0  0
 23 24  2  0  0  0
 24 25  1  0  0  0
 25 26  2  0  0  0
 26  1  1  0  0  0
  1  2  1  0  0  0
  2  3  2  0  0  0
  2  5  1  0  0  0
  5  6  2  0  0  0
  6  7  1  0  0  0
  7  8  2  0  0  0
  8  9  1  0  0  0
  8 10  1  0  0  0
 10 11  2  0  0  0
 10 12  1  0  0  0
 12 13  3  0  0  0
 13 14  1  0  0  0
 14 15  2  0  0  0
 15 16  1  0  0  0
 16 17  2  0  0  0
 17 18  1  0  0  0
 18 19  2  0  0  0
 19 20  1  0  0  0
 20 21  2  0  0  0
 21 22  1  0  0  0
 26 27  1  0  0  0
 27 28  2  0  0  0
 28 29  1  0  0  0
 29 30  1  0  0  0
 29 31  1  0  0  0
 29 32  1  0  0  0
 38 39  1  0  0  0
 39 40  1  0  0  0
 40 35  1  0  0  0
 28 23  1  0  0  0
 11  5  1  0  0  0
 22 14  1  0  0  0
 22 17  1  0  0  0
  1  4  1  0  0  0
M  END
> <minimizedAffinity>
-8.28469

> <CNNscore>
0.2589752972

> <CNNaffinity>
6.2891478539

> <CNN_VS>
1.6287339926

> <CNNaffinity_variance>
0.1449654400

$$$$
[H]ON([H])C(=O)C([H])([H])N(C([H])([H])c1c([H])c([H])c([H])c([H])c1[H])S(=O)(=O)c1c([H])c([H])c(OC([H])([H])[H])c([H])c1[H]


 26 27  0  0  0  0  0  0  0  0999 V2000
    4.1548    3.8681   18.3531 N   0  0  0  0  0  0  0  0  0  0  0  0
    3.9711    2.4943   17.4408 S   0  0  0  0  0  0  0  0  0  0  0  0
    5.1942    1.6023   17.5370 O   0  0  0  0  0  0  0  0  0  0  0  0
    2.8284    1.6678   17.9565 O   0  0  0  0  0  0  0  0  0  0  0  0
    3.0783    3.1859   12.9988 C   0  0  0  0  0  0  0  0  0  0  0  0
    3.7947    4.1162   13.7325 C   0  0  0  0  0  0  0  0  0  0  0  0
    4.0666    3.9127   15.0716 C   0  0  0  0  0  0  0  0  0  0  0  0
    3.6393    2.7811   15.7328 C   0  0  0  0  0  0  0  0  0  0  0  0
    2.9180    1.8591   14.9663 C   0  0  0  0  0  0  0  0  0  0  0  0
    2.6475    2.0524   13.6512 C   0  0  0  0  0  0  0  0  0  0  0  0
    1.6255    2.7145   11.1377 C   0  0  0  0  0  0  0  0  0  0  0  0
    2.7909    3.3658   11.6499 O   0  0  0  0  0  0  0  0  0  0  0  0
    3.0991    4.8058   18.3888 C   0  0  0  0  0  0  0  0  0  0  0  0
    3.4579    6.2148   18.3311 C   0  0  0  0  0  0  0  0  0  0  0  0
    3.9724    6.7037   17.3074 O   0  0  0  0  0  0  0  0  0  0  0  0
    3.2274    7.0491   19.4364 N   0  0  0  0  0  0  0  0  0  0  0  0
    3.5282    8.3657   19.4711 O   0  0  0  0  0  0  0  0  0  0  0  0
    2.7984    6.6443   20.2920 H   0  0  0  0  0  0  0  0  0  0  0  0
    4.2395    8.4945   20.1305 H   0  0  0  0  0  0  0  0  0  0  0  0
    5.1524    3.9617   19.3284 C   0  0  0  0  0  0  0  0  0  0  0  0
    4.7231    3.7111   20.7265 C   0  0  0  0  0  0  0  0  0  0  0  0
    4.6604    4.7269   21.6705 C   0  0  0  0  0  0  0  0  0  0  0  0
    4.2616    4.5290   22.9715 C   0  0  0  0  0  0  0  0  0  0  0  0
    3.9006    3.2641   23.3825 C   0  0  0  0  0  0  0  0  0  0  0  0
    3.9497    2.2289   22.4734 C   0  0  0  0  0  0  0  0  0  0  0  0
    4.3578    2.4596   21.1619 C   0  0  0  0  0  0  0  0  0  0  0  0
 11 12  1  0  0  0
 12  5  1  0  0  0
  5  6  2  0  0  0
  6  7  1  0  0  0
  7  8  2  0  0  0
  8  9  1  0  0  0
  9 10  2  0  0  0
  8  2  1  0  0  0
  2  3  2  0  0  0
  2  4  2  0  0  0
  2  1  1  0  0  0
  1 13  1  0  0  0
 13 14  1  0  0  0
 14 15  2  0  0  0
 14 16  1  0  0  0
 16 17  1  0  0  0
  1 20  1  0  0  0
 20 21  1  0  0  0
 21 22  2  0  0  0
 22 23  1  0  0  0
 23 24  2  0  0  0
 24 25  1  0  0  0
 25 26  2  0  0  0
 10  5  1  0  0  0
 26 21  1  0  0  0
 16 18  1  0  0  0
 17 19  1  0  0  0
M  END
> <minimizedAffinity>
-6.85895

> <CNNscore>
0.5719354749

> <CNNaffinity>
5.4865379333

> <CNN_VS>
3.1379456520

> <CNNaffinity_variance>
0.1629995555

$$$$
[H]ON([H])C(=O)C([H])([H])N(C([H])([H])c1c([H])c([H])c([H])c([H])c1[H])S(=O)(=O)c1c([H])c([H])c(OC([H])([H])[H])c([H])c1[H]


 26 27  0  0  0  0  0  0  0  0999 V2000
    4.8676    4.4095   19.7501 N   0  0  0  0  0  0  0  0  0  0  0  0
    4.9592    5.0646   18.2283 S   0  0  0  0  0  0  0  0  0  0  0  0
    4.6037    6.5391   18.2418 O   0  0  0  0  0  0  0  0  0  0  0  0
    6.3660    4.9943   17.7079 O   0  0  0  0  0  0  0  0  0  0  0  0
    2.3698    2.9557   15.0893 C   0  0  0  0  0  0  0  0  0  0  0  0
    2.0104    4.1956   15.5897 C   0  0  0  0  0  0  0  0  0  0  0  0
    2.7872    4.8357   16.5359 C   0  0  0  0  0  0  0  0  0  0  0  0
    3.9478    4.2716   17.0209 C   0  0  0  0  0  0  0  0  0  0  0  0
    4.2856    3.0188   16.4972 C   0  0  0  0  0  0  0  0  0  0  0  0
    3.5276    2.3847   15.5681 C   0  0  0  0  0  0  0  0  0  0  0  0
    1.0896    3.0670   13.0532 C   0  0  0  0  0  0  0  0  0  0  0  0
    1.6060    2.2896   14.1366 O   0  0  0  0  0  0  0  0  0  0  0  0
    3.8968    4.9078   20.6467 C   0  0  0  0  0  0  0  0  0  0  0  0
    4.3363    5.8916   21.6247 C   0  0  0  0  0  0  0  0  0  0  0  0
    4.7623    5.5394   22.7410 O   0  0  0  0  0  0  0  0  0  0  0  0
    4.2863    7.2614   21.3215 N   0  0  0  0  0  0  0  0  0  0  0  0
    4.6729    8.2419   22.1667 O   0  0  0  0  0  0  0  0  0  0  0  0
    3.9314    7.5585   20.3911 H   0  0  0  0  0  0  0  0  0  0  0  0
    3.8787    8.7580   22.4121 H   0  0  0  0  0  0  0  0  0  0  0  0
    5.4742    3.1857   20.0493 C   0  0  0  0  0  0  0  0  0  0  0  0
    4.5594    2.0779   20.4205 C   0  0  0  0  0  0  0  0  0  0  0  0
    3.9895    1.2436   19.4687 C   0  0  0  0  0  0  0  0  0  0  0  0
    3.1431    0.2055   19.7799 C   0  0  0  0  0  0  0  0  0  0  0  0
    2.8300   -0.0383   21.0997 C   0  0  0  0  0  0  0  0  0  0  0  0
    3.3767    0.7690   22.0743 C   0  0  0  0  0  0  0  0  0  0  0  0
    4.2311    1.8133   21.7287 C   0  0  0  0  0  0  0  0  0  0  0  0
 11 12  1  0  0  0
 12  5  1  0  0  0
  5  6  2  0  0  0
  6  7  1  0  0  0
  7  8  2  0  0  0
  8  9  1  0  0  0
  9 10  2  0  0  0
  8  2  1  0  0  0
  2  3  2  0  0  0
  2  4  2  0  0  0
  2  1  1  0  0  0
  1 13  1  0  0  0
 13 14  1  0  0  0
 14 15  2  0  0  0
 14 16  1  0  0  0
 16 17  1  0  0  0
  1 20  1  0  0  0
 20 21  1  0  0  0
 21 22  2  0  0  0
 22 23  1  0  0  0
 23 24  2  0  0  0
 24 25  1  0  0  0
 25 26  2  0  0  0
 10  5  1  0  0  0
 26 21  1  0  0  0
 16 18  1  0  0  0
 17 19  1  0  0  0
M  END
> <minimizedAffinity>
-7.39920

> <CNNscore>
0.4317018688

> <CNNaffinity>
5.4333810806

> <CNN_VS>
2.3456008434

> <CNNaffinity_variance>
0.1895232499

$$$$
[H]ON([H])C(=O)C([H])([H])N(C([H])([H])c1c([H])c([H])c([H])c([H])c1[H])S(=O)(=O)c1c([H])c([H])c(OC([H])([H])[H])c([H])c1[H]


 26 27  0  0  0  0  0  0  0  0999 V2000
    4.0107    4.4206   18.0789 N   0  0  0  0  0  0  0  0  0  0  0  0
    3.4275    4.0009   16.5831 S   0  0  0  0  0  0  0  0  0  0  0  0
    4.4203    3.1381   15.8278 O   0  0  0  0  0  0  0  0  0  0  0  0
    2.1872    3.1650   16.7164 O   0  0  0  0  0  0  0  0  0  0  0  0
    2.3515    7.5716   13.9188 C   0  0  0  0  0  0  0  0  0  0  0  0
    1.5408    6.4502   13.9650 C   0  0  0  0  0  0  0  0  0  0  0  0
    1.8604    5.3711   14.7663 C   0  0  0  0  0  0  0  0  0  0  0  0
    2.9939    5.3633   15.5508 C   0  0  0  0  0  0  0  0  0  0  0  0
    3.7936    6.5094   15.4837 C   0  0  0  0  0  0  0  0  0  0  0  0
    3.4859    7.5724   14.6992 C   0  0  0  0  0  0  0  0  0  0  0  0
    1.6869    8.4131   11.7631 C   0  0  0  0  0  0  0  0  0  0  0  0
    2.0532    8.6712   13.1210 O   0  0  0  0  0  0  0  0  0  0  0  0
    3.1740    5.1471   18.9547 C   0  0  0  0  0  0  0  0  0  0  0  0
    3.7877    6.2160   19.7280 C   0  0  0  0  0  0  0  0  0  0  0  0
    4.2963    7.2039   19.1648 O   0  0  0  0  0  0  0  0  0  0  0  0
    3.8155    6.1486   21.1300 N   0  0  0  0  0  0  0  0  0  0  0  0
    4.3628    7.0929   21.9261 O   0  0  0  0  0  0  0  0  0  0  0  0
    3.3921    5.3258   21.6029 H   0  0  0  0  0  0  0  0  0  0  0  0
    5.1394    6.6979   22.3712 H   0  0  0  0  0  0  0  0  0  0  0  0
    5.1454    3.8024   18.6132 C   0  0  0  0  0  0  0  0  0  0  0  0
    4.8970    2.7458   19.6251 C   0  0  0  0  0  0  0  0  0  0  0  0
    5.4299    2.8127   20.9050 C   0  0  0  0  0  0  0  0  0  0  0  0
    5.2142    1.8540   21.8669 C   0  0  0  0  0  0  0  0  0  0  0  0
    4.4310    0.7604   21.5670 C   0  0  0  0  0  0  0  0  0  0  0  0
    3.8838    0.6586   20.3058 C   0  0  0  0  0  0  0  0  0  0  0  0
    4.1198    1.6456   19.3519 C   0  0  0  0  0  0  0  0  0  0  0  0
 11 12  1  0  0  0
 12  5  1  0  0  0
  5  6  2  0  0  0
  6  7  1  0  0  0
  7  8  2  0  0  0
  8  9  1  0  0  0
  9 10  2  0  0  0
  8  2  1  0  0  0
  2  3  2  0  0  0
  2  4  2  0  0  0
  2  1  1  0  0  0
  1 13  1  0  0  0
 13 14  1  0  0  0
 14 15  2  0  0  0
 14 16  1  0  0  0
 16 17  1  0  0  0
  1 20  1  0  0  0
 20 21  1  0  0  0
 21 22  2  0  0  0
 22 23  1  0  0  0
 23 24  2  0  0  0
 24 25  1  0  0  0
 25 26  2  0  0  0
 10  5  1  0  0  0
 26 21  1  0  0  0
 16 18  1  0  0  0
 17 19  1  0  0  0
M  END
> <minimizedAffinity>
-6.88200

> <CNNscore>
0.3385300934

> <CNNaffinity>
5.1461439133

> <CNN_VS>
1.7421245575

> <CNNaffinity_variance>
0.0739223212

$$$$
[H]ON([H])C(=O)C([H])([H])N(C([H])([H])c1c([H])c([H])c([H])c([H])c1[H])S(=O)(=O)c1c([H])c([H])c(OC([H])([H])[H])c([H])c1[H]


 26 27  0  0  0  0  0  0  0  0999 V2000
    5.4036    5.4322   19.1701 N   0  0  0  0  0  0  0  0  0  0  0  0
    4.1121    4.5436   19.7143 S   0  0  0  0  0  0  0  0  0  0  0  0
    2.8755    5.4081   19.8690 O   0  0  0  0  0  0  0  0  0  0  0  0
    3.7415    3.4858   18.7151 O   0  0  0  0  0  0  0  0  0  0  0  0
    4.7854    2.4046   23.7116 C   0  0  0  0  0  0  0  0  0  0  0  0
    5.3391    1.9138   22.5413 C   0  0  0  0  0  0  0  0  0  0  0  0
    5.1393    2.5545   21.3338 C   0  0  0  0  0  0  0  0  0  0  0  0
    4.3844    3.7042   21.2412 C   0  0  0  0  0  0  0  0  0  0  0  0
    3.8377    4.1767   22.4393 C   0  0  0  0  0  0  0  0  0  0  0  0
    4.0298    3.5527   23.6284 C   0  0  0  0  0  0  0  0  0  0  0  0
    6.3181    1.5334   25.3514 C   0  0  0  0  0  0  0  0  0  0  0  0
    4.9708    1.7794   24.9401 O   0  0  0  0  0  0  0  0  0  0  0  0
    6.2548    6.0431   20.1171 C   0  0  0  0  0  0  0  0  0  0  0  0
    5.8878    7.3721   20.5826 C   0  0  0  0  0  0  0  0  0  0  0  0
    6.4391    8.3884   20.1191 O   0  0  0  0  0  0  0  0  0  0  0  0
    4.9000    7.5286   21.5678 N   0  0  0  0  0  0  0  0  0  0  0  0
    4.4971    8.7214   22.0579 O   0  0  0  0  0  0  0  0  0  0  0  0
    4.4382    6.6827   21.9565 H   0  0  0  0  0  0  0  0  0  0  0  0
    4.7618    8.7648   22.9988 H   0  0  0  0  0  0  0  0  0  0  0  0
    5.8587    5.3161   17.8531 C   0  0  0  0  0  0  0  0  0  0  0  0
    5.0179    5.9597   16.8135 C   0  0  0  0  0  0  0  0  0  0  0  0
    4.8969    7.3389   16.7146 C   0  0  0  0  0  0  0  0  0  0  0  0
    4.1311    7.9661   15.7600 C   0  0  0  0  0  0  0  0  0  0  0  0
    3.4385    7.2056   14.8428 C   0  0  0  0  0  0  0  0  0  0  0  0
    3.5338    5.8319   14.9088 C   0  0  0  0  0  0  0  0  0  0  0  0
    4.3175    5.2247   15.8870 C   0  0  0  0  0  0  0  0  0  0  0  0
 11 12  1  0  0  0
 12  5  1  0  0  0
  5  6  2  0  0  0
  6  7  1  0  0  0
  7  8  2  0  0  0
  8  9  1  0  0  0
  9 10  2  0  0  0
  8  2  1  0  0  0
  2  3  2  0  0  0
  2  4  2  0  0  0
  2  1  1  0  0  0
  1 13  1  0  0  0
 13 14  1  0  0  0
 14 15  2  0  0  0
 14 16  1  0  0  0
 16 17  1  0  0  0
  1 20  1  0  0  0
 20 21  1  0  0  0
 21 22  2  0  0  0
 22 23  1  0  0  0
 23 24  2  0  0  0
 24 25  1  0  0  0
 25 26  2  0  0  0
 10  5  1  0  0  0
 26 21  1  0  0  0
 16 18  1  0  0  0
 17 19  1  0  0  0
M  END
> <minimizedAffinity>
-6.60943

> <CNNscore>
0.3309483528

> <CNNaffinity>
5.2106208801

> <CNN_VS>
1.7244464159

> <CNNaffinity_variance>
0.3575237393

$$$$
[H]ON([H])C(=O)C([H])([H])N(C([H])([H])c1c([H])c([H])c([H])c([H])c1[H])S(=O)(=O)c1c([H])c([H])c(OC([H])([H])[H])c([H])c1[H]


 26 27  0  0  0  0  0  0  0  0999 V2000
    3.7678    4.0279   17.9175 N   0  0  0  0  0  0  0  0  0  0  0  0
    3.2532    3.2270   16.5583 S   0  0  0  0  0  0  0  0  0  0  0  0
    4.2094    2.1115   16.1819 O   0  0  0  0  0  0  0  0  0  0  0  0
    1.9325    2.5579   16.8090 O   0  0  0  0  0  0  0  0  0  0  0  0
    2.6096    5.9111   12.8994 C   0  0  0  0  0  0  0  0  0  0  0  0
    3.6738    5.0270   12.9533 C   0  0  0  0  0  0  0  0  0  0  0  0
    3.8724    4.2157   14.0537 C   0  0  0  0  0  0  0  0  0  0  0  0
    3.0248    4.2503   15.1403 C   0  0  0  0  0  0  0  0  0  0  0  0
    1.9589    5.1529   15.0577 C   0  0  0  0  0  0  0  0  0  0  0  0
    1.7579    5.9524   13.9805 C   0  0  0  0  0  0  0  0  0  0  0  0
    2.4480    8.1499   12.0282 C   0  0  0  0  0  0  0  0  0  0  0  0
    2.3866    6.7389   11.8041 O   0  0  0  0  0  0  0  0  0  0  0  0
    2.9477    5.0421   18.4595 C   0  0  0  0  0  0  0  0  0  0  0  0
    3.5376    6.3631   18.6152 C   0  0  0  0  0  0  0  0  0  0  0  0
    3.9936    6.7361   19.7128 O   0  0  0  0  0  0  0  0  0  0  0  0
    3.6016    7.2423   17.5225 N   0  0  0  0  0  0  0  0  0  0  0  0
    4.1307    8.4843   17.5758 O   0  0  0  0  0  0  0  0  0  0  0  0
    3.2220    6.9342   16.6055 H   0  0  0  0  0  0  0  0  0  0  0  0
    3.4059    9.1262   17.4346 H   0  0  0  0  0  0  0  0  0  0  0  0
    4.7945    3.5141   18.7155 C   0  0  0  0  0  0  0  0  0  0  0  0
    4.3724    2.6428   19.8401 C   0  0  0  0  0  0  0  0  0  0  0  0
    4.0021    1.3190   19.6467 C   0  0  0  0  0  0  0  0  0  0  0  0
    3.6119    0.4842   20.6674 C   0  0  0  0  0  0  0  0  0  0  0  0
    3.5790    0.9654   21.9584 C   0  0  0  0  0  0  0  0  0  0  0  0
    3.9401    2.2754   22.1906 C   0  0  0  0  0  0  0  0  0  0  0  0
    4.3311    3.0975   21.1365 C   0  0  0  0  0  0  0  0  0  0  0  0
 11 12  1  0  0  0
 12  5  1  0  0  0
  5  6  2  0  0  0
  6  7  1  0  0  0
  7  8  2  0  0  0
  8  9  1  0  0  0
  9 10  2  0  0  0
  8  2  1  0  0  0
  2  3  2  0  0  0
  2  4  2  0  0  0
  2  1  1  0  0  0
  1 13  1  0  0  0
 13 14  1  0  0  0
 14 15  2  0  0  0
 14 16  1  0  0  0
 16 17  1  0  0  0
  1 20  1  0  0  0
 20 21  1  0  0  0
 21 22  2  0  0  0
 22 23  1  0  0  0
 23 24  2  0  0  0
 24 25  1  0  0  0
 25 26  2  0  0  0
 10  5  1  0  0  0
 26 21  1  0  0  0
 16 18  1  0  0  0
 17 19  1  0  0  0
M  END
> <minimizedAffinity>
-6.20091

> <CNNscore>
0.3230290711

> <CNNaffinity>
5.2269363403

> <CNN_VS>
1.6884523630

> <CNNaffinity_variance>
0.0778162628

$$$$
[H]ON([H])C(=O)C([H])([H])N(C([H])([H])c1c([H])c([H])c([H])c([H])c1[H])S(=O)(=O)c1c([H])c([H])c(OC([H])([H])[H])c([H])c1[H]


 26 27  0  0  0  0  0  0  0  0999 V2000
    4.3969    3.4077   18.0006 N   0  0  0  0  0  0  0  0  0  0  0  0
    3.3713    4.2646   17.0169 S   0  0  0  0  0  0  0  0  0  0  0  0
    2.0177    4.4621   17.6720 O   0  0  0  0  0  0  0  0  0  0  0  0
    3.9063    5.6464   16.7735 O   0  0  0  0  0  0  0  0  0  0  0  0
    2.6456    2.3721   12.9061 C   0  0  0  0  0  0  0  0  0  0  0  0
    3.5226    3.4331   13.0547 C   0  0  0  0  0  0  0  0  0  0  0  0
    3.7450    4.0073   14.2914 C   0  0  0  0  0  0  0  0  0  0  0  0
    3.1075    3.5518   15.4256 C   0  0  0  0  0  0  0  0  0  0  0  0
    2.2275    2.4792   15.2450 C   0  0  0  0  0  0  0  0  0  0  0  0
    2.0043    1.9107   14.0338 C   0  0  0  0  0  0  0  0  0  0  0  0
    2.3498    2.6350   10.5312 C   0  0  0  0  0  0  0  0  0  0  0  0
    2.4034    1.7759   11.6730 O   0  0  0  0  0  0  0  0  0  0  0  0
    4.5353    2.0178   17.7911 C   0  0  0  0  0  0  0  0  0  0  0  0
    3.6627    1.1392   18.5554 C   0  0  0  0  0  0  0  0  0  0  0  0
    3.6187    1.2031   19.7987 O   0  0  0  0  0  0  0  0  0  0  0  0
    2.8523    0.2005   17.8976 N   0  0  0  0  0  0  0  0  0  0  0  0
    2.0141   -0.6530   18.5254 O   0  0  0  0  0  0  0  0  0  0  0  0
    2.8866    0.1447   16.8604 H   0  0  0  0  0  0  0  0  0  0  0  0
    2.3499   -1.5614   18.3859 H   0  0  0  0  0  0  0  0  0  0  0  0
    5.3569    4.0547   18.7847 C   0  0  0  0  0  0  0  0  0  0  0  0
    5.0323    4.1995   20.2254 C   0  0  0  0  0  0  0  0  0  0  0  0
    4.0483    5.0695   20.6744 C   0  0  0  0  0  0  0  0  0  0  0  0
    3.7197    5.2226   22.0009 C   0  0  0  0  0  0  0  0  0  0  0  0
    4.3894    4.4840   22.9523 C   0  0  0  0  0  0  0  0  0  0  0  0
    5.3736    3.6088   22.5452 C   0  0  0  0  0  0  0  0  0  0  0  0
    5.6847    3.4749   21.1942 C   0  0  0  0  0  0  0  0  0  0  0  0
 11 12  1  0  0  0
 12  5  1  0  0  0
  5  6  2  0  0  0
  6  7  1  0  0  0
  7  8  2  0  0  0
  8  9  1  0  0  0
  9 10  2  0  0  0
  8  2  1  0  0  0
  2  3  2  0  0  0
  2  4  2  0  0  0
  2  1  1  0  0  0
  1 13  1  0  0  0
 13 14  1  0  0  0
 14 15  2  0  0  0
 14 16  1  0  0  0
 16 17  1  0  0  0
  1 20  1  0  0  0
 20 21  1  0  0  0
 21 22  2  0  0  0
 22 23  1  0  0  0
 23 24  2  0  0  0
 24 25  1  0  0  0
 25 26  2  0  0  0
 10  5  1  0  0  0
 26 21  1  0  0  0
 16 18  1  0  0  0
 17 19  1  0  0  0
M  END
> <minimizedAffinity>
-6.73618

> <CNNscore>
0.3176798522

> <CNNaffinity>
5.1318998337

> <CNN_VS>
1.6303012371

> <CNNaffinity_variance>
0.1197257414

$$$$
[H]ON([H])C(=O)C([H])([H])N(C([H])([H])c1c([H])c([H])c([H])c([H])c1[H])S(=O)(=O)c1c([H])c([H])c(OC([H])([H])[H])c([H])c1[H]


 26 27  0  0  0  0  0  0  0  0999 V2000
    5.6749    5.8749   20.6586 N   0  0  0  0  0  0  0  0  0  0  0  0
    5.1062    6.4267   19.2005 S   0  0  0  0  0  0  0  0  0  0  0  0
    4.0372    7.4856   19.3920 O   0  0  0  0  0  0  0  0  0  0  0  0
    6.2039    7.0980   18.4265 O   0  0  0  0  0  0  0  0  0  0  0  0
    3.3487    3.2042   16.4559 C   0  0  0  0  0  0  0  0  0  0  0  0
    4.6953    3.2056   16.7780 C   0  0  0  0  0  0  0  0  0  0  0  0
    5.2302    4.1746   17.6047 C   0  0  0  0  0  0  0  0  0  0  0  0
    4.4515    5.1769   18.1426 C   0  0  0  0  0  0  0  0  0  0  0  0
    3.0953    5.1500   17.7999 C   0  0  0  0  0  0  0  0  0  0  0  0
    2.5634    4.2018   16.9888 C   0  0  0  0  0  0  0  0  0  0  0  0
    2.7279    0.9016   16.1244 C   0  0  0  0  0  0  0  0  0  0  0  0
    2.7846    2.2408   15.6262 O   0  0  0  0  0  0  0  0  0  0  0  0
    6.7869    6.5211   21.2422 C   0  0  0  0  0  0  0  0  0  0  0  0
    6.5201    7.4638   22.3181 C   0  0  0  0  0  0  0  0  0  0  0  0
    5.9348    8.5408   22.0961 O   0  0  0  0  0  0  0  0  0  0  0  0
    6.9214    7.1706   23.6310 N   0  0  0  0  0  0  0  0  0  0  0  0
    6.7156    7.9852   24.6889 O   0  0  0  0  0  0  0  0  0  0  0  0
    7.4099    6.2730   23.8196 H   0  0  0  0  0  0  0  0  0  0  0  0
    7.5884    8.2959   25.0036 H   0  0  0  0  0  0  0  0  0  0  0  0
    4.9018    5.0354   21.4664 C   0  0  0  0  0  0  0  0  0  0  0  0
    5.1761    3.5820   21.3472 C   0  0  0  0  0  0  0  0  0  0  0  0
    4.3253    2.7263   20.6610 C   0  0  0  0  0  0  0  0  0  0  0  0
    4.5536    1.3769   20.5274 C   0  0  0  0  0  0  0  0  0  0  0  0
    5.6799    0.8227   21.0964 C   0  0  0  0  0  0  0  0  0  0  0  0
    6.5492    1.6407   21.7860 C   0  0  0  0  0  0  0  0  0  0  0  0
    6.2916    3.0043   21.9048 C   0  0  0  0  0  0  0  0  0  0  0  0
 11 12  1  0  0  0
 12  5  1  0  0  0
  5  6  2  0  0  0
  6  7  1  0  0  0
  7  8  2  0  0  0
  8  9  1  0  0  0
  9 10  2  0  0  0
  8  2  1  0  0  0
  2  3  2  0  0  0
  2  4  2  0  0  0
  2  1  1  0  0  0
  1 13  1  0  0  0
 13 14  1  0  0  0
 14 15  2  0  0  0
 14 16  1  0  0  0
 16 17  1  0  0  0
  1 20  1  0  0  0
 20 21  1  0  0  0
 21 22  2  0  0  0
 22 23  1  0  0  0
 23 24  2  0  0  0
 24 25  1  0  0  0
 25 26  2  0  0  0
 10  5  1  0  0  0
 26 21  1  0  0  0
 16 18  1  0  0  0
 17 19  1  0  0  0
M  END
> <minimizedAffinity>
-7.34794

> <CNNscore>
0.3133739531

> <CNNaffinity>
5.1567077637

> <CNN_VS>
1.6159778833

> <CNNaffinity_variance>
0.2721297443

$$$$
[H]ON([H])C(=O)C([H])([H])N(C([H])([H])c1c([H])c([H])c([H])c([H])c1[H])S(=O)(=O)c1c([H])c([H])c(OC([H])([H])[H])c([H])c1[H]


 26 27  0  0  0  0  0  0  0  0999 V2000
    5.1511    6.7860   19.4339 N   0  0  0  0  0  0  0  0  0  0  0  0
    5.9051    5.9781   18.1960 S   0  0  0  0  0  0  0  0  0  0  0  0
    5.9080    6.8019   16.9225 O   0  0  0  0  0  0  0  0  0  0  0  0
    7.3508    5.7402   18.5251 O   0  0  0  0  0  0  0  0  0  0  0  0
    4.1329    1.8521   17.2784 C   0  0  0  0  0  0  0  0  0  0  0  0
    4.2176    2.8232   16.2952 C   0  0  0  0  0  0  0  0  0  0  0  0
    4.7509    4.0685   16.5664 C   0  0  0  0  0  0  0  0  0  0  0  0
    5.2195    4.3973   17.8205 C   0  0  0  0  0  0  0  0  0  0  0  0
    5.1210    3.3965   18.7933 C   0  0  0  0  0  0  0  0  0  0  0  0
    4.5986    2.1719   18.5341 C   0  0  0  0  0  0  0  0  0  0  0  0
    2.4836    0.1863   17.8283 C   0  0  0  0  0  0  0  0  0  0  0  0
    3.6007    0.5908   17.0324 O   0  0  0  0  0  0  0  0  0  0  0  0
    3.8099    7.1937   19.2612 C   0  0  0  0  0  0  0  0  0  0  0  0
    3.5832    8.5074   18.6780 C   0  0  0  0  0  0  0  0  0  0  0  0
    3.4582    9.5157   19.3987 O   0  0  0  0  0  0  0  0  0  0  0  0
    3.5016    8.6580   17.2846 N   0  0  0  0  0  0  0  0  0  0  0  0
    3.2939    9.8368   16.6580 O   0  0  0  0  0  0  0  0  0  0  0  0
    3.6055    7.8188   16.6805 H   0  0  0  0  0  0  0  0  0  0  0  0
    2.4188    9.7957   16.2223 H   0  0  0  0  0  0  0  0  0  0  0  0
    5.6750    6.7758   20.7302 C   0  0  0  0  0  0  0  0  0  0  0  0
    5.3309    5.5970   21.5634 C   0  0  0  0  0  0  0  0  0  0  0  0
    6.2475    4.5881   21.8254 C   0  0  0  0  0  0  0  0  0  0  0  0
    5.9622    3.4866   22.5975 C   0  0  0  0  0  0  0  0  0  0  0  0
    4.7066    3.3562   23.1506 C   0  0  0  0  0  0  0  0  0  0  0  0
    3.7687    4.3382   22.9130 C   0  0  0  0  0  0  0  0  0  0  0  0
    4.0867    5.4429   22.1267 C   0  0  0  0  0  0  0  0  0  0  0  0
 11 12  1  0  0  0
 12  5  1  0  0  0
  5  6  2  0  0  0
  6  7  1  0  0  0
  7  8  2  0  0  0
  8  9  1  0  0  0
  9 10  2  0  0  0
  8  2  1  0  0  0
  2  3  2  0  0  0
  2  4  2  0  0  0
  2  1  1  0  0  0
  1 13  1  0  0  0
 13 14  1  0  0  0
 14 15  2  0  0  0
 14 16  1  0  0  0
 16 17  1  0  0  0
  1 20  1  0  0  0
 20 21  1  0  0  0
 21 22  2  0  0  0
 22 23  1  0  0  0
 23 24  2  0  0  0
 24 25  1  0  0  0
 25 26  2  0  0  0
 10  5  1  0  0  0
 26 21  1  0  0  0
 16 18  1  0  0  0
 17 19  1  0  0  0
M  END
> <minimizedAffinity>
-6.95552

> <CNNscore>
0.3035446703

> <CNNaffinity>
5.0850534439

> <CNN_VS>
1.5435408354

> <CNNaffinity_variance>
0.3020667136

$$$$
[H]ON([H])C(=O)C([H])([H])N(C([H])([H])c1c([H])c([H])c([H])c([H])c1[H])S(=O)(=O)c1c([H])c([H])c(OC([H])([H])[H])c([H])c1[H]


 26 27  0  0  0  0  0  0  0  0999 V2000
    3.9025    5.7666   17.5718 N   0  0  0  0  0  0  0  0  0  0  0  0
    5.2073    4.9850   18.2352 S   0  0  0  0  0  0  0  0  0  0  0  0
    6.1148    4.4190   17.1597 O   0  0  0  0  0  0  0  0  0  0  0  0
    6.0575    5.9466   19.0145 O   0  0  0  0  0  0  0  0  0  0  0  0
    4.1525    1.5470   21.0767 C   0  0  0  0  0  0  0  0  0  0  0  0
    4.1690    2.8576   21.5230 C   0  0  0  0  0  0  0  0  0  0  0  0
    4.4862    3.8976   20.6707 C   0  0  0  0  0  0  0  0  0  0  0  0
    4.7985    3.6779   19.3461 C   0  0  0  0  0  0  0  0  0  0  0  0
    4.7738    2.3442   18.9238 C   0  0  0  0  0  0  0  0  0  0  0  0
    4.4633    1.3182   19.7550 C   0  0  0  0  0  0  0  0  0  0  0  0
    3.3288   -0.7046   21.2972 C   0  0  0  0  0  0  0  0  0  0  0  0
    3.8367    0.4816   21.9133 O   0  0  0  0  0  0  0  0  0  0  0  0
    4.0920    7.0491   17.0115 C   0  0  0  0  0  0  0  0  0  0  0  0
    4.1254    8.1781   17.9289 C   0  0  0  0  0  0  0  0  0  0  0  0
    4.5055    9.3019   17.5487 O   0  0  0  0  0  0  0  0  0  0  0  0
    3.7267    8.0156   19.2652 N   0  0  0  0  0  0  0  0  0  0  0  0
    3.7253    9.0060   20.1841 O   0  0  0  0  0  0  0  0  0  0  0  0
    3.4091    7.0795   19.5855 H   0  0  0  0  0  0  0  0  0  0  0  0
    4.3973    8.7888   20.8613 H   0  0  0  0  0  0  0  0  0  0  0  0
    2.7294    5.0753   17.2537 C   0  0  0  0  0  0  0  0  0  0  0  0
    2.8422    4.0599   16.1775 C   0  0  0  0  0  0  0  0  0  0  0  0
    3.4109    4.3531   14.9457 C   0  0  0  0  0  0  0  0  0  0  0  0
    3.5356    3.4341   13.9304 C   0  0  0  0  0  0  0  0  0  0  0  0
    3.0789    2.1483   14.1233 C   0  0  0  0  0  0  0  0  0  0  0  0
    2.5078    1.8187   15.3340 C   0  0  0  0  0  0  0  0  0  0  0  0
    2.3951    2.7710   16.3441 C   0  0  0  0  0  0  0  0  0  0  0  0
 11 12  1  0  0  0
 12  5  1  0  0  0
  5  6  2  0  0  0
  6  7  1  0  0  0
  7  8  2  0  0  0
  8  9  1  0  0  0
  9 10  2  0  0  0
  8  2  1  0  0  0
  2  3  2  0  0  0
  2  4  2  0  0  0
  2  1  1  0  0  0
  1 13  1  0  0  0
 13 14  1  0  0  0
 14 15  2  0  0  0
 14 16  1  0  0  0
 16 17  1  0  0  0
  1 20  1  0  0  0
 20 21  1  0  0  0
 21 22  2  0  0  0
 22 23  1  0  0  0
 23 24  2  0  0  0
 24 25  1  0  0  0
 25 26  2  0  0  0
 10  5  1  0  0  0
 26 21  1  0  0  0
 16 18  1  0  0  0
 17 19  1  0  0  0
M  END
> <minimizedAffinity>
-7.22223

> <CNNscore>
0.2878839076

> <CNNaffinity>
5.2325258255

> <CNN_VS>
1.5063599348

> <CNNaffinity_variance>
0.1848895103

$$$$
[H]OC(=O)C([H])([H])C([H])([H])[C@@]([H])(C(=O)N([H])[C@]([H])(C(=O)N([H])[C@]([H])(C(=O)N([H])[C@]([H])(C(=O)N([H])[C@]([H])(C(=O)N([H])[H])C([H])([H])c1c([H])nc([H])n1[H])C([H])([H])C([H])([H])C(=O)N([H])[H])C([H])([H])C([H])(C([H])([H])[H])C([H])([H])[H])C([H])([H])C([H])([H])C(=O)N([H])[H])N([H])[H]


 60 60  0  0  0  0  0  0  0  0999 V2000
    3.8711    7.0775   18.8151 C   0  0  0  0  0  0  0  0  0  0  0  0
    4.0444    6.7242   20.2054 N   0  0  0  0  0  0  0  0  0  0  0  0
    4.9948    5.8127   20.6721 C   0  0  0  0  0  0  0  0  0  0  0  0
    5.7676    5.2917   19.7637 O   0  0  0  0  0  0  0  0  0  0  0  0
    3.4316    7.2320   20.8689 H   0  0  0  0  0  0  0  0  0  0  0  0
    5.2783    5.3461   22.0265 C   0  0  0  0  0  0  0  0  0  0  0  0
    5.9943    6.3413   22.8057 N   0  0  0  0  0  0  0  0  0  0  0  0
    7.3544    6.6428   22.7444 C   0  0  0  0  0  0  0  0  0  0  0  0
    8.1235    6.0535   21.9703 O   0  0  0  0  0  0  0  0  0  0  0  0
    5.3455    6.8640   23.4826 H   0  0  0  0  0  0  0  0  0  0  0  0
    7.9025    7.7108   23.6406 C   0  0  0  0  0  0  0  0  0  0  0  0
    8.9753    8.4152   22.9661 N   0  0  0  0  0  0  0  0  0  0  0  0
    9.7447    7.7877   22.6983 H   0  0  0  0  0  0  0  0  0  0  0  0
    8.5879    8.8832   22.1305 H   0  0  0  0  0  0  0  0  0  0  0  0
    6.8473    8.7483   23.9497 C   0  0  0  0  0  0  0  0  0  0  0  0
    6.7067    9.8101   22.9245 C   0  0  0  0  0  0  0  0  0  0  0  0
    5.6328    9.6058   21.9493 C   0  0  0  0  0  0  0  0  0  0  0  0
    4.5213    8.7866   22.2378 O   0  0  0  0  0  0  0  0  0  0  0  0
    5.6508   10.1403   20.8281 O   0  0  0  0  0  0  0  0  0  0  0  0
    3.6425    9.1547   22.5547 H   0  0  0  0  0  0  0  0  0  0  0  0
    4.2010    4.7285   22.8307 C   0  0  0  0  0  0  0  0  0  0  0  0
    4.0184    3.2937   22.5191 C   0  0  0  0  0  0  0  0  0  0  0  0
    5.0165    2.4222   23.2031 C   0  0  0  0  0  0  0  0  0  0  0  0
    6.1008    1.8787   22.4990 N   0  0  0  0  0  0  0  0  0  0  0  0
    4.8453    2.2004   24.4151 O   0  0  0  0  0  0  0  0  0  0  0  0
    6.4387    0.8937   22.5897 H   0  0  0  0  0  0  0  0  0  0  0  0
    6.6426    2.4810   21.8182 H   0  0  0  0  0  0  0  0  0  0  0  0
    3.5302    5.8589   18.0027 C   0  0  0  0  0  0  0  0  0  0  0  0
    2.3395    5.4247   18.1770 O   0  0  0  0  0  0  0  0  0  0  0  0
    4.4189    5.2146   17.1093 N   0  0  0  0  0  0  0  0  0  0  0  0
    5.3834    5.5709   17.0066 H   0  0  0  0  0  0  0  0  0  0  0  0
    4.0100    4.0619   16.3314 C   0  0  0  0  0  0  0  0  0  0  0  0
    3.3180    4.4945   15.0836 C   0  0  0  0  0  0  0  0  0  0  0  0
    2.2649    3.9022   14.7668 O   0  0  0  0  0  0  0  0  0  0  0  0
    3.8013    5.5284   14.2755 N   0  0  0  0  0  0  0  0  0  0  0  0
    4.6784    6.0099   14.5331 H   0  0  0  0  0  0  0  0  0  0  0  0
    3.1097    5.9978   13.0313 C   0  0  0  0  0  0  0  0  0  0  0  0
    4.1896    6.5045   12.1605 C   0  0  0  0  0  0  0  0  0  0  0  0
    4.4514    7.8533   11.9500 N   0  0  0  0  0  0  0  0  0  0  0  0
    4.9480    5.6752   11.5513 O   0  0  0  0  0  0  0  0  0  0  0  0
    5.2724    8.3210   12.4410 H   0  0  0  0  0  0  0  0  0  0  0  0
    3.8957    8.4878   11.3268 H   0  0  0  0  0  0  0  0  0  0  0  0
    2.2177    7.1240   13.4272 C   0  0  0  0  0  0  0  0  0  0  0  0
    0.7761    6.9220   13.3361 C   0  0  0  0  0  0  0  0  0  0  0  0
   -0.1078    6.8140   12.2874 C   0  0  0  0  0  0  0  0  0  0  0  0
   -1.3745    6.6557   12.7344 N   0  0  0  0  0  0  0  0  0  0  0  0
   -1.2934    6.6632   14.0581 C   0  0  0  0  0  0  0  0  0  0  0  0
   -0.0282    6.8195   14.4445 N   0  0  0  0  0  0  0  0  0  0  0  0
    0.3064    6.8622   15.4143 H   0  0  0  0  0  0  0  0  0  0  0  0
    3.3416    2.9908   17.0911 C   0  0  0  0  0  0  0  0  0  0  0  0
    3.8840    1.6047   16.8761 C   0  0  0  0  0  0  0  0  0  0  0  0
    2.7776    0.7325   16.4293 C   0  0  0  0  0  0  0  0  0  0  0  0
    1.9539    1.0396   15.3118 N   0  0  0  0  0  0  0  0  0  0  0  0
    2.5425   -0.3278   17.0523 O   0  0  0  0  0  0  0  0  0  0  0  0
    1.9713    2.0120   14.9382 H   0  0  0  0  0  0  0  0  0  0  0  0
    1.3342    0.3494   14.8438 H   0  0  0  0  0  0  0  0  0  0  0  0
    4.8545    7.9034   18.1446 C   0  0  0  0  0  0  0  0  0  0  0  0
    4.7202    8.5858   15.6968 C   0  0  0  0  0  0  0  0  0  0  0  0
    4.4872    8.8930   17.1254 C   0  0  0  0  0  0  0  0  0  0  0  0
    5.2919   10.1716   17.4333 C   0  0  0  0  0  0  0  0  0  0  0  0
 58 59  1  0  0  0
 59 60  1  0  0  0
 59 57  1  0  0  0
 57  1  1  0  0  0
  1  2  1  0  0  0
  2  3  1  0  0  0
  3  4  2  0  0  0
  3  6  1  0  0  0
  6 21  1  0  0  0
 21 22  1  0  0  0
 22 23  1  0  0  0
 23 24  1  0  0  0
 23 25  2  0  0  0
  6  7  1  0  0  0
  7  8  1  0  0  0
  8  9  2  0  0  0
  8 11  1  0  0  0
 11 12  1  0  0  0
 11 15  1  0  0  0
 15 16  1  0  0  0
 16 17  1  0  0  0
 17 18  1  0  0  0
 17 19  2  0  0  0
  1 28  1  0  0  0
 28 29  2  0  0  0
 28 30  1  0  0  0
 30 32  1  0  0  0
 32 50  1  0  0  0
 50 51  1  0  0  0
 51 52  1  0  0  0
 52 53  1  0  0  0
 52 54  2  0  0  0
 32 33  1  0  0  0
 33 34  2  0  0  0
 33 35  1  0  0  0
 35 37  1  0  0  0
 37 43  1  0  0  0
 43 44  1  0  0  0
 44 45  2  0  0  0
 45 46  1  0  0  0
 46 47  2  0  0  0
 47 48  1  0  0  0
 37 38  1  0  0  0
 38 39  1  0  0  0
 38 40  2  0  0  0
 48 44  1  0  0  0
  2  5  1  0  0  0
 24 26  1  0  0  0
 24 27  1  0  0  0
  7 10  1  0  0  0
 12 13  1  0  0  0
 12 14  1  0  0  0
 18 20  1  0  0  0
 30 31  1  0  0  0
 53 55  1  0  0  0
 53 56  1  0  0  0
 35 36  1  0  0  0
 48 49  1  0  0  0
 39 41  1  0  0  0
 39 42  1  0  0  0
M  END
> <minimizedAffinity>
-7.90757

> <CNNscore>
0.3714141250

> <CNNaffinity>
6.9489989281

> <CNN_VS>
2.5809564590

> <CNNaffinity_variance>
0.3123043478

$$$$
[H]OC(=O)C([H])([H])C([H])([H])[C@@]([H])(C(=O)N([H])[C@]([H])(C(=O)N([H])[C@]([H])(C(=O)N([H])[C@]([H])(C(=O)N([H])[C@]([H])(C(=O)N([H])[H])C([H])([H])c1c([H])nc([H])n1[H])C([H])([H])C([H])([H])C(=O)N([H])[H])C([H])([H])C([H])(C([H])([H])[H])C([H])([H])[H])C([H])([H])C([H])([H])C(=O)N([H])[H])N([H])[H]


 60 60  0  0  0  0  0  0  0  0999 V2000
    3.9088    3.0741   17.7345 C   0  0  0  0  0  0  0  0  0  0  0  0
    4.1182    4.1062   16.7451 N   0  0  0  0  0  0  0  0  0  0  0  0
    3.2114    5.1352   16.4788 C   0  0  0  0  0  0  0  0  0  0  0  0
    2.1345    5.1386   17.2097 O   0  0  0  0  0  0  0  0  0  0  0  0
    5.0290    4.0665   16.2527 H   0  0  0  0  0  0  0  0  0  0  0  0
    3.2725    6.2284   15.5126 C   0  0  0  0  0  0  0  0  0  0  0  0
    1.9897    6.4598   14.8715 N   0  0  0  0  0  0  0  0  0  0  0  0
    1.7645    6.9704   13.5935 C   0  0  0  0  0  0  0  0  0  0  0  0
    2.6966    7.2917   12.8411 O   0  0  0  0  0  0  0  0  0  0  0  0
    1.1684    6.1871   15.5068 H   0  0  0  0  0  0  0  0  0  0  0  0
    0.3544    7.1353   13.1154 C   0  0  0  0  0  0  0  0  0  0  0  0
    0.3518    7.5323   11.7210 N   0  0  0  0  0  0  0  0  0  0  0  0
    0.8538    8.4166   11.5673 H   0  0  0  0  0  0  0  0  0  0  0  0
    0.7799    6.7760   11.1623 H   0  0  0  0  0  0  0  0  0  0  0  0
   -0.3932    5.8230   13.1805 C   0  0  0  0  0  0  0  0  0  0  0  0
   -0.0229    4.8488   12.1261 C   0  0  0  0  0  0  0  0  0  0  0  0
    0.6589    3.6404   12.5963 C   0  0  0  0  0  0  0  0  0  0  0  0
    0.5392    2.4129   11.9117 O   0  0  0  0  0  0  0  0  0  0  0  0
    1.3696    3.6394   13.6151 O   0  0  0  0  0  0  0  0  0  0  0  0
    1.2286    2.0850   11.2593 H   0  0  0  0  0  0  0  0  0  0  0  0
    3.9053    7.5102   15.8935 C   0  0  0  0  0  0  0  0  0  0  0  0
    5.2683    7.3247   16.4385 C   0  0  0  0  0  0  0  0  0  0  0  0
    6.0549    8.5910   16.4714 C   0  0  0  0  0  0  0  0  0  0  0  0
    6.8917    8.8914   17.5560 N   0  0  0  0  0  0  0  0  0  0  0  0
    5.9360    9.3623   15.5027 O   0  0  0  0  0  0  0  0  0  0  0  0
    6.9631    9.8284   18.0139 H   0  0  0  0  0  0  0  0  0  0  0  0
    7.5130    8.1397   17.9665 H   0  0  0  0  0  0  0  0  0  0  0  0
    4.3786    3.5391   19.0852 C   0  0  0  0  0  0  0  0  0  0  0  0
    5.4997    3.0446   19.4529 O   0  0  0  0  0  0  0  0  0  0  0  0
    3.6735    4.4452   19.9128 N   0  0  0  0  0  0  0  0  0  0  0  0
    2.7577    4.8097   19.6027 H   0  0  0  0  0  0  0  0  0  0  0  0
    4.2044    4.8767   21.1906 C   0  0  0  0  0  0  0  0  0  0  0  0
    5.0669    6.0805   21.0167 C   0  0  0  0  0  0  0  0  0  0  0  0
    5.4067    6.3901   19.8552 O   0  0  0  0  0  0  0  0  0  0  0  0
    5.4938    6.8618   22.0950 N   0  0  0  0  0  0  0  0  0  0  0  0
    5.2209    6.5980   23.0559 H   0  0  0  0  0  0  0  0  0  0  0  0
    6.3392    8.0901   21.9427 C   0  0  0  0  0  0  0  0  0  0  0  0
    7.1961    8.1171   23.1453 C   0  0  0  0  0  0  0  0  0  0  0  0
    6.7800    7.7073   24.4067 N   0  0  0  0  0  0  0  0  0  0  0  0
    8.4001    8.5359   23.0508 O   0  0  0  0  0  0  0  0  0  0  0  0
    7.0857    6.7616   24.7889 H   0  0  0  0  0  0  0  0  0  0  0  0
    6.1660    8.2616   25.0514 H   0  0  0  0  0  0  0  0  0  0  0  0
    5.4158    9.2595   21.9613 C   0  0  0  0  0  0  0  0  0  0  0  0
    4.8808    9.7315   20.6892 C   0  0  0  0  0  0  0  0  0  0  0  0
    5.1342   10.8258   19.8947 C   0  0  0  0  0  0  0  0  0  0  0  0
    4.3381   10.8267   18.8013 N   0  0  0  0  0  0  0  0  0  0  0  0
    3.5853    9.7396   18.9023 C   0  0  0  0  0  0  0  0  0  0  0  0
    3.8855    9.0691   20.0135 N   0  0  0  0  0  0  0  0  0  0  0  0
    3.4473    8.1957   20.3292 H   0  0  0  0  0  0  0  0  0  0  0  0
    4.7662    3.8082   22.0356 C   0  0  0  0  0  0  0  0  0  0  0  0
    3.7609    2.9483   22.7511 C   0  0  0  0  0  0  0  0  0  0  0  0
    3.8284    1.5827   22.1899 C   0  0  0  0  0  0  0  0  0  0  0  0
    5.0139    1.0360   21.6267 N   0  0  0  0  0  0  0  0  0  0  0  0
    2.8044    0.8625   22.2036 O   0  0  0  0  0  0  0  0  0  0  0  0
    5.7914    1.6864   21.3857 H   0  0  0  0  0  0  0  0  0  0  0  0
    5.1517    0.0230   21.4411 H   0  0  0  0  0  0  0  0  0  0  0  0
    4.3266    1.7129   17.4678 C   0  0  0  0  0  0  0  0  0  0  0  0
    2.5385    1.2116   15.7280 C   0  0  0  0  0  0  0  0  0  0  0  0
    3.4612    0.7438   16.7860 C   0  0  0  0  0  0  0  0  0  0  0  0
    2.5839    0.0874   17.8706 C   0  0  0  0  0  0  0  0  0  0  0  0
 58 59  1  0  0  0
 59 60  1  0  0  0
 59 57  1  0  0  0
 57  1  1  0  0  0
  1  2  1  0  0  0
  2  3  1  0  0  0
  3  4  2  0  0  0
  3  6  1  0  0  0
  6 21  1  0  0  0
 21 22  1  0  0  0
 22 23  1  0  0  0
 23 24  1  0  0  0
 23 25  2  0  0  0
  6  7  1  0  0  0
  7  8  1  0  0  0
  8  9  2  0  0  0
  8 11  1  0  0  0
 11 12  1  0  0  0
 11 15  1  0  0  0
 15 16  1  0  0  0
 16 17  1  0  0  0
 17 18  1  0  0  0
 17 19  2  0  0  0
  1 28  1  0  0  0
 28 29  2  0  0  0
 28 30  1  0  0  0
 30 32  1  0  0  0
 32 50  1  0  0  0
 50 51  1  0  0  0
 51 52  1  0  0  0
 52 53  1  0  0  0
 52 54  2  0  0  0
 32 33  1  0  0  0
 33 34  2  0  0  0
 33 35  1  0  0  0
 35 37  1  0  0  0
 37 43  1  0  0  0
 43 44  1  0  0  0
 44 45  2  0  0  0
 45 46  1  0  0  0
 46 47  2  0  0  0
 47 48  1  0  0  0
 37 38  1  0  0  0
 38 39  1  0  0  0
 38 40  2  0  0  0
 48 44  1  0  0  0
  2  5  1  0  0  0
 24 26  1  0  0  0
 24 27  1  0  0  0
  7 10  1  0  0  0
 12 13  1  0  0  0
 12 14  1  0  0  0
 18 20  1  0  0  0
 30 31  1  0  0  0
 53 55  1  0  0  0
 53 56  1  0  0  0
 35 36  1  0  0  0
 48 49  1  0  0  0
 39 41  1  0  0  0
 39 42  1  0  0  0
M  END
> <minimizedAffinity>
-7.82832

> <CNNscore>
0.3536737859

> <CNNaffinity>
7.0948820114

> <CNN_VS>
2.5092737675

> <CNNaffinity_variance>
0.1258715987

$$$$
[H]OC(=O)C([H])([H])C([H])([H])[C@@]([H])(C(=O)N([H])[C@]([H])(C(=O)N([H])[C@]([H])(C(=O)N([H])[C@]([H])(C(=O)N([H])[C@]([H])(C(=O)N([H])[H])C([H])([H])c1c([H])nc([H])n1[H])C([H])([H])C([H])([H])C(=O)N([H])[H])C([H])([H])C([H])(C([H])([H])[H])C([H])([H])[H])C([H])([H])C([H])([H])C(=O)N([H])[H])N([H])[H]


 60 60  0  0  0  0  0  0  0  0999 V2000
    3.8039    4.4613   17.5965 C   0  0  0  0  0  0  0  0  0  0  0  0
    4.1501    5.7782   17.1129 N   0  0  0  0  0  0  0  0  0  0  0  0
    5.3674    6.4144   17.3688 C   0  0  0  0  0  0  0  0  0  0  0  0
    6.2229    5.7297   18.0710 O   0  0  0  0  0  0  0  0  0  0  0  0
    3.4381    6.2272   16.5087 H   0  0  0  0  0  0  0  0  0  0  0  0
    5.8529    7.7321   16.9681 C   0  0  0  0  0  0  0  0  0  0  0  0
    5.3908    8.1015   15.6414 N   0  0  0  0  0  0  0  0  0  0  0  0
    6.1282    8.7209   14.6327 C   0  0  0  0  0  0  0  0  0  0  0  0
    7.3193    9.0303   14.7857 O   0  0  0  0  0  0  0  0  0  0  0  0
    4.3606    7.8413   15.4882 H   0  0  0  0  0  0  0  0  0  0  0  0
    5.4611    9.0211   13.3254 C   0  0  0  0  0  0  0  0  0  0  0  0
    6.4542    9.0882   12.2713 N   0  0  0  0  0  0  0  0  0  0  0  0
    7.1626    9.8120   12.4497 H   0  0  0  0  0  0  0  0  0  0  0  0
    6.9033    8.1621   12.1823 H   0  0  0  0  0  0  0  0  0  0  0  0
    4.5110    7.9108   12.9382 C   0  0  0  0  0  0  0  0  0  0  0  0
    3.0962    8.3306   12.7960 C   0  0  0  0  0  0  0  0  0  0  0  0
    2.1940    7.8733   13.8557 C   0  0  0  0  0  0  0  0  0  0  0  0
    2.6562    7.6415   15.1681 O   0  0  0  0  0  0  0  0  0  0  0  0
    0.9864    7.6680   13.6495 O   0  0  0  0  0  0  0  0  0  0  0  0
    2.5599    8.3164   15.9054 H   0  0  0  0  0  0  0  0  0  0  0  0
    5.7313    8.8740   17.9008 C   0  0  0  0  0  0  0  0  0  0  0  0
    4.5644    9.7301   17.5930 C   0  0  0  0  0  0  0  0  0  0  0  0
    3.4586    9.5770   18.5815 C   0  0  0  0  0  0  0  0  0  0  0  0
    3.3133    8.3954   19.3228 N   0  0  0  0  0  0  0  0  0  0  0  0
    2.6774   10.5355   18.7173 O   0  0  0  0  0  0  0  0  0  0  0  0
    2.4045    7.9115   19.5036 H   0  0  0  0  0  0  0  0  0  0  0  0
    4.1642    7.9317   19.7479 H   0  0  0  0  0  0  0  0  0  0  0  0
    3.8348    4.4295   19.0996 C   0  0  0  0  0  0  0  0  0  0  0  0
    3.0507    5.2699   19.6614 O   0  0  0  0  0  0  0  0  0  0  0  0
    4.6462    3.5611   19.8682 N   0  0  0  0  0  0  0  0  0  0  0  0
    5.2895    2.9097   19.3890 H   0  0  0  0  0  0  0  0  0  0  0  0
    4.5988    3.5620   21.3168 C   0  0  0  0  0  0  0  0  0  0  0  0
    5.6601    4.4499   21.8722 C   0  0  0  0  0  0  0  0  0  0  0  0
    6.5846    3.9164   22.5210 O   0  0  0  0  0  0  0  0  0  0  0  0
    5.6540    5.8359   21.6867 N   0  0  0  0  0  0  0  0  0  0  0  0
    4.8827    6.2767   21.1592 H   0  0  0  0  0  0  0  0  0  0  0  0
    6.7228    6.7454   22.2131 C   0  0  0  0  0  0  0  0  0  0  0  0
    6.0768    8.0684   22.3300 C   0  0  0  0  0  0  0  0  0  0  0  0
    6.4145    9.0175   23.2878 N   0  0  0  0  0  0  0  0  0  0  0  0
    5.1480    8.3896   21.5127 O   0  0  0  0  0  0  0  0  0  0  0  0
    7.0103    9.8582   23.0198 H   0  0  0  0  0  0  0  0  0  0  0  0
    6.1284    8.9882   24.2964 H   0  0  0  0  0  0  0  0  0  0  0  0
    7.7942    6.8026   21.1790 C   0  0  0  0  0  0  0  0  0  0  0  0
    9.1426    6.4028   21.5654 C   0  0  0  0  0  0  0  0  0  0  0  0
   10.3765    6.5033   20.9652 C   0  0  0  0  0  0  0  0  0  0  0  0
   11.3380    5.9455   21.7358 N   0  0  0  0  0  0  0  0  0  0  0  0
   10.7171    5.4948   22.8174 C   0  0  0  0  0  0  0  0  0  0  0  0
    9.4123    5.7524   22.7445 N   0  0  0  0  0  0  0  0  0  0  0  0
    8.7074    5.5059   23.4494 H   0  0  0  0  0  0  0  0  0  0  0  0
    4.4856    2.2347   21.9468 C   0  0  0  0  0  0  0  0  0  0  0  0
    5.0457    1.0874   21.1520 C   0  0  0  0  0  0  0  0  0  0  0  0
    3.9196    0.3157   20.5855 C   0  0  0  0  0  0  0  0  0  0  0  0
    3.3769   -0.8368   21.2170 N   0  0  0  0  0  0  0  0  0  0  0  0
    3.4098    0.6804   19.5018 O   0  0  0  0  0  0  0  0  0  0  0  0
    3.9303   -1.2920   21.9734 H   0  0  0  0  0  0  0  0  0  0  0  0
    2.4578   -1.2530   20.9686 H   0  0  0  0  0  0  0  0  0  0  0  0
    4.4339    3.2871   17.0284 C   0  0  0  0  0  0  0  0  0  0  0  0
    3.6211    3.1965   14.6187 C   0  0  0  0  0  0  0  0  0  0  0  0
    3.8356    2.5306   15.9227 C   0  0  0  0  0  0  0  0  0  0  0  0
    2.4494    2.0571   16.4035 C   0  0  0  0  0  0  0  0  0  0  0  0
 58 59  1  0  0  0
 59 60  1  0  0  0
 59 57  1  0  0  0
 57  1  1  0  0  0
  1  2  1  0  0  0
  2  3  1  0  0  0
  3  4  2  0  0  0
  3  6  1  0  0  0
  6 21  1  0  0  0
 21 22  1  0  0  0
 22 23  1  0  0  0
 23 24  1  0  0  0
 23 25  2  0  0  0
  6  7  1  0  0  0
  7  8  1  0  0  0
  8  9  2  0  0  0
  8 11  1  0  0  0
 11 12  1  0  0  0
 11 15  1  0  0  0
 15 16  1  0  0  0
 16 17  1  0  0  0
 17 18  1  0  0  0
 17 19  2  0  0  0
  1 28  1  0  0  0
 28 29  2  0  0  0
 28 30  1  0  0  0
 30 32  1  0  0  0
 32 50  1  0  0  0
 50 51  1  0  0  0
 51 52  1  0  0  0
 52 53  1  0  0  0
 52 54  2  0  0  0
 32 33  1  0  0  0
 33 34  2  0  0  0
 33 35  1  0  0  0
 35 37  1  0  0  0
 37 43  1  0  0  0
 43 44  1  0  0  0
 44 45  2  0  0  0
 45 46  1  0  0  0
 46 47  2  0  0  0
 47 48  1  0  0  0
 37 38  1  0  0  0
 38 39  1  0  0  0
 38 40  2  0  0  0
 48 44  1  0  0  0
  2  5  1  0  0  0
 24 26  1  0  0  0
 24 27  1  0  0  0
  7 10  1  0  0  0
 12 13  1  0  0  0
 12 14  1  0  0  0
 18 20  1  0  0  0
 30 31  1  0  0  0
 53 55  1  0  0  0
 53 56  1  0  0  0
 35 36  1  0  0  0
 48 49  1  0  0  0
 39 41  1  0  0  0
 39 42  1  0  0  0
M  END
> <minimizedAffinity>
-7.50566

> <CNNscore>
0.3147771060

> <CNNaffinity>
6.9947919846

> <CNN_VS>
2.2018003464

> <CNNaffinity_variance>
0.2327245176

$$$$
[H]OC(=O)C([H])([H])C([H])([H])[C@@]([H])(C(=O)N([H])[C@]([H])(C(=O)N([H])[C@]([H])(C(=O)N([H])[C@]([H])(C(=O)N([H])[C@]([H])(C(=O)N([H])[H])C([H])([H])c1c([H])nc([H])n1[H])C([H])([H])C([H])([H])C(=O)N([H])[H])C([H])([H])C([H])(C([H])([H])[H])C([H])([H])[H])C([H])([H])C([H])([H])C(=O)N([H])[H])N([H])[H]


 60 60  0  0  0  0  0  0  0  0999 V2000
    4.7878    5.2697   19.9090 C   0  0  0  0  0  0  0  0  0  0  0  0
    4.5570    6.6121   19.4268 N   0  0  0  0  0  0  0  0  0  0  0  0
    5.5539    7.5821   19.2952 C   0  0  0  0  0  0  0  0  0  0  0  0
    6.7560    7.1999   19.6158 O   0  0  0  0  0  0  0  0  0  0  0  0
    3.5840    6.8138   19.1332 H   0  0  0  0  0  0  0  0  0  0  0  0
    5.4761    8.9685   18.8432 C   0  0  0  0  0  0  0  0  0  0  0  0
    4.5950    9.1185   17.6981 N   0  0  0  0  0  0  0  0  0  0  0  0
    4.6052    8.3703   16.5214 C   0  0  0  0  0  0  0  0  0  0  0  0
    5.4164    7.4510   16.3348 O   0  0  0  0  0  0  0  0  0  0  0  0
    3.8836    9.9099   17.8400 H   0  0  0  0  0  0  0  0  0  0  0  0
    3.6059    8.6865   15.4510 C   0  0  0  0  0  0  0  0  0  0  0  0
    3.2404   10.0879   15.5189 N   0  0  0  0  0  0  0  0  0  0  0  0
    2.8340   10.3402   16.4293 H   0  0  0  0  0  0  0  0  0  0  0  0
    4.0820   10.6573   15.3325 H   0  0  0  0  0  0  0  0  0  0  0  0
    4.2018    8.4733   14.0781 C   0  0  0  0  0  0  0  0  0  0  0  0
    5.0272    9.6005   13.5817 C   0  0  0  0  0  0  0  0  0  0  0  0
    6.3331    9.2301   13.0308 C   0  0  0  0  0  0  0  0  0  0  0  0
    6.5825    9.2593   11.6427 O   0  0  0  0  0  0  0  0  0  0  0  0
    7.2767    8.8737   13.7557 O   0  0  0  0  0  0  0  0  0  0  0  0
    7.0380   10.0303   11.1885 H   0  0  0  0  0  0  0  0  0  0  0  0
    5.2440   10.0492   19.8266 C   0  0  0  0  0  0  0  0  0  0  0  0
    5.0006    9.5270   21.1894 C   0  0  0  0  0  0  0  0  0  0  0  0
    6.1405    9.7792   22.1170 C   0  0  0  0  0  0  0  0  0  0  0  0
    5.9864    9.6352   23.5036 N   0  0  0  0  0  0  0  0  0  0  0  0
    7.2241   10.1208   21.6106 O   0  0  0  0  0  0  0  0  0  0  0  0
    6.3610   10.2995   24.2185 H   0  0  0  0  0  0  0  0  0  0  0  0
    5.4598    8.8036   23.8920 H   0  0  0  0  0  0  0  0  0  0  0  0
    4.8278    4.2994   18.7608 C   0  0  0  0  0  0  0  0  0  0  0  0
    5.9510    4.2507   18.1502 O   0  0  0  0  0  0  0  0  0  0  0  0
    3.7404    3.4895   18.3553 N   0  0  0  0  0  0  0  0  0  0  0  0
    2.8365    3.5673   18.8499 H   0  0  0  0  0  0  0  0  0  0  0  0
    3.8616    2.5495   17.2586 C   0  0  0  0  0  0  0  0  0  0  0  0
    2.9281    2.9140   16.1546 C   0  0  0  0  0  0  0  0  0  0  0  0
    1.8400    2.3042   16.0872 O   0  0  0  0  0  0  0  0  0  0  0  0
    3.2270    3.9039   15.2132 N   0  0  0  0  0  0  0  0  0  0  0  0
    4.1321    4.3996   15.2638 H   0  0  0  0  0  0  0  0  0  0  0  0
    2.2942    4.3053   14.1107 C   0  0  0  0  0  0  0  0  0  0  0  0
    3.1655    4.5632   12.9464 C   0  0  0  0  0  0  0  0  0  0  0  0
    4.5530    4.4861   12.9804 N   0  0  0  0  0  0  0  0  0  0  0  0
    2.6399    4.8767   11.8242 O   0  0  0  0  0  0  0  0  0  0  0  0
    5.0512    3.6402   12.5680 H   0  0  0  0  0  0  0  0  0  0  0  0
    5.1898    5.2112   13.3909 H   0  0  0  0  0  0  0  0  0  0  0  0
    1.6391    5.5747   14.5349 C   0  0  0  0  0  0  0  0  0  0  0  0
    0.3399    5.9021   13.9586 C   0  0  0  0  0  0  0  0  0  0  0  0
   -0.6132    6.8553   14.2339 C   0  0  0  0  0  0  0  0  0  0  0  0
   -1.6805    6.7259   13.4132 N   0  0  0  0  0  0  0  0  0  0  0  0
   -1.4051    5.6973   12.6227 C   0  0  0  0  0  0  0  0  0  0  0  0
   -0.2115    5.1880   12.9231 N   0  0  0  0  0  0  0  0  0  0  0  0
    0.2362    4.3861   12.4639 H   0  0  0  0  0  0  0  0  0  0  0  0
    3.8685    1.1269   17.6425 C   0  0  0  0  0  0  0  0  0  0  0  0
    4.1702    0.8448   19.0886 C   0  0  0  0  0  0  0  0  0  0  0  0
    3.0087    0.1501   19.6829 C   0  0  0  0  0  0  0  0  0  0  0  0
    2.1507   -0.7010   18.9339 N   0  0  0  0  0  0  0  0  0  0  0  0
    2.7559    0.3080   20.8988 O   0  0  0  0  0  0  0  0  0  0  0  0
    2.1934   -0.6536   17.8940 H   0  0  0  0  0  0  0  0  0  0  0  0
    1.4819   -1.3701   19.3636 H   0  0  0  0  0  0  0  0  0  0  0  0
    4.0117    4.7491   21.0160 C   0  0  0  0  0  0  0  0  0  0  0  0
    5.1130    2.7406   22.1244 C   0  0  0  0  0  0  0  0  0  0  0  0
    4.6354    4.1393   22.1958 C   0  0  0  0  0  0  0  0  0  0  0  0
    3.5902    4.1857   23.3283 C   0  0  0  0  0  0  0  0  0  0  0  0
 58 59  1  0  0  0
 59 60  1  0  0  0
 59 57  1  0  0  0
 57  1  1  0  0  0
  1  2  1  0  0  0
  2  3  1  0  0  0
  3  4  2  0  0  0
  3  6  1  0  0  0
  6 21  1  0  0  0
 21 22  1  0  0  0
 22 23  1  0  0  0
 23 24  1  0  0  0
 23 25  2  0  0  0
  6  7  1  0  0  0
  7  8  1  0  0  0
  8  9  2  0  0  0
  8 11  1  0  0  0
 11 12  1  0  0  0
 11 15  1  0  0  0
 15 16  1  0  0  0
 16 17  1  0  0  0
 17 18  1  0  0  0
 17 19  2  0  0  0
  1 28  1  0  0  0
 28 29  2  0  0  0
 28 30  1  0  0  0
 30 32  1  0  0  0
 32 50  1  0  0  0
 50 51  1  0  0  0
 51 52  1  0  0  0
 52 53  1  0  0  0
 52 54  2  0  0  0
 32 33  1  0  0  0
 33 34  2  0  0  0
 33 35  1  0  0  0
 35 37  1  0  0  0
 37 43  1  0  0  0
 43 44  1  0  0  0
 44 45  2  0  0  0
 45 46  1  0  0  0
 46 47  2  0  0  0
 47 48  1  0  0  0
 37 38  1  0  0  0
 38 39  1  0  0  0
 38 40  2  0  0  0
 48 44  1  0  0  0
  2  5  1  0  0  0
 24 26  1  0  0  0
 24 27  1  0  0  0
  7 10  1  0  0  0
 12 13  1  0  0  0
 12 14  1  0  0  0
 18 20  1  0  0  0
 30 31  1  0  0  0
 53 55  1  0  0  0
 53 56  1  0  0  0
 35 36  1  0  0  0
 48 49  1  0  0  0
 39 41  1  0  0  0
 39 42  1  0  0  0
M  END
> <minimizedAffinity>
-7.32874

> <CNNscore>
0.2843441963

> <CNNaffinity>
6.7970533371

> <CNN_VS>
1.9327026606

> <CNNaffinity_variance>
0.4816256166

$$$$
[H]OC(=O)C([H])([H])C([H])([H])[C@@]([H])(C(=O)N([H])[C@]([H])(C(=O)N([H])[C@]([H])(C(=O)N([H])[C@]([H])(C(=O)N([H])[C@]([H])(C(=O)N([H])[H])C([H])([H])c1c([H])nc([H])n1[H])C([H])([H])C([H])([H])C(=O)N([H])[H])C([H])([H])C([H])(C([H])([H])[H])C([H])([H])[H])C([H])([H])C([H])([H])C(=O)N([H])[H])N([H])[H]


 60 60  0  0  0  0  0  0  0  0999 V2000
    4.5876    7.5545   17.0726 C   0  0  0  0  0  0  0  0  0  0  0  0
    4.9801    7.4901   18.4617 N   0  0  0  0  0  0  0  0  0  0  0  0
    4.4679    8.3196   19.4624 C   0  0  0  0  0  0  0  0  0  0  0  0
    3.5641    9.1732   19.0771 O   0  0  0  0  0  0  0  0  0  0  0  0
    5.6568    6.7406   18.6943 H   0  0  0  0  0  0  0  0  0  0  0  0
    4.7719    8.3856   20.8892 C   0  0  0  0  0  0  0  0  0  0  0  0
    4.7101    7.0782   21.5194 N   0  0  0  0  0  0  0  0  0  0  0  0
    5.6609    6.0606   21.4473 C   0  0  0  0  0  0  0  0  0  0  0  0
    6.7110    6.1877   20.8000 O   0  0  0  0  0  0  0  0  0  0  0  0
    3.8077    6.9479   22.0859 H   0  0  0  0  0  0  0  0  0  0  0  0
    5.4057    4.7756   22.1738 C   0  0  0  0  0  0  0  0  0  0  0  0
    4.5328    5.0164   23.3060 N   0  0  0  0  0  0  0  0  0  0  0  0
    4.9338    5.6921   23.9696 H   0  0  0  0  0  0  0  0  0  0  0  0
    3.6232    5.3571   22.9541 H   0  0  0  0  0  0  0  0  0  0  0  0
    4.6807    3.7899   21.2860 C   0  0  0  0  0  0  0  0  0  0  0  0
    5.0094    2.3677   21.5456 C   0  0  0  0  0  0  0  0  0  0  0  0
    3.8762    1.4405   21.4987 C   0  0  0  0  0  0  0  0  0  0  0  0
    3.1855    1.0611   22.6687 O   0  0  0  0  0  0  0  0  0  0  0  0
    3.4730    0.9465   20.4327 O   0  0  0  0  0  0  0  0  0  0  0  0
    2.3262    1.4934   22.9568 H   0  0  0  0  0  0  0  0  0  0  0  0
    5.9613    9.1335   21.3525 C   0  0  0  0  0  0  0  0  0  0  0  0
    5.8584    9.5293   22.7744 C   0  0  0  0  0  0  0  0  0  0  0  0
    7.0546    9.1343   23.5722 C   0  0  0  0  0  0  0  0  0  0  0  0
    7.9443    8.1577   23.1014 N   0  0  0  0  0  0  0  0  0  0  0  0
    7.2261    9.7042   24.6646 O   0  0  0  0  0  0  0  0  0  0  0  0
    8.3547    7.3928   23.6838 H   0  0  0  0  0  0  0  0  0  0  0  0
    8.2470    8.1652   22.0875 H   0  0  0  0  0  0  0  0  0  0  0  0
    4.0461    6.2272   16.6184 C   0  0  0  0  0  0  0  0  0  0  0  0
    2.7695    6.1722   16.5542 O   0  0  0  0  0  0  0  0  0  0  0  0
    4.8431    5.1075   16.2805 N   0  0  0  0  0  0  0  0  0  0  0  0
    5.8709    5.1710   16.3658 H   0  0  0  0  0  0  0  0  0  0  0  0
    4.2526    3.8678   15.8164 C   0  0  0  0  0  0  0  0  0  0  0  0
    3.5376    4.0825   14.5258 C   0  0  0  0  0  0  0  0  0  0  0  0
    4.2060    4.0189   13.4724 O   0  0  0  0  0  0  0  0  0  0  0  0
    2.1652    4.3426   14.4607 N   0  0  0  0  0  0  0  0  0  0  0  0
    1.6159    4.4059   15.3335 H   0  0  0  0  0  0  0  0  0  0  0  0
    1.4202    4.5362   13.1745 C   0  0  0  0  0  0  0  0  0  0  0  0
    0.3740    5.5317   13.4838 C   0  0  0  0  0  0  0  0  0  0  0  0
    0.5325    6.5701   14.3941 N   0  0  0  0  0  0  0  0  0  0  0  0
   -0.7567    5.4608   12.8918 O   0  0  0  0  0  0  0  0  0  0  0  0
    0.7084    7.5616   14.0481 H   0  0  0  0  0  0  0  0  0  0  0  0
    0.4948    6.4715   15.4376 H   0  0  0  0  0  0  0  0  0  0  0  0
    0.7840    3.2311   12.8390 C   0  0  0  0  0  0  0  0  0  0  0  0
    1.3513    2.4529   11.7436 C   0  0  0  0  0  0  0  0  0  0  0  0
    0.8352    1.9184   10.5857 C   0  0  0  0  0  0  0  0  0  0  0  0
    1.7842    1.2440    9.8973 N   0  0  0  0  0  0  0  0  0  0  0  0
    2.8946    1.3508   10.6145 C   0  0  0  0  0  0  0  0  0  0  0  0
    2.6680    2.0637   11.7167 N   0  0  0  0  0  0  0  0  0  0  0  0
    3.3586    2.2908   12.4420 H   0  0  0  0  0  0  0  0  0  0  0  0
    3.5131    3.0997   16.8334 C   0  0  0  0  0  0  0  0  0  0  0  0
    3.9277    1.6628   16.9923 C   0  0  0  0  0  0  0  0  0  0  0  0
    2.7788    0.8019   16.6410 C   0  0  0  0  0  0  0  0  0  0  0  0
    1.9607    1.0314   15.5010 N   0  0  0  0  0  0  0  0  0  0  0  0
    2.5006   -0.1773   17.3699 O   0  0  0  0  0  0  0  0  0  0  0  0
    2.0194    1.9589   15.0300 H   0  0  0  0  0  0  0  0  0  0  0  0
    1.3060    0.3266   15.1082 H   0  0  0  0  0  0  0  0  0  0  0  0
    5.4827    8.1267   16.0878 C   0  0  0  0  0  0  0  0  0  0  0  0
    3.8007    9.9169   15.4233 C   0  0  0  0  0  0  0  0  0  0  0  0
    5.0631    9.1889   15.1666 C   0  0  0  0  0  0  0  0  0  0  0  0
    4.9178    8.5418   13.7747 C   0  0  0  0  0  0  0  0  0  0  0  0
 58 59  1  0  0  0
 59 60  1  0  0  0
 59 57  1  0  0  0
 57  1  1  0  0  0
  1  2  1  0  0  0
  2  3  1  0  0  0
  3  4  2  0  0  0
  3  6  1  0  0  0
  6 21  1  0  0  0
 21 22  1  0  0  0
 22 23  1  0  0  0
 23 24  1  0  0  0
 23 25  2  0  0  0
  6  7  1  0  0  0
  7  8  1  0  0  0
  8  9  2  0  0  0
  8 11  1  0  0  0
 11 12  1  0  0  0
 11 15  1  0  0  0
 15 16  1  0  0  0
 16 17  1  0  0  0
 17 18  1  0  0  0
 17 19  2  0  0  0
  1 28  1  0  0  0
 28 29  2  0  0  0
 28 30  1  0  0  0
 30 32  1  0  0  0
 32 50  1  0  0  0
 50 51  1  0  0  0
 51 52  1  0  0  0
 52 53  1  0  0  0
 52 54  2  0  0  0
 32 33  1  0  0  0
 33 34  2  0  0  0
 33 35  1  0  0  0
 35 37  1  0  0  0
 37 43  1  0  0  0
 43 44  1  0  0  0
 44 45  2  0  0  0
 45 46  1  0  0  0
 46 47  2  0  0  0
 47 48  1  0  0  0
 37 38  1  0  0  0
 38 39  1  0  0  0
 38 40  2  0  0  0
 48 44  1  0  0  0
  2  5  1  0  0  0
 24 26  1  0  0  0
 24 27  1  0  0  0
  7 10  1  0  0  0
 12 13  1  0  0  0
 12 14  1  0  0  0
 18 20  1  0  0  0
 30 31  1  0  0  0
 53 55  1  0  0  0
 53 56  1  0  0  0
 35 36  1  0  0  0
 48 49  1  0  0  0
 39 41  1  0  0  0
 39 42  1  0  0  0
M  END
> <minimizedAffinity>
-7.23850

> <CNNscore>
0.2679940462

> <CNNaffinity>
6.4927825928

> <CNN_VS>
1.7400270700

> <CNNaffinity_variance>
0.4339294434

$$$$
[H]OC(=O)C([H])([H])C([H])([H])[C@@]([H])(C(=O)N([H])[C@]([H])(C(=O)N([H])[C@]([H])(C(=O)N([H])[C@]([H])(C(=O)N([H])[C@]([H])(C(=O)N([H])[H])C([H])([H])c1c([H])nc([H])n1[H])C([H])([H])C([H])([H])C(=O)N([H])[H])C([H])([H])C([H])(C([H])([H])[H])C([H])([H])[H])C([H])([H])C([H])([H])C(=O)N([H])[H])N([H])[H]


 60 60  0  0  0  0  0  0  0  0999 V2000
    5.3117    5.0412   21.1569 C   0  0  0  0  0  0  0  0  0  0  0  0
    5.1713    4.4992   19.8249 N   0  0  0  0  0  0  0  0  0  0  0  0
    4.0173    4.6168   19.0462 C   0  0  0  0  0  0  0  0  0  0  0  0
    3.0406    5.2864   19.5861 O   0  0  0  0  0  0  0  0  0  0  0  0
    6.0174    4.0365   19.4458 H   0  0  0  0  0  0  0  0  0  0  0  0
    3.7206    4.1170   17.7065 C   0  0  0  0  0  0  0  0  0  0  0  0
    3.5210    5.1964   16.7552 N   0  0  0  0  0  0  0  0  0  0  0  0
    4.3303    6.3164   16.5672 C   0  0  0  0  0  0  0  0  0  0  0  0
    5.3583    6.5032   17.2352 O   0  0  0  0  0  0  0  0  0  0  0  0
    2.6353    5.0533   16.1657 H   0  0  0  0  0  0  0  0  0  0  0  0
    3.9462    7.3236   15.5269 C   0  0  0  0  0  0  0  0  0  0  0  0
    5.1061    7.6744   14.7309 N   0  0  0  0  0  0  0  0  0  0  0  0
    5.8650    8.0687   15.3020 H   0  0  0  0  0  0  0  0  0  0  0  0
    5.4334    6.8291   14.2352 H   0  0  0  0  0  0  0  0  0  0  0  0
    2.9349    6.7443   14.5640 C   0  0  0  0  0  0  0  0  0  0  0  0
    2.0356    7.7433   13.9385 C   0  0  0  0  0  0  0  0  0  0  0  0
    2.3074    8.0410   12.5301 C   0  0  0  0  0  0  0  0  0  0  0  0
    1.2815    8.4473   11.6514 O   0  0  0  0  0  0  0  0  0  0  0  0
    3.4475    7.9489   12.0456 O   0  0  0  0  0  0  0  0  0  0  0  0
    1.1099    9.4104   11.4246 H   0  0  0  0  0  0  0  0  0  0  0  0
    4.5604    3.0504   17.1183 C   0  0  0  0  0  0  0  0  0  0  0  0
    3.7719    1.8558   16.7436 C   0  0  0  0  0  0  0  0  0  0  0  0
    3.1157    1.9910   15.4116 C   0  0  0  0  0  0  0  0  0  0  0  0
    1.9591    1.2611   15.1008 N   0  0  0  0  0  0  0  0  0  0  0  0
    3.6358    2.7726   14.5954 O   0  0  0  0  0  0  0  0  0  0  0  0
    1.7863    0.7738   14.1923 H   0  0  0  0  0  0  0  0  0  0  0  0
    1.1811    1.1775   15.8132 H   0  0  0  0  0  0  0  0  0  0  0  0
    5.9110    6.4194   21.1020 C   0  0  0  0  0  0  0  0  0  0  0  0
    6.9724    6.5053   20.3930 O   0  0  0  0  0  0  0  0  0  0  0  0
    5.3800    7.5531   21.7623 N   0  0  0  0  0  0  0  0  0  0  0  0
    4.5359    7.4503   22.3494 H   0  0  0  0  0  0  0  0  0  0  0  0
    5.9926    8.8607   21.6365 C   0  0  0  0  0  0  0  0  0  0  0  0
    6.6964    9.2297   22.8981 C   0  0  0  0  0  0  0  0  0  0  0  0
    6.0233    9.7617   23.8059 O   0  0  0  0  0  0  0  0  0  0  0  0
    8.0614    8.9969   23.0933 N   0  0  0  0  0  0  0  0  0  0  0  0
    8.6189    8.5669   22.3373 H   0  0  0  0  0  0  0  0  0  0  0  0
    8.7849    9.3354   24.3617 C   0  0  0  0  0  0  0  0  0  0  0  0
    9.8513   10.2732   23.9559 C   0  0  0  0  0  0  0  0  0  0  0  0
   10.0508   10.7072   22.6505 N   0  0  0  0  0  0  0  0  0  0  0  0
   10.6544   10.7326   24.8379 O   0  0  0  0  0  0  0  0  0  0  0  0
    9.7355   11.6811   22.3574 H   0  0  0  0  0  0  0  0  0  0  0  0
   10.5019   10.1458   21.8881 H   0  0  0  0  0  0  0  0  0  0  0  0
    9.3953    8.0727   24.8652 C   0  0  0  0  0  0  0  0  0  0  0  0
    9.7833    7.0613   23.8886 C   0  0  0  0  0  0  0  0  0  0  0  0
   10.9280    6.8253   23.1627 C   0  0  0  0  0  0  0  0  0  0  0  0
   10.7775    5.7513   22.3545 N   0  0  0  0  0  0  0  0  0  0  0  0
    9.5453    5.3096   22.5672 C   0  0  0  0  0  0  0  0  0  0  0  0
    8.9308    6.0677   23.4738 N   0  0  0  0  0  0  0  0  0  0  0  0
    7.9703    5.9428   23.8150 H   0  0  0  0  0  0  0  0  0  0  0  0
    5.1337    9.9085   21.0571 C   0  0  0  0  0  0  0  0  0  0  0  0
    5.0866    9.9541   19.5546 C   0  0  0  0  0  0  0  0  0  0  0  0
    3.7362    9.5444   19.1153 C   0  0  0  0  0  0  0  0  0  0  0  0
    3.2681    8.2047   19.2025 N   0  0  0  0  0  0  0  0  0  0  0  0
    2.9577   10.4038   18.6432 O   0  0  0  0  0  0  0  0  0  0  0  0
    3.9662    7.4469   19.3576 H   0  0  0  0  0  0  0  0  0  0  0  0
    2.2678    7.9356   19.1210 H   0  0  0  0  0  0  0  0  0  0  0  0
    5.9098    4.2448   22.2089 C   0  0  0  0  0  0  0  0  0  0  0  0
    4.7165    2.0366   22.6282 C   0  0  0  0  0  0  0  0  0  0  0  0
    5.1149    3.3841   23.0922 C   0  0  0  0  0  0  0  0  0  0  0  0
    3.8086    4.1433   23.3991 C   0  0  0  0  0  0  0  0  0  0  0  0
 58 59  1  0  0  0
 59 60  1  0  0  0
 59 57  1  0  0  0
 57  1  1  0  0  0
  1  2  1  0  0  0
  2  3  1  0  0  0
  3  4  2  0  0  0
  3  6  1  0  0  0
  6 21  1  0  0  0
 21 22  1  0  0  0
 22 23  1  0  0  0
 23 24  1  0  0  0
 23 25  2  0  0  0
  6  7  1  0  0  0
  7  8  1  0  0  0
  8  9  2  0  0  0
  8 11  1  0  0  0
 11 12  1  0  0  0
 11 15  1  0  0  0
 15 16  1  0  0  0
 16 17  1  0  0  0
 17 18  1  0  0  0
 17 19  2  0  0  0
  1 28  1  0  0  0
 28 29  2  0  0  0
 28 30  1  0  0  0
 30 32  1  0  0  0
 32 50  1  0  0  0
 50 51  1  0  0  0
 51 52  1  0  0  0
 52 53  1  0  0  0
 52 54  2  0  0  0
 32 33  1  0  0  0
 33 34  2  0  0  0
 33 35  1  0  0  0
 35 37  1  0  0  0
 37 43  1  0  0  0
 43 44  1  0  0  0
 44 45  2  0  0  0
 45 46  1  0  0  0
 46 47  2  0  0  0
 47 48  1  0  0  0
 37 38  1  0  0  0
 38 39  1  0  0  0
 38 40  2  0  0  0
 48 44  1  0  0  0
  2  5  1  0  0  0
 24 26  1  0  0  0
 24 27  1  0  0  0
  7 10  1  0  0  0
 12 13  1  0  0  0
 12 14  1  0  0  0
 18 20  1  0  0  0
 30 31  1  0  0  0
 53 55  1  0  0  0
 53 56  1  0  0  0
 35 36  1  0  0  0
 48 49  1  0  0  0
 39 41  1  0  0  0
 39 42  1  0  0  0
M  END
> <minimizedAffinity>
-7.40135

> <CNNscore>
0.2323669195

> <CNNaffinity>
6.7442002296

> <CNN_VS>
1.5671290159

> <CNNaffinity_variance>
0.1319366992

$$$$
[H]OC(=O)C([H])([H])C([H])([H])[C@@]([H])(C(=O)N([H])[C@]([H])(C(=O)N([H])[C@]([H])(C(=O)N([H])[C@]([H])(C(=O)N([H])[C@]([H])(C(=O)N([H])[H])C([H])([H])c1c([H])nc([H])n1[H])C([H])([H])C([H])([H])C(=O)N([H])[H])C([H])([H])C([H])(C([H])([H])[H])C([H])([H])[H])C([H])([H])C([H])([H])C(=O)N([H])[H])N([H])[H]


 60 60  0  0  0  0  0  0  0  0999 V2000
    3.7493    3.1867   15.3318 C   0  0  0  0  0  0  0  0  0  0  0  0
    4.1892    4.4596   15.8554 N   0  0  0  0  0  0  0  0  0  0  0  0
    3.3552    5.3722   16.5061 C   0  0  0  0  0  0  0  0  0  0  0  0
    2.1165    4.9992   16.6487 O   0  0  0  0  0  0  0  0  0  0  0  0
    5.2028    4.6504   15.7563 H   0  0  0  0  0  0  0  0  0  0  0  0
    3.6440    6.6881   17.0697 C   0  0  0  0  0  0  0  0  0  0  0  0
    3.8478    6.6312   18.5069 N   0  0  0  0  0  0  0  0  0  0  0  0
    4.8361    5.9252   19.1921 C   0  0  0  0  0  0  0  0  0  0  0  0
    5.6842    5.2409   18.6002 O   0  0  0  0  0  0  0  0  0  0  0  0
    3.1232    7.2184   19.0386 H   0  0  0  0  0  0  0  0  0  0  0  0
    4.8742    5.9961   20.6880 C   0  0  0  0  0  0  0  0  0  0  0  0
    4.4406    7.3074   21.1288 N   0  0  0  0  0  0  0  0  0  0  0  0
    5.0316    8.0597   20.7516 H   0  0  0  0  0  0  0  0  0  0  0  0
    3.4585    7.4443   20.8390 H   0  0  0  0  0  0  0  0  0  0  0  0
    3.9084    5.0064   21.2987 C   0  0  0  0  0  0  0  0  0  0  0  0
    4.4551    3.6398   21.4767 C   0  0  0  0  0  0  0  0  0  0  0  0
    3.9998    2.9302   22.6747 C   0  0  0  0  0  0  0  0  0  0  0  0
    3.3148    1.7002   22.5870 O   0  0  0  0  0  0  0  0  0  0  0  0
    4.1932    3.3763   23.8178 O   0  0  0  0  0  0  0  0  0  0  0  0
    3.7723    0.8139   22.7030 H   0  0  0  0  0  0  0  0  0  0  0  0
    4.6605    7.5530   16.4315 C   0  0  0  0  0  0  0  0  0  0  0  0
    4.0528    8.6324   15.6223 C   0  0  0  0  0  0  0  0  0  0  0  0
    3.2884    8.1160   14.4508 C   0  0  0  0  0  0  0  0  0  0  0  0
    1.9182    8.3808   14.3111 N   0  0  0  0  0  0  0  0  0  0  0  0
    3.9146    7.4453   13.6110 O   0  0  0  0  0  0  0  0  0  0  0  0
    1.2016    7.6802   14.0139 H   0  0  0  0  0  0  0  0  0  0  0  0
    1.5457    9.3510   14.5104 H   0  0  0  0  0  0  0  0  0  0  0  0
    3.1010    3.3683   13.9872 C   0  0  0  0  0  0  0  0  0  0  0  0
    2.8972    2.2789   13.3482 O   0  0  0  0  0  0  0  0  0  0  0  0
    2.7309    4.6183   13.4361 N   0  0  0  0  0  0  0  0  0  0  0  0
    2.9303    5.4848   13.9624 H   0  0  0  0  0  0  0  0  0  0  0  0
    2.0771    4.7154   12.1461 C   0  0  0  0  0  0  0  0  0  0  0  0
    3.0862    4.8888   11.0623 C   0  0  0  0  0  0  0  0  0  0  0  0
    2.9453    4.2119   10.0220 O   0  0  0  0  0  0  0  0  0  0  0  0
    4.1627    5.7747   11.1719 N   0  0  0  0  0  0  0  0  0  0  0  0
    4.2840    6.3256   12.0375 H   0  0  0  0  0  0  0  0  0  0  0  0
    5.1745    5.9849   10.0863 C   0  0  0  0  0  0  0  0  0  0  0  0
    6.3772    5.2557   10.5369 C   0  0  0  0  0  0  0  0  0  0  0  0
    7.5281    5.8722   11.0138 N   0  0  0  0  0  0  0  0  0  0  0  0
    6.3891    3.9780   10.4997 O   0  0  0  0  0  0  0  0  0  0  0  0
    7.7283    5.8940   12.0594 H   0  0  0  0  0  0  0  0  0  0  0  0
    8.2544    6.3409   10.4199 H   0  0  0  0  0  0  0  0  0  0  0  0
    5.4650    7.4457   10.0386 C   0  0  0  0  0  0  0  0  0  0  0  0
    4.8789    8.2267    8.9551 C   0  0  0  0  0  0  0  0  0  0  0  0
    3.7103    8.1328    8.2351 C   0  0  0  0  0  0  0  0  0  0  0  0
    3.6385    9.1047    7.2973 N   0  0  0  0  0  0  0  0  0  0  0  0
    4.7546    9.8100    7.4226 C   0  0  0  0  0  0  0  0  0  0  0  0
    5.5108    9.3121    8.3996 N   0  0  0  0  0  0  0  0  0  0  0  0
    6.4254    9.6708    8.6982 H   0  0  0  0  0  0  0  0  0  0  0  0
    0.9203    5.6264   12.0902 C   0  0  0  0  0  0  0  0  0  0  0  0
   -0.2115    5.2990   13.0248 C   0  0  0  0  0  0  0  0  0  0  0  0
   -0.9225    6.5515   13.3569 C   0  0  0  0  0  0  0  0  0  0  0  0
   -1.8854    6.6409   14.3991 N   0  0  0  0  0  0  0  0  0  0  0  0
   -0.6767    7.5889   12.7004 O   0  0  0  0  0  0  0  0  0  0  0  0
   -2.2773    5.7566   14.7864 H   0  0  0  0  0  0  0  0  0  0  0  0
   -2.2222    7.5388   14.7992 H   0  0  0  0  0  0  0  0  0  0  0  0
    2.9917    2.2773   16.1670 C   0  0  0  0  0  0  0  0  0  0  0  0
    2.7765   -0.0473   17.1797 C   0  0  0  0  0  0  0  0  0  0  0  0
    3.6083    1.1283   16.8396 C   0  0  0  0  0  0  0  0  0  0  0  0
    4.1919    1.6485   18.1685 C   0  0  0  0  0  0  0  0  0  0  0  0
 58 59  1  0  0  0
 59 60  1  0  0  0
 59 57  1  0  0  0
 57  1  1  0  0  0
  1  2  1  0  0  0
  2  3  1  0  0  0
  3  4  2  0  0  0
  3  6  1  0  0  0
  6 21  1  0  0  0
 21 22  1  0  0  0
 22 23  1  0  0  0
 23 24  1  0  0  0
 23 25  2  0  0  0
  6  7  1  0  0  0
  7  8  1  0  0  0
  8  9  2  0  0  0
  8 11  1  0  0  0
 11 12  1  0  0  0
 11 15  1  0  0  0
 15 16  1  0  0  0
 16 17  1  0  0  0
 17 18  1  0  0  0
 17 19  2  0  0  0
  1 28  1  0  0  0
 28 29  2  0  0  0
 28 30  1  0  0  0
 30 32  1  0  0  0
 32 50  1  0  0  0
 50 51  1  0  0  0
 51 52  1  0  0  0
 52 53  1  0  0  0
 52 54  2  0  0  0
 32 33  1  0  0  0
 33 34  2  0  0  0
 33 35  1  0  0  0
 35 37  1  0  0  0
 37 43  1  0  0  0
 43 44  1  0  0  0
 44 45  2  0  0  0
 45 46  1  0  0  0
 46 47  2  0  0  0
 47 48  1  0  0  0
 37 38  1  0  0  0
 38 39  1  0  0  0
 38 40  2  0  0  0
 48 44  1  0  0  0
  2  5  1  0  0  0
 24 26  1  0  0  0
 24 27  1  0  0  0
  7 10  1  0  0  0
 12 13  1  0  0  0
 12 14  1  0  0  0
 18 20  1  0  0  0
 30 31  1  0  0  0
 53 55  1  0  0  0
 53 56  1  0  0  0
 35 36  1  0  0  0
 48 49  1  0  0  0
 39 41  1  0  0  0
 39 42  1  0  0  0
M  END
> <minimizedAffinity>
-7.10830

> <CNNscore>
0.2160737962

> <CNNaffinity>
6.5081872940

> <CNN_VS>
1.4062486887

> <CNNaffinity_variance>
0.3097419441

$$$$
[H]OC(=O)C([H])([H])C([H])([H])[C@@]([H])(C(=O)N([H])[C@]([H])(C(=O)N([H])[C@]([H])(C(=O)N([H])[C@]([H])(C(=O)N([H])[C@]([H])(C(=O)N([H])[H])C([H])([H])c1c([H])nc([H])n1[H])C([H])([H])C([H])([H])C(=O)N([H])[H])C([H])([H])C([H])(C([H])([H])[H])C([H])([H])[H])C([H])([H])C([H])([H])C(=O)N([H])[H])N([H])[H]


 60 60  0  0  0  0  0  0  0  0999 V2000
    5.1830    5.0757   20.3434 C   0  0  0  0  0  0  0  0  0  0  0  0
    5.0207    4.6662   18.9672 N   0  0  0  0  0  0  0  0  0  0  0  0
    3.8100    4.7115   18.2714 C   0  0  0  0  0  0  0  0  0  0  0  0
    2.7960    5.1825   18.9376 O   0  0  0  0  0  0  0  0  0  0  0  0
    5.8904    4.3643   18.4917 H   0  0  0  0  0  0  0  0  0  0  0  0
    3.4871    4.3235   16.9011 C   0  0  0  0  0  0  0  0  0  0  0  0
    3.5240    5.4560   15.9922 N   0  0  0  0  0  0  0  0  0  0  0  0
    2.6327    5.7372   14.9572 C   0  0  0  0  0  0  0  0  0  0  0  0
    1.6672    5.0013   14.7041 O   0  0  0  0  0  0  0  0  0  0  0  0
    4.3533    6.1067   16.1952 H   0  0  0  0  0  0  0  0  0  0  0  0
    2.8483    6.9652   14.1267 C   0  0  0  0  0  0  0  0  0  0  0  0
    2.0711    8.0646   14.6645 N   0  0  0  0  0  0  0  0  0  0  0  0
    1.0642    7.8564   14.6835 H   0  0  0  0  0  0  0  0  0  0  0  0
    2.4114    8.2735   15.6173 H   0  0  0  0  0  0  0  0  0  0  0  0
    4.2935    7.4054   14.1816 C   0  0  0  0  0  0  0  0  0  0  0  0
    4.5473    8.5843   15.0441 C   0  0  0  0  0  0  0  0  0  0  0  0
    5.6898    8.4654   15.9534 C   0  0  0  0  0  0  0  0  0  0  0  0
    6.6607    9.4837   16.0539 O   0  0  0  0  0  0  0  0  0  0  0  0
    5.8572    7.4674   16.6737 O   0  0  0  0  0  0  0  0  0  0  0  0
    6.6463   10.1788   16.7784 H   0  0  0  0  0  0  0  0  0  0  0  0
    4.1483    3.1462   16.2965 C   0  0  0  0  0  0  0  0  0  0  0  0
    3.7688    1.8824   16.9657 C   0  0  0  0  0  0  0  0  0  0  0  0
    2.6530    1.1748   16.2745 C   0  0  0  0  0  0  0  0  0  0  0  0
    1.9592    1.7827   15.2180 N   0  0  0  0  0  0  0  0  0  0  0  0
    2.3672    0.0319   16.6738 O   0  0  0  0  0  0  0  0  0  0  0  0
    0.9214    1.7623   15.0947 H   0  0  0  0  0  0  0  0  0  0  0  0
    2.4925    2.3080   14.4701 H   0  0  0  0  0  0  0  0  0  0  0  0
    5.8072    6.4420   20.4140 C   0  0  0  0  0  0  0  0  0  0  0  0
    6.8792    6.5685   19.7274 O   0  0  0  0  0  0  0  0  0  0  0  0
    5.2877    7.5248   21.1629 N   0  0  0  0  0  0  0  0  0  0  0  0
    4.4343    7.3880   21.7292 H   0  0  0  0  0  0  0  0  0  0  0  0
    5.9248    8.8267   21.1570 C   0  0  0  0  0  0  0  0  0  0  0  0
    6.6995    9.0332   22.4141 C   0  0  0  0  0  0  0  0  0  0  0  0
    6.1975    9.7643   23.2938 O   0  0  0  0  0  0  0  0  0  0  0  0
    7.9458    8.4389   22.6356 N   0  0  0  0  0  0  0  0  0  0  0  0
    8.3646    7.8434   21.9025 H   0  0  0  0  0  0  0  0  0  0  0  0
    8.7309    8.6109   23.9008 C   0  0  0  0  0  0  0  0  0  0  0  0
    9.9645    9.3136   23.4938 C   0  0  0  0  0  0  0  0  0  0  0  0
   10.3143    9.5703   22.1732 N   0  0  0  0  0  0  0  0  0  0  0  0
   10.7791    9.7246   24.3889 O   0  0  0  0  0  0  0  0  0  0  0  0
   10.1885   10.5467   21.7675 H   0  0  0  0  0  0  0  0  0  0  0  0
   10.7084    8.8661   21.5034 H   0  0  0  0  0  0  0  0  0  0  0  0
    9.0723    7.2456   24.3905 C   0  0  0  0  0  0  0  0  0  0  0  0
   10.0327    6.4615   23.6224 C   0  0  0  0  0  0  0  0  0  0  0  0
   11.3436    6.0953   23.8233 C   0  0  0  0  0  0  0  0  0  0  0  0
   11.8103    5.3704   22.7812 N   0  0  0  0  0  0  0  0  0  0  0  0
   10.8013    5.2776   21.9256 C   0  0  0  0  0  0  0  0  0  0  0  0
    9.7320    5.9159   22.3984 N   0  0  0  0  0  0  0  0  0  0  0  0
    8.8216    5.9982   21.9307 H   0  0  0  0  0  0  0  0  0  0  0  0
    5.0639    9.9505   20.7482 C   0  0  0  0  0  0  0  0  0  0  0  0
    4.9076   10.1443   19.2650 C   0  0  0  0  0  0  0  0  0  0  0  0
    3.5930    9.6052   18.8578 C   0  0  0  0  0  0  0  0  0  0  0  0
    2.4939   10.4341   18.5024 N   0  0  0  0  0  0  0  0  0  0  0  0
    3.4239    8.3653   18.8191 O   0  0  0  0  0  0  0  0  0  0  0  0
    2.5336   11.4433   18.7585 H   0  0  0  0  0  0  0  0  0  0  0  0
    1.6510   10.0923   18.0001 H   0  0  0  0  0  0  0  0  0  0  0  0
    5.7756    4.1719   21.3080 C   0  0  0  0  0  0  0  0  0  0  0  0
    4.1554    2.2146   21.1677 C   0  0  0  0  0  0  0  0  0  0  0  0
    5.5405    2.7239   21.2768 C   0  0  0  0  0  0  0  0  0  0  0  0
    6.1141    2.1495   22.5876 C   0  0  0  0  0  0  0  0  0  0  0  0
 58 59  1  0  0  0
 59 60  1  0  0  0
 59 57  1  0  0  0
 57  1  1  0  0  0
  1  2  1  0  0  0
  2  3  1  0  0  0
  3  4  2  0  0  0
  3  6  1  0  0  0
  6 21  1  0  0  0
 21 22  1  0  0  0
 22 23  1  0  0  0
 23 24  1  0  0  0
 23 25  2  0  0  0
  6  7  1  0  0  0
  7  8  1  0  0  0
  8  9  2  0  0  0
  8 11  1  0  0  0
 11 12  1  0  0  0
 11 15  1  0  0  0
 15 16  1  0  0  0
 16 17  1  0  0  0
 17 18  1  0  0  0
 17 19  2  0  0  0
  1 28  1  0  0  0
 28 29  2  0  0  0
 28 30  1  0  0  0
 30 32  1  0  0  0
 32 50  1  0  0  0
 50 51  1  0  0  0
 51 52  1  0  0  0
 52 53  1  0  0  0
 52 54  2  0  0  0
 32 33  1  0  0  0
 33 34  2  0  0  0
 33 35  1  0  0  0
 35 37  1  0  0  0
 37 43  1  0  0  0
 43 44  1  0  0  0
 44 45  2  0  0  0
 45 46  1  0  0  0
 46 47  2  0  0  0
 47 48  1  0  0  0
 37 38  1  0  0  0
 38 39  1  0  0  0
 38 40  2  0  0  0
 48 44  1  0  0  0
  2  5  1  0  0  0
 24 26  1  0  0  0
 24 27  1  0  0  0
  7 10  1  0  0  0
 12 13  1  0  0  0
 12 14  1  0  0  0
 18 20  1  0  0  0
 30 31  1  0  0  0
 53 55  1  0  0  0
 53 56  1  0  0  0
 35 36  1  0  0  0
 48 49  1  0  0  0
 39 41  1  0  0  0
 39 42  1  0  0  0
M  END
> <minimizedAffinity>
-7.23768

> <CNNscore>
0.2115604579

> <CNNaffinity>
6.7674407959

> <CNN_VS>
1.4317228794

> <CNNaffinity_variance>
0.1577246189

$$$$
[H]OC(=O)C([H])([H])C([H])([H])[C@@]([H])(C(=O)N([H])[C@]([H])(C(=O)N([H])[C@]([H])(C(=O)N([H])[C@]([H])(C(=O)N([H])[C@]([H])(C(=O)N([H])[H])C([H])([H])c1c([H])nc([H])n1[H])C([H])([H])C([H])([H])C(=O)N([H])[H])C([H])([H])C([H])(C([H])([H])[H])C([H])([H])[H])C([H])([H])C([H])([H])C(=O)N([H])[H])N([H])[H]


 60 60  0  0  0  0  0  0  0  0999 V2000
    4.1757    3.8732   16.2772 C   0  0  0  0  0  0  0  0  0  0  0  0
    4.4100    4.9834   17.1719 N   0  0  0  0  0  0  0  0  0  0  0  0
    3.4209    5.5843   17.9545 C   0  0  0  0  0  0  0  0  0  0  0  0
    2.2328    5.0619   17.8576 O   0  0  0  0  0  0  0  0  0  0  0  0
    5.3955    5.2967   17.2369 H   0  0  0  0  0  0  0  0  0  0  0  0
    3.4974    6.7086   18.8833 C   0  0  0  0  0  0  0  0  0  0  0  0
    3.8368    6.2801   20.2291 N   0  0  0  0  0  0  0  0  0  0  0  0
    4.8345    5.3799   20.6020 C   0  0  0  0  0  0  0  0  0  0  0  0
    5.5689    4.8308   19.7672 O   0  0  0  0  0  0  0  0  0  0  0  0
    3.2121    6.7451   20.9680 H   0  0  0  0  0  0  0  0  0  0  0  0
    5.0245    5.0674   22.0547 C   0  0  0  0  0  0  0  0  0  0  0  0
    5.5796    6.2201   22.7367 N   0  0  0  0  0  0  0  0  0  0  0  0
    6.4858    6.5057   22.3433 H   0  0  0  0  0  0  0  0  0  0  0  0
    4.9018    6.9973   22.6750 H   0  0  0  0  0  0  0  0  0  0  0  0
    3.6984    4.7821   22.7221 C   0  0  0  0  0  0  0  0  0  0  0  0
    3.7705    3.8308   23.8569 C   0  0  0  0  0  0  0  0  0  0  0  0
    4.5965    2.6421   23.6309 C   0  0  0  0  0  0  0  0  0  0  0  0
    5.8198    2.4552   24.3079 O   0  0  0  0  0  0  0  0  0  0  0  0
    4.2612    1.7485   22.8360 O   0  0  0  0  0  0  0  0  0  0  0  0
    5.9039    1.8864   25.1312 H   0  0  0  0  0  0  0  0  0  0  0  0
    4.2642    7.9176   18.5105 C   0  0  0  0  0  0  0  0  0  0  0  0
    5.3187    8.2412   19.4967 C   0  0  0  0  0  0  0  0  0  0  0  0
    4.9139    9.3206   20.4424 C   0  0  0  0  0  0  0  0  0  0  0  0
    4.8063   10.6515   20.0134 N   0  0  0  0  0  0  0  0  0  0  0  0
    4.6789    8.9908   21.6186 O   0  0  0  0  0  0  0  0  0  0  0  0
    5.1547   11.4809   20.5457 H   0  0  0  0  0  0  0  0  0  0  0  0
    4.3419   10.8713   19.0883 H   0  0  0  0  0  0  0  0  0  0  0  0
    3.7546    4.3713   14.9222 C   0  0  0  0  0  0  0  0  0  0  0  0
    3.3599    3.4543   14.1222 O   0  0  0  0  0  0  0  0  0  0  0  0
    3.7765    5.7290   14.5229 N   0  0  0  0  0  0  0  0  0  0  0  0
    4.1242    6.4465   15.1802 H   0  0  0  0  0  0  0  0  0  0  0  0
    3.3226    6.1413   13.2096 C   0  0  0  0  0  0  0  0  0  0  0  0
    4.3268    7.0383   12.5692 C   0  0  0  0  0  0  0  0  0  0  0  0
    4.6544    8.0764   13.1819 O   0  0  0  0  0  0  0  0  0  0  0  0
    4.9060    6.7541   11.3286 N   0  0  0  0  0  0  0  0  0  0  0  0
    4.6257    5.9007   10.8181 H   0  0  0  0  0  0  0  0  0  0  0  0
    5.9359    7.6269   10.6773 C   0  0  0  0  0  0  0  0  0  0  0  0
    5.4050    7.9040    9.3273 C   0  0  0  0  0  0  0  0  0  0  0  0
    5.5329    9.1255    8.6763 N   0  0  0  0  0  0  0  0  0  0  0  0
    4.7869    6.9824    8.6928 O   0  0  0  0  0  0  0  0  0  0  0  0
    6.2538    9.2450    7.9017 H   0  0  0  0  0  0  0  0  0  0  0  0
    4.9642    9.9828    8.8803 H   0  0  0  0  0  0  0  0  0  0  0  0
    7.1839    6.8202   10.5672 C   0  0  0  0  0  0  0  0  0  0  0  0
    8.3427    7.2391   11.3476 C   0  0  0  0  0  0  0  0  0  0  0  0
    8.5993    8.3063   12.1770 C   0  0  0  0  0  0  0  0  0  0  0  0
    9.8643    8.2579   12.6531 N   0  0  0  0  0  0  0  0  0  0  0  0
   10.4056    7.1667   12.1289 C   0  0  0  0  0  0  0  0  0  0  0  0
    9.5253    6.5409   11.3492 N   0  0  0  0  0  0  0  0  0  0  0  0
    9.6923    5.6747   10.8236 H   0  0  0  0  0  0  0  0  0  0  0  0
    1.9237    6.5990   13.1386 C   0  0  0  0  0  0  0  0  0  0  0  0
    1.1041    6.0152   12.0209 C   0  0  0  0  0  0  0  0  0  0  0  0
    0.0432    5.1709   12.6091 C   0  0  0  0  0  0  0  0  0  0  0  0
    0.0755    3.7499   12.5704 N   0  0  0  0  0  0  0  0  0  0  0  0
   -0.9342    5.7161   13.1701 O   0  0  0  0  0  0  0  0  0  0  0  0
    0.7363    3.2890   11.9098 H   0  0  0  0  0  0  0  0  0  0  0  0
   -0.5223    3.1420   13.1643 H   0  0  0  0  0  0  0  0  0  0  0  0
    3.3656    2.7508   16.7045 C   0  0  0  0  0  0  0  0  0  0  0  0
    3.1497    0.2303   16.9804 C   0  0  0  0  0  0  0  0  0  0  0  0
    3.9507    1.4678   17.1098 C   0  0  0  0  0  0  0  0  0  0  0  0
    4.3178    1.5953   18.6019 C   0  0  0  0  0  0  0  0  0  0  0  0
 58 59  1  0  0  0
 59 60  1  0  0  0
 59 57  1  0  0  0
 57  1  1  0  0  0
  1  2  1  0  0  0
  2  3  1  0  0  0
  3  4  2  0  0  0
  3  6  1  0  0  0
  6 21  1  0  0  0
 21 22  1  0  0  0
 22 23  1  0  0  0
 23 24  1  0  0  0
 23 25  2  0  0  0
  6  7  1  0  0  0
  7  8  1  0  0  0
  8  9  2  0  0  0
  8 11  1  0  0  0
 11 12  1  0  0  0
 11 15  1  0  0  0
 15 16  1  0  0  0
 16 17  1  0  0  0
 17 18  1  0  0  0
 17 19  2  0  0  0
  1 28  1  0  0  0
 28 29  2  0  0  0
 28 30  1  0  0  0
 30 32  1  0  0  0
 32 50  1  0  0  0
 50 51  1  0  0  0
 51 52  1  0  0  0
 52 53  1  0  0  0
 52 54  2  0  0  0
 32 33  1  0  0  0
 33 34  2  0  0  0
 33 35  1  0  0  0
 35 37  1  0  0  0
 37 43  1  0  0  0
 43 44  1  0  0  0
 44 45  2  0  0  0
 45 46  1  0  0  0
 46 47  2  0  0  0
 47 48  1  0  0  0
 37 38  1  0  0  0
 38 39  1  0  0  0
 38 40  2  0  0  0
 48 44  1  0  0  0
  2  5  1  0  0  0
 24 26  1  0  0  0
 24 27  1  0  0  0
  7 10  1  0  0  0
 12 13  1  0  0  0
 12 14  1  0  0  0
 18 20  1  0  0  0
 30 31  1  0  0  0
 53 55  1  0  0  0
 53 56  1  0  0  0
 35 36  1  0  0  0
 48 49  1  0  0  0
 39 41  1  0  0  0
 39 42  1  0  0  0
M  END
> <minimizedAffinity>
-8.19946

> <CNNscore>
0.2004934102

> <CNNaffinity>
6.3022856712

> <CNN_VS>
1.2635667324

> <CNNaffinity_variance>
0.4870190024

$$$$
[H]c1nc(N2C([H])([H])[C@@]3([H])N(C([H])([H])[H])C([H])([H])[C@@]2([H])C3([H])[H])c([H])c([H])c1-c1c([H])c(F)c([H])c(F)c1[H]


 22 25  0  0  0  0  0  0  0  0999 V2000
    3.0183    2.7137   14.5514 C   0  0  0  0  0  0  0  0  0  0  0  0
    3.9047    3.6700   15.2928 C   0  0  0  0  0  0  0  0  0  0  0  0
    4.2892    3.3875   16.7149 C   0  0  0  0  0  0  0  0  0  0  0  0
    3.7873    2.1487   17.3956 C   0  0  0  0  0  0  0  0  0  0  0  0
    2.9009    1.1923   16.6541 C   0  0  0  0  0  0  0  0  0  0  0  0
    2.5164    1.4748   15.2320 N   0  0  0  0  0  0  0  0  0  0  0  0
    1.3314    4.3176    8.7970 C   0  0  0  0  0  0  0  0  0  0  0  0
    1.7159    4.0350   10.2191 N   0  0  0  0  0  0  0  0  0  0  0  0
    1.6795    5.0155   11.3537 C   0  0  0  0  0  0  0  0  0  0  0  0
    2.1454    4.3088   12.5921 C   0  0  0  0  0  0  0  0  0  0  0  0
    2.4698    2.8916   12.2229 C   0  0  0  0  0  0  0  0  0  0  0  0
    2.2043    2.7224   10.7563 C   0  0  0  0  0  0  0  0  0  0  0  0
    2.6703    2.0157   11.9946 C   0  0  0  0  0  0  0  0  0  0  0  0
    2.6338    2.9963   13.1293 N   0  0  0  0  0  0  0  0  0  0  0  0
    4.1718    1.8661   18.8177 C   0  0  0  0  0  0  0  0  0  0  0  0
    3.6275    0.6549   19.5153 C   0  0  0  0  0  0  0  0  0  0  0  0
    4.0120    0.3724   20.9374 C   0  0  0  0  0  0  0  0  0  0  0  0
    3.4677   -0.8389   21.6350 F   0  0  0  0  0  0  0  0  0  0  0  0
    4.9408    1.3011   21.6619 C   0  0  0  0  0  0  0  0  0  0  0  0
    5.4851    2.5124   20.9643 C   0  0  0  0  0  0  0  0  0  0  0  0
    6.4138    3.4410   21.6887 F   0  0  0  0  0  0  0  0  0  0  0  0
    5.1006    2.7949   19.5422 C   0  0  0  0  0  0  0  0  0  0  0  0
  7  8  1  0  0  0
  8  9  1  0  0  0
  9 10  1  0  0  0
 10 11  1  0  0  0
 11 12  1  0  0  0
 12 13  1  0  0  0
 13 14  1  0  0  0
 14  1  1  0  0  0
  1  2  2  0  0  0
  2  3  1  0  0  0
  3  4  2  0  0  0
  4  5  1  0  0  0
  5  6  2  0  0  0
  4 15  1  0  0  0
 15 16  2  0  0  0
 16 17  1  0  0  0
 17 18  1  0  0  0
 17 19  2  0  0  0
 19 20  1  0  0  0
 20 21  1  0  0  0
 20 22  2  0  0  0
 12  8  1  0  0  0
  6  1  1  0  0  0
 22 15  1  0  0  0
 14 10  1  0  0  0
M  END
> <minimizedAffinity>
-7.07890

> <CNNscore>
0.6630729437

> <CNNaffinity>
5.4718523026

> <CNN_VS>
3.6282372475

> <CNNaffinity_variance>
0.1545643508

$$$$
[H]c1nc(N2C([H])([H])[C@@]3([H])N(C([H])([H])[H])C([H])([H])[C@@]2([H])C3([H])[H])c([H])c([H])c1-c1c([H])c(F)c([H])c(F)c1[H]


 22 25  0  0  0  0  0  0  0  0999 V2000
    4.4270    4.6055    9.6488 C   0  0  0  0  0  0  0  0  0  0  0  0
    4.8627    5.4600   10.8020 C   0  0  0  0  0  0  0  0  0  0  0  0
    4.4570    5.0971   12.1998 C   0  0  0  0  0  0  0  0  0  0  0  0
    3.6156    3.8796   12.4443 C   0  0  0  0  0  0  0  0  0  0  0  0
    3.1798    3.0251   11.2910 C   0  0  0  0  0  0  0  0  0  0  0  0
    3.5855    3.3880    9.8933 N   0  0  0  0  0  0  0  0  0  0  0  0
    6.4979    5.8696    3.9353 C   0  0  0  0  0  0  0  0  0  0  0  0
    6.0922    5.5067    5.3330 N   0  0  0  0  0  0  0  0  0  0  0  0
    6.8922    4.6820    6.2973 C   0  0  0  0  0  0  0  0  0  0  0  0
    6.1097    4.5704    7.5722 C   0  0  0  0  0  0  0  0  0  0  0  0
    4.8260    5.3261    7.3958 C   0  0  0  0  0  0  0  0  0  0  0  0
    4.8152    5.9047    6.0119 C   0  0  0  0  0  0  0  0  0  0  0  0
    4.0326    5.7931    7.2868 C   0  0  0  0  0  0  0  0  0  0  0  0
    4.8327    4.9684    8.2511 N   0  0  0  0  0  0  0  0  0  0  0  0
    3.2099    3.5167   13.8420 C   0  0  0  0  0  0  0  0  0  0  0  0
    2.8914    4.5953   14.8345 C   0  0  0  0  0  0  0  0  0  0  0  0
    2.4857    4.2324   16.2323 C   0  0  0  0  0  0  0  0  0  0  0  0
    2.1672    5.3111   17.2248 F   0  0  0  0  0  0  0  0  0  0  0  0
    2.3984    2.7909   16.6375 C   0  0  0  0  0  0  0  0  0  0  0  0
    2.7169    1.7121   15.6450 C   0  0  0  0  0  0  0  0  0  0  0  0
    2.6297    0.2706   16.0502 F   0  0  0  0  0  0  0  0  0  0  0  0
    3.1226    2.0751   14.2473 C   0  0  0  0  0  0  0  0  0  0  0  0
  7  8  1  0  0  0
  8  9  1  0  0  0
  9 10  1  0  0  0
 10 11  1  0  0  0
 11 12  1  0  0  0
 12 13  1  0  0  0
 13 14  1  0  0  0
 14  1  1  0  0  0
  1  2  2  0  0  0
  2  3  1  0  0  0
  3  4  2  0  0  0
  4  5  1  0  0  0
  5  6  2  0  0  0
  4 15  1  0  0  0
 15 16  2  0  0  0
 16 17  1  0  0  0
 17 18  1  0  0  0
 17 19  2  0  0  0
 19 20  1  0  0  0
 20 21  1  0  0  0
 20 22  2  0  0  0
 12  8  1  0  0  0
  6  1  1  0  0  0
 22 15  1  0  0  0
 14 10  1  0  0  0
M  END
> <minimizedAffinity>
-4.53302

> <CNNscore>
0.5267727375

> <CNNaffinity>
4.7114162445

> <CNN_VS>
2.4818456173

> <CNNaffinity_variance>
0.2516898811

$$$$
[H]c1nc(N2C([H])([H])[C@@]3([H])N(C([H])([H])[H])C([H])([H])[C@@]2([H])C3([H])[H])c([H])c([H])c1-c1c([H])c(F)c([H])c(F)c1[H]


 22 25  0  0  0  0  0  0  0  0999 V2000
    4.1270    2.3059   18.3916 C   0  0  0  0  0  0  0  0  0  0  0  0
    4.6409    3.5044   17.6504 C   0  0  0  0  0  0  0  0  0  0  0  0
    4.3340    3.6725   16.1918 C   0  0  0  0  0  0  0  0  0  0  0  0
    3.5133    2.6421   15.4744 C   0  0  0  0  0  0  0  0  0  0  0  0
    2.9994    1.4436   16.2156 C   0  0  0  0  0  0  0  0  0  0  0  0
    3.3062    1.2754   17.6742 N   0  0  0  0  0  0  0  0  0  0  0  0
    5.6614    1.9897   24.3980 C   0  0  0  0  0  0  0  0  0  0  0  0
    5.3546    2.1579   22.9394 N   0  0  0  0  0  0  0  0  0  0  0  0
    5.8766    3.2457   22.0483 C   0  0  0  0  0  0  0  0  0  0  0  0
    5.3165    3.0279   20.6739 C   0  0  0  0  0  0  0  0  0  0  0  0
    4.4483    1.8054   20.7156 C   0  0  0  0  0  0  0  0  0  0  0  0
    4.4719    1.2677   22.1157 C   0  0  0  0  0  0  0  0  0  0  0  0
    3.9117    1.0498   20.7414 C   0  0  0  0  0  0  0  0  0  0  0  0
    4.4338    2.1377   19.8503 N   0  0  0  0  0  0  0  0  0  0  0  0
    3.2065    2.8103   14.0158 C   0  0  0  0  0  0  0  0  0  0  0  0
    3.9159    3.8629   13.2166 C   0  0  0  0  0  0  0  0  0  0  0  0
    3.6091    4.0311   11.7580 C   0  0  0  0  0  0  0  0  0  0  0  0
    4.3185    5.0838   10.9588 F   0  0  0  0  0  0  0  0  0  0  0  0
    2.5929    3.1466   11.0985 C   0  0  0  0  0  0  0  0  0  0  0  0
    1.8834    2.0939   11.8977 C   0  0  0  0  0  0  0  0  0  0  0  0
    0.8672    1.2094   11.2382 F   0  0  0  0  0  0  0  0  0  0  0  0
    2.1902    1.9257   13.3563 C   0  0  0  0  0  0  0  0  0  0  0  0
  7  8  1  0  0  0
  8  9  1  0  0  0
  9 10  1  0  0  0
 10 11  1  0  0  0
 11 12  1  0  0  0
 12 13  1  0  0  0
 13 14  1  0  0  0
 14  1  1  0  0  0
  1  2  2  0  0  0
  2  3  1  0  0  0
  3  4  2  0  0  0
  4  5  1  0  0  0
  5  6  2  0  0  0
  4 15  1  0  0  0
 15 16  2  0  0  0
 16 17  1  0  0  0
 17 18  1  0  0  0
 17 19  2  0  0  0
 19 20  1  0  0  0
 20 21  1  0  0  0
 20 22  2  0  0  0
 12  8  1  0  0  0
  6  1  1  0  0  0
 22 15  1  0  0  0
 14 10  1  0  0  0
M  END
> <minimizedAffinity>
-7.42474

> <CNNscore>
0.4598959982

> <CNNaffinity>
5.8393030167

> <CNN_VS>
2.6854720116

> <CNNaffinity_variance>
0.2894265056

$$$$
[H]c1nc(N2C([H])([H])[C@@]3([H])N(C([H])([H])[H])C([H])([H])[C@@]2([H])C3([H])[H])c([H])c([H])c1-c1c([H])c(F)c([H])c(F)c1[H]


 22 25  0  0  0  0  0  0  0  0999 V2000
    3.3298    2.7521   15.9284 C   0  0  0  0  0  0  0  0  0  0  0  0
    3.7334    1.4527   16.5598 C   0  0  0  0  0  0  0  0  0  0  0  0
    4.1483    1.4159   18.0008 C   0  0  0  0  0  0  0  0  0  0  0  0
    4.1596    2.6786   18.8105 C   0  0  0  0  0  0  0  0  0  0  0  0
    3.7561    3.9781   18.1791 C   0  0  0  0  0  0  0  0  0  0  0  0
    3.3412    4.0148   16.7381 N   0  0  0  0  0  0  0  0  0  0  0  0
    1.9475    3.2175    9.8949 C   0  0  0  0  0  0  0  0  0  0  0  0
    2.3624    3.1807   11.3359 N   0  0  0  0  0  0  0  0  0  0  0  0
    3.4699    3.9807   11.9552 C   0  0  0  0  0  0  0  0  0  0  0  0
    3.5346    3.6320   13.4127 C   0  0  0  0  0  0  0  0  0  0  0  0
    2.4672    2.6164   13.6942 C   0  0  0  0  0  0  0  0  0  0  0  0
    1.7427    2.3376   12.4106 C   0  0  0  0  0  0  0  0  0  0  0  0
    1.8074    1.9888   13.8681 C   0  0  0  0  0  0  0  0  0  0  0  0
    2.9149    2.7888   14.4874 N   0  0  0  0  0  0  0  0  0  0  0  0
    4.5745    2.6418   20.2515 C   0  0  0  0  0  0  0  0  0  0  0  0
    3.8861    1.7126   21.2067 C   0  0  0  0  0  0  0  0  0  0  0  0
    4.3010    1.6758   22.6477 C   0  0  0  0  0  0  0  0  0  0  0  0
    3.6126    0.7465   23.6029 F   0  0  0  0  0  0  0  0  0  0  0  0
    5.4043    2.5684   23.1335 C   0  0  0  0  0  0  0  0  0  0  0  0
    6.0928    3.4977   22.1782 C   0  0  0  0  0  0  0  0  0  0  0  0
    7.1961    4.3903   22.6640 F   0  0  0  0  0  0  0  0  0  0  0  0
    5.6779    3.5345   20.7372 C   0  0  0  0  0  0  0  0  0  0  0  0
  7  8  1  0  0  0
  8  9  1  0  0  0
  9 10  1  0  0  0
 10 11  1  0  0  0
 11 12  1  0  0  0
 12 13  1  0  0  0
 13 14  1  0  0  0
 14  1  1  0  0  0
  1  2  2  0  0  0
  2  3  1  0  0  0
  3  4  2  0  0  0
  4  5  1  0  0  0
  5  6  2  0  0  0
  4 15  1  0  0  0
 15 16  2  0  0  0
 16 17  1  0  0  0
 17 18  1  0  0  0
 17 19  2  0  0  0
 19 20  1  0  0  0
 20 21  1  0  0  0
 20 22  2  0  0  0
 12  8  1  0  0  0
  6  1  1  0  0  0
 22 15  1  0  0  0
 14 10  1  0  0  0
M  END
> <minimizedAffinity>
-7.23674

> <CNNscore>
0.4330644310

> <CNNaffinity>
5.5478582382

> <CNN_VS>
2.4025800228

> <CNNaffinity_variance>
0.1665616184

$$$$
[H]c1nc(N2C([H])([H])[C@@]3([H])N(C([H])([H])[H])C([H])([H])[C@@]2([H])C3([H])[H])c([H])c([H])c1-c1c([H])c(F)c([H])c(F)c1[H]


 22 25  0  0  0  0  0  0  0  0999 V2000
    3.4704    3.4169   14.8634 C   0  0  0  0  0  0  0  0  0  0  0  0
    3.2214    2.0041   15.3017 C   0  0  0  0  0  0  0  0  0  0  0  0
    3.5309    1.5901   16.7098 C   0  0  0  0  0  0  0  0  0  0  0  0
    4.0893    2.5887   17.6797 C   0  0  0  0  0  0  0  0  0  0  0  0
    4.3383    4.0016   17.2414 C   0  0  0  0  0  0  0  0  0  0  0  0
    4.0289    4.4156   15.8333 N   0  0  0  0  0  0  0  0  0  0  0  0
    1.7407    5.0748    9.1372 C   0  0  0  0  0  0  0  0  0  0  0  0
    2.0501    4.6607   10.5453 N   0  0  0  0  0  0  0  0  0  0  0  0
    1.0463    4.2844   11.5944 C   0  0  0  0  0  0  0  0  0  0  0  0
    1.7934    3.9414   12.8491 C   0  0  0  0  0  0  0  0  0  0  0  0
    3.2591    4.1057   12.5753 C   0  0  0  0  0  0  0  0  0  0  0  0
    3.4177    4.5503   11.1515 C   0  0  0  0  0  0  0  0  0  0  0  0
    4.1649    4.2073   12.4061 C   0  0  0  0  0  0  0  0  0  0  0  0
    3.1610    3.8309   13.4553 N   0  0  0  0  0  0  0  0  0  0  0  0
    4.3987    2.1747   19.0878 C   0  0  0  0  0  0  0  0  0  0  0  0
    3.8294    0.9003   19.6371 C   0  0  0  0  0  0  0  0  0  0  0  0
    4.1388    0.4863   21.0452 C   0  0  0  0  0  0  0  0  0  0  0  0
    3.5693   -0.7882   21.5945 F   0  0  0  0  0  0  0  0  0  0  0  0
    5.0176    1.3466   21.9040 C   0  0  0  0  0  0  0  0  0  0  0  0
    5.5870    2.6210   21.3547 C   0  0  0  0  0  0  0  0  0  0  0  0
    6.4658    3.4813   22.2135 F   0  0  0  0  0  0  0  0  0  0  0  0
    5.2776    3.0350   19.9466 C   0  0  0  0  0  0  0  0  0  0  0  0
  7  8  1  0  0  0
  8  9  1  0  0  0
  9 10  1  0  0  0
 10 11  1  0  0  0
 11 12  1  0  0  0
 12 13  1  0  0  0
 13 14  1  0  0  0
 14  1  1  0  0  0
  1  2  2  0  0  0
  2  3  1  0  0  0
  3  4  2  0  0  0
  4  5  1  0  0  0
  5  6  2  0  0  0
  4 15  1  0  0  0
 15 16  2  0  0  0
 16 17  1  0  0  0
 17 18  1  0  0  0
 17 19  2  0  0  0
 19 20  1  0  0  0
 20 21  1  0  0  0
 20 22  2  0  0  0
 12  8  1  0  0  0
  6  1  1  0  0  0
 22 15  1  0  0  0
 14 10  1  0  0  0
M  END
> <minimizedAffinity>
-7.17759

> <CNNscore>
0.4098207951

> <CNNaffinity>
5.2537379265

> <CNN_VS>
2.1530909538

> <CNNaffinity_variance>
0.1459324658

$$$$
[H]c1nc(N2C([H])([H])[C@@]3([H])N(C([H])([H])[H])C([H])([H])[C@@]2([H])C3([H])[H])c([H])c([H])c1-c1c([H])c(F)c([H])c(F)c1[H]


 22 25  0  0  0  0  0  0  0  0999 V2000
    3.3045    3.2428   14.9175 C   0  0  0  0  0  0  0  0  0  0  0  0
    3.1593    1.8223   15.3769 C   0  0  0  0  0  0  0  0  0  0  0  0
    3.5045    1.4516   16.7887 C   0  0  0  0  0  0  0  0  0  0  0  0
    3.9950    2.5014   17.7413 C   0  0  0  0  0  0  0  0  0  0  0  0
    4.1402    3.9220   17.2819 C   0  0  0  0  0  0  0  0  0  0  0  0
    3.7950    4.2927   15.8701 N   0  0  0  0  0  0  0  0  0  0  0  0
    1.4379    4.6554    9.1685 C   0  0  0  0  0  0  0  0  0  0  0  0
    1.7832    4.2847   10.5803 N   0  0  0  0  0  0  0  0  0  0  0  0
    0.8297    3.7598   11.6125 C   0  0  0  0  0  0  0  0  0  0  0  0
    1.5998    3.5245   12.8780 C   0  0  0  0  0  0  0  0  0  0  0  0
    3.0293    3.9039   12.6280 C   0  0  0  0  0  0  0  0  0  0  0  0
    3.1426    4.3737   11.2080 C   0  0  0  0  0  0  0  0  0  0  0  0
    3.9128    4.1384   12.4735 C   0  0  0  0  0  0  0  0  0  0  0  0
    2.9592    3.6135   13.5057 N   0  0  0  0  0  0  0  0  0  0  0  0
    4.3403    2.1306   19.1531 C   0  0  0  0  0  0  0  0  0  0  0  0
    5.2406    3.0164   19.9623 C   0  0  0  0  0  0  0  0  0  0  0  0
    5.5859    2.6456   21.3742 C   0  0  0  0  0  0  0  0  0  0  0  0
    6.4863    3.5314   22.1834 F   0  0  0  0  0  0  0  0  0  0  0  0
    5.0308    1.3892   21.9768 C   0  0  0  0  0  0  0  0  0  0  0  0
    4.1304    0.5034   21.1676 C   0  0  0  0  0  0  0  0  0  0  0  0
    3.5754   -0.7530   21.7703 F   0  0  0  0  0  0  0  0  0  0  0  0
    3.7852    0.8741   19.7558 C   0  0  0  0  0  0  0  0  0  0  0  0
  7  8  1  0  0  0
  8  9  1  0  0  0
  9 10  1  0  0  0
 10 11  1  0  0  0
 11 12  1  0  0  0
 12 13  1  0  0  0
 13 14  1  0  0  0
 14  1  1  0  0  0
  1  2  2  0  0  0
  2  3  1  0  0  0
  3  4  2  0  0  0
  4  5  1  0  0  0
  5  6  2  0  0  0
  4 15  1  0  0  0
 15 16  2  0  0  0
 16 17  1  0  0  0
 17 18  1  0  0  0
 17 19  2  0  0  0
 19 20  1  0  0  0
 20 21  1  0  0  0
 20 22  2  0  0  0
 12  8  1  0  0  0
  6  1  1  0  0  0
 22 15  1  0  0  0
 14 10  1  0  0  0
M  END
> <minimizedAffinity>
-7.17180

> <CNNscore>
0.4082379937

> <CNNaffinity>
5.2978658676

> <CNN_VS>
2.1627900600

> <CNNaffinity_variance>
0.1270665973

$$$$
[H]c1nc(N2C([H])([H])[C@@]3([H])N(C([H])([H])[H])C([H])([H])[C@@]2([H])C3([H])[H])c([H])c([H])c1-c1c([H])c(F)c([H])c(F)c1[H]


 22 25  0  0  0  0  0  0  0  0999 V2000
    3.2760    3.6008   12.5040 C   0  0  0  0  0  0  0  0  0  0  0  0
    3.9601    4.3965   13.5757 C   0  0  0  0  0  0  0  0  0  0  0  0
    4.0523    3.8525   14.9705 C   0  0  0  0  0  0  0  0  0  0  0  0
    3.4603    2.5126   15.2936 C   0  0  0  0  0  0  0  0  0  0  0  0
    2.7762    1.7168   14.2218 C   0  0  0  0  0  0  0  0  0  0  0  0
    2.6841    2.2608   12.8270 N   0  0  0  0  0  0  0  0  0  0  0  0
    2.4801    6.0261    6.8458 C   0  0  0  0  0  0  0  0  0  0  0  0
    2.5722    5.4820    8.2406 N   0  0  0  0  0  0  0  0  0  0  0  0
    1.5380    5.6339    9.3164 C   0  0  0  0  0  0  0  0  0  0  0  0
    2.0413    4.9363   10.5452 C   0  0  0  0  0  0  0  0  0  0  0  0
    3.3867    4.3533   10.2289 C   0  0  0  0  0  0  0  0  0  0  0  0
    3.7148    4.6905    8.8046 C   0  0  0  0  0  0  0  0  0  0  0  0
    4.2182    3.9929   10.0334 C   0  0  0  0  0  0  0  0  0  0  0  0
    3.1839    4.1448   11.1092 N   0  0  0  0  0  0  0  0  0  0  0  0
    3.5525    1.9686   16.6884 C   0  0  0  0  0  0  0  0  0  0  0  0
    4.4851    2.5994   17.6794 C   0  0  0  0  0  0  0  0  0  0  0  0
    4.5773    2.0554   19.0742 C   0  0  0  0  0  0  0  0  0  0  0  0
    5.5099    2.6863   20.0653 F   0  0  0  0  0  0  0  0  0  0  0  0
    3.7368    0.8804   19.4780 C   0  0  0  0  0  0  0  0  0  0  0  0
    2.8041    0.2495   18.4870 C   0  0  0  0  0  0  0  0  0  0  0  0
    1.9637   -0.9254   18.8908 F   0  0  0  0  0  0  0  0  0  0  0  0
    2.7120    0.7936   17.0922 C   0  0  0  0  0  0  0  0  0  0  0  0
  7  8  1  0  0  0
  8  9  1  0  0  0
  9 10  1  0  0  0
 10 11  1  0  0  0
 11 12  1  0  0  0
 12 13  1  0  0  0
 13 14  1  0  0  0
 14  1  1  0  0  0
  1  2  2  0  0  0
  2  3  1  0  0  0
  3  4  2  0  0  0
  4  5  1  0  0  0
  5  6  2  0  0  0
  4 15  1  0  0  0
 15 16  2  0  0  0
 16 17  1  0  0  0
 17 18  1  0  0  0
 17 19  2  0  0  0
 19 20  1  0  0  0
 20 21  1  0  0  0
 20 22  2  0  0  0
 12  8  1  0  0  0
  6  1  1  0  0  0
 22 15  1  0  0  0
 14 10  1  0  0  0
M  END
> <minimizedAffinity>
-6.10090

> <CNNscore>
0.4063325822

> <CNNaffinity>
5.1036248207

> <CNN_VS>
2.0737690926

> <CNNaffinity_variance>
0.0727420375

$$$$
[H]c1nc(N2C([H])([H])[C@@]3([H])N(C([H])([H])[H])C([H])([H])[C@@]2([H])C3([H])[H])c([H])c([H])c1-c1c([H])c(F)c([H])c(F)c1[H]


 22 25  0  0  0  0  0  0  0  0999 V2000
    3.6084    2.7735   15.9081 C   0  0  0  0  0  0  0  0  0  0  0  0
    3.5991    1.4682   16.6469 C   0  0  0  0  0  0  0  0  0  0  0  0
    3.9576    1.4278   18.1029 C   0  0  0  0  0  0  0  0  0  0  0  0
    4.3253    2.6929   18.8201 C   0  0  0  0  0  0  0  0  0  0  0  0
    4.3346    3.9983   18.0813 C   0  0  0  0  0  0  0  0  0  0  0  0
    3.9761    4.0387   16.6253 N   0  0  0  0  0  0  0  0  0  0  0  0
    2.4197    3.2957    9.8381 C   0  0  0  0  0  0  0  0  0  0  0  0
    2.7782    3.2554   11.2941 N   0  0  0  0  0  0  0  0  0  0  0  0
    3.7498    4.1630   11.9883 C   0  0  0  0  0  0  0  0  0  0  0  0
    3.8001    3.7689   13.4348 C   0  0  0  0  0  0  0  0  0  0  0  0
    2.8595    2.6177   13.6345 C   0  0  0  0  0  0  0  0  0  0  0  0
    2.2279    2.3003   12.3114 C   0  0  0  0  0  0  0  0  0  0  0  0
    2.2781    1.9062   13.7579 C   0  0  0  0  0  0  0  0  0  0  0  0
    3.2499    2.8139   14.4521 N   0  0  0  0  0  0  0  0  0  0  0  0
    4.6838    2.6525   20.2760 C   0  0  0  0  0  0  0  0  0  0  0  0
    5.7548    3.5568   20.8101 C   0  0  0  0  0  0  0  0  0  0  0  0
    6.1133    3.5165   22.2661 C   0  0  0  0  0  0  0  0  0  0  0  0
    7.1843    4.4209   22.8001 F   0  0  0  0  0  0  0  0  0  0  0  0
    5.4008    2.5719   23.1880 C   0  0  0  0  0  0  0  0  0  0  0  0
    4.3298    1.6675   22.6539 C   0  0  0  0  0  0  0  0  0  0  0  0
    3.6174    0.7228   23.5759 F   0  0  0  0  0  0  0  0  0  0  0  0
    3.9713    1.7078   21.1980 C   0  0  0  0  0  0  0  0  0  0  0  0
  7  8  1  0  0  0
  8  9  1  0  0  0
  9 10  1  0  0  0
 10 11  1  0  0  0
 11 12  1  0  0  0
 12 13  1  0  0  0
 13 14  1  0  0  0
 14  1  1  0  0  0
  1  2  2  0  0  0
  2  3  1  0  0  0
  3  4  2  0  0  0
  4  5  1  0  0  0
  5  6  2  0  0  0
  4 15  1  0  0  0
 15 16  2  0  0  0
 16 17  1  0  0  0
 17 18  1  0  0  0
 17 19  2  0  0  0
 19 20  1  0  0  0
 20 21  1  0  0  0
 20 22  2  0  0  0
 12  8  1  0  0  0
  6  1  1  0  0  0
 22 15  1  0  0  0
 14 10  1  0  0  0
M  END
> <minimizedAffinity>
-7.33961

> <CNNscore>
0.3913949728

> <CNNaffinity>
5.5661973953

> <CNN_VS>
2.1785817146

> <CNNaffinity_variance>
0.1510578841

$$$$
[H]c1nc(N2C([H])([H])[C@@]3([H])N(C([H])([H])[H])C([H])([H])[C@@]2([H])C3([H])[H])c([H])c([H])c1-c1c([H])c(F)c([H])c(F)c1[H]


 22 25  0  0  0  0  0  0  0  0999 V2000
    6.0931    3.9259    9.0562 C   0  0  0  0  0  0  0  0  0  0  0  0
    6.4977    5.0351    9.9813 C   0  0  0  0  0  0  0  0  0  0  0  0
    5.6892    5.3172   11.2128 C   0  0  0  0  0  0  0  0  0  0  0  0
    4.4760    4.4901   11.5192 C   0  0  0  0  0  0  0  0  0  0  0  0
    4.0713    3.3808   10.5941 C   0  0  0  0  0  0  0  0  0  0  0  0
    4.8798    3.0987    9.3626 N   0  0  0  0  0  0  0  0  0  0  0  0
    9.1692    3.0610    3.7345 C   0  0  0  0  0  0  0  0  0  0  0  0
    8.3607    3.3431    4.9660 N   0  0  0  0  0  0  0  0  0  0  0  0
    7.2033    4.2923    5.0626 C   0  0  0  0  0  0  0  0  0  0  0  0
    6.6948    4.2614    6.4735 C   0  0  0  0  0  0  0  0  0  0  0  0
    7.5380    3.2930    7.2489 C   0  0  0  0  0  0  0  0  0  0  0  0
    8.5675    2.7255    6.3172 C   0  0  0  0  0  0  0  0  0  0  0  0
    8.0591    2.6945    7.7281 C   0  0  0  0  0  0  0  0  0  0  0  0
    6.9016    3.6438    7.8247 N   0  0  0  0  0  0  0  0  0  0  0  0
    3.6674    4.7722   12.7507 C   0  0  0  0  0  0  0  0  0  0  0  0
    3.7809    3.8718   13.9450 C   0  0  0  0  0  0  0  0  0  0  0  0
    2.9723    4.1539   15.1765 C   0  0  0  0  0  0  0  0  0  0  0  0
    3.0858    3.2534   16.3708 F   0  0  0  0  0  0  0  0  0  0  0  0
    2.0503    5.3365   15.2138 C   0  0  0  0  0  0  0  0  0  0  0  0
    1.9368    6.2370   14.0195 C   0  0  0  0  0  0  0  0  0  0  0  0
    1.0148    7.4195   14.0567 F   0  0  0  0  0  0  0  0  0  0  0  0
    2.7453    5.9549   12.7880 C   0  0  0  0  0  0  0  0  0  0  0  0
  7  8  1  0  0  0
  8  9  1  0  0  0
  9 10  1  0  0  0
 10 11  1  0  0  0
 11 12  1  0  0  0
 12 13  1  0  0  0
 13 14  1  0  0  0
 14  1  1  0  0  0
  1  2  2  0  0  0
  2  3  1  0  0  0
  3  4  2  0  0  0
  4  5  1  0  0  0
  5  6  2  0  0  0
  4 15  1  0  0  0
 15 16  2  0  0  0
 16 17  1  0  0  0
 17 18  1  0  0  0
 17 19  2  0  0  0
 19 20  1  0  0  0
 20 21  1  0  0  0
 20 22  2  0  0  0
 12  8  1  0  0  0
  6  1  1  0  0  0
 22 15  1  0  0  0
 14 10  1  0  0  0
M  END
> <minimizedAffinity>
-4.21768

> <CNNscore>
0.3688008487

> <CNNaffinity>
4.3343997002

> <CNN_VS>
1.5985302925

> <CNNaffinity_variance>
0.2926360965

$$$$
[H]c1c(N([H])C(=O)[C@@]2([H])N(C(=O)c3c([H])c([H])c(F)c([H])c3[H])C([H])([H])c3c([H])c([H])c([H])c([H])c3C2([H])[H])noc1C(C([H])([H])[H])(C([H])([H])[H])C([H])([H])[H]


 32 35  0  0  0  0  0  0  0  0999 V2000
    4.8464    6.7611    8.8542 C   0  0  0  0  0  0  0  0  0  0  0  0
    5.4063    6.9381   10.2416 C   0  0  0  0  0  0  0  0  0  0  0  0
    4.3834    7.3546   11.2271 C   0  0  0  0  0  0  0  0  0  0  0  0
    4.7259    7.3691   12.5832 C   0  0  0  0  0  0  0  0  0  0  0  0
    3.8468    7.7441   13.5702 C   0  0  0  0  0  0  0  0  0  0  0  0
    2.5788    8.1173   13.1837 C   0  0  0  0  0  0  0  0  0  0  0  0
    2.2142    8.1125   11.8585 C   0  0  0  0  0  0  0  0  0  0  0  0
    3.1204    7.7284   10.8719 C   0  0  0  0  0  0  0  0  0  0  0  0
    2.6717    7.7201    9.4749 C   0  0  0  0  0  0  0  0  0  0  0  0
    3.8127    7.7109    8.5371 N   0  0  0  0  0  0  0  0  0  0  0  0
    3.7206    8.6136    7.4596 C   0  0  0  0  0  0  0  0  0  0  0  0
    2.6748    9.4137    7.4694 O   0  0  0  0  0  0  0  0  0  0  0  0
    4.5739    8.8373    6.3305 C   0  0  0  0  0  0  0  0  0  0  0  0
    4.5001    8.2788    5.0855 C   0  0  0  0  0  0  0  0  0  0  0  0
    5.4718    8.4575    4.0847 C   0  0  0  0  0  0  0  0  0  0  0  0
    6.5772    9.2320    4.3249 C   0  0  0  0  0  0  0  0  0  0  0  0
    7.5289    9.4120    3.3611 F   0  0  0  0  0  0  0  0  0  0  0  0
    6.6804    9.8109    5.5619 C   0  0  0  0  0  0  0  0  0  0  0  0
    5.7327    9.6349    6.5345 C   0  0  0  0  0  0  0  0  0  0  0  0
    4.2337    4.4689    9.7078 N   0  0  0  0  0  0  0  0  0  0  0  0
    4.2787    5.4209    8.6784 C   0  0  0  0  0  0  0  0  0  0  0  0
    3.8007    5.1069    7.5363 O   0  0  0  0  0  0  0  0  0  0  0  0
    4.5835    4.6253   10.6697 H   0  0  0  0  0  0  0  0  0  0  0  0
    3.4951    0.9686    9.0239 C   0  0  0  0  0  0  0  0  0  0  0  0
    4.4079    1.9919    9.2609 C   0  0  0  0  0  0  0  0  0  0  0  0
    3.6841    3.1613    9.4509 C   0  0  0  0  0  0  0  0  0  0  0  0
    2.3929    2.8065    9.3218 N   0  0  0  0  0  0  0  0  0  0  0  0
    2.3201    1.5198    9.0736 O   0  0  0  0  0  0  0  0  0  0  0  0
    4.7307   -0.4981    7.5473 C   0  0  0  0  0  0  0  0  0  0  0  0
    3.8978   -0.4497    8.7779 C   0  0  0  0  0  0  0  0  0  0  0  0
    2.6471   -1.2921    8.6026 C   0  0  0  0  0  0  0  0  0  0  0  0
    4.6356   -0.9660   10.0034 C   0  0  0  0  0  0  0  0  0  0  0  0
 29 30  1  0  0  0
 30 31  1  0  0  0
 30 32  1  0  0  0
 30 24  1  0  0  0
 24 25  2  0  0  0
 25 26  1  0  0  0
 26 20  1  0  0  0
 20 21  1  0  0  0
 21 22  2  0  0  0
 21  1  1  0  0  0
  1  2  1  0  0  0
  2  3  1  0  0  0
  3  4  2  0  0  0
  4  5  1  0  0  0
  5  6  2  0  0  0
  6  7  1  0  0  0
  7  8  2  0  0  0
  8  9  1  0  0  0
  9 10  1  0  0  0
 10 11  1  0  0  0
 11 12  2  0  0  0
 11 13  1  0  0  0
 13 14  2  0  0  0
 14 15  1  0  0  0
 15 16  2  0  0  0
 16 17  1  0  0  0
 16 18  1  0  0  0
 18 19  2  0  0  0
 26 27  2  0  0  0
 27 28  1  0  0  0
 28 24  1  0  0  0
 10  1  1  0  0  0
 19 13  1  0  0  0
  8  3  1  0  0  0
 20 23  1  0  0  0
M  END
> <minimizedAffinity>
-6.00612

> <CNNscore>
0.3908175230

> <CNNaffinity>
5.4394793510

> <CNN_VS>
2.1258437634

> <CNNaffinity_variance>
0.7101188302

$$$$
[H]c1c(N([H])C(=O)[C@@]2([H])N(C(=O)c3c([H])c([H])c(F)c([H])c3[H])C([H])([H])c3c([H])c([H])c([H])c([H])c3C2([H])[H])noc1C(C([H])([H])[H])(C([H])([H])[H])C([H])([H])[H]


 32 35  0  0  0  0  0  0  0  0999 V2000
    2.8203    3.8817   12.0726 C   0  0  0  0  0  0  0  0  0  0  0  0
    2.4023    5.2963   11.7665 C   0  0  0  0  0  0  0  0  0  0  0  0
    0.9532    5.5247   11.9648 C   0  0  0  0  0  0  0  0  0  0  0  0
    0.4664    6.8345   11.9014 C   0  0  0  0  0  0  0  0  0  0  0  0
   -0.8616    7.1451   12.0683 C   0  0  0  0  0  0  0  0  0  0  0  0
   -1.7322    6.1054   12.3079 C   0  0  0  0  0  0  0  0  0  0  0  0
   -1.2820    4.8084   12.3757 C   0  0  0  0  0  0  0  0  0  0  0  0
    0.0692    4.5137   12.2041 C   0  0  0  0  0  0  0  0  0  0  0  0
    0.4987    3.1146   12.3088 C   0  0  0  0  0  0  0  0  0  0  0  0
    1.8288    2.9069   11.7012 N   0  0  0  0  0  0  0  0  0  0  0  0
    1.9449    1.7798   10.8642 C   0  0  0  0  0  0  0  0  0  0  0  0
    0.8349    1.1026   10.6566 O   0  0  0  0  0  0  0  0  0  0  0  0
    3.0682    1.2205   10.1724 C   0  0  0  0  0  0  0  0  0  0  0  0
    3.5094   -0.0728   10.1740 C   0  0  0  0  0  0  0  0  0  0  0  0
    4.7081   -0.4954    9.5722 C   0  0  0  0  0  0  0  0  0  0  0  0
    5.5159    0.4082    8.9314 C   0  0  0  0  0  0  0  0  0  0  0  0
    6.6837    0.0100    8.3441 F   0  0  0  0  0  0  0  0  0  0  0  0
    5.1010    1.7132    8.9070 C   0  0  0  0  0  0  0  0  0  0  0  0
    3.9332    2.1217    9.4940 C   0  0  0  0  0  0  0  0  0  0  0  0
    3.2935    2.4506   14.0941 N   0  0  0  0  0  0  0  0  0  0  0  0
    3.0925    3.7067   13.5025 C   0  0  0  0  0  0  0  0  0  0  0  0
    3.1521    4.7458   14.2429 O   0  0  0  0  0  0  0  0  0  0  0  0
    3.2761    1.5501   13.5834 H   0  0  0  0  0  0  0  0  0  0  0  0
    4.1647    2.8307   17.6101 C   0  0  0  0  0  0  0  0  0  0  0  0
    4.1066    3.3330   16.3135 C   0  0  0  0  0  0  0  0  0  0  0  0
    3.5295    2.3565   15.5130 C   0  0  0  0  0  0  0  0  0  0  0  0
    3.2699    1.3262   16.3383 N   0  0  0  0  0  0  0  0  0  0  0  0
    3.6531    1.6382   17.5542 O   0  0  0  0  0  0  0  0  0  0  0  0
    5.1357    2.6378   19.8187 C   0  0  0  0  0  0  0  0  0  0  0  0
    4.7216    3.6004   18.7640 C   0  0  0  0  0  0  0  0  0  0  0  0
    3.6494    4.5356   19.2940 C   0  0  0  0  0  0  0  0  0  0  0  0
    5.8770    4.4553   18.2671 C   0  0  0  0  0  0  0  0  0  0  0  0
 29 30  1  0  0  0
 30 31  1  0  0  0
 30 32  1  0  0  0
 30 24  1  0  0  0
 24 25  2  0  0  0
 25 26  1  0  0  0
 26 20  1  0  0  0
 20 21  1  0  0  0
 21 22  2  0  0  0
 21  1  1  0  0  0
  1  2  1  0  0  0
  2  3  1  0  0  0
  3  4  2  0  0  0
  4  5  1  0  0  0
  5  6  2  0  0  0
  6  7  1  0  0  0
  7  8  2  0  0  0
  8  9  1  0  0  0
  9 10  1  0  0  0
 10 11  1  0  0  0
 11 12  2  0  0  0
 11 13  1  0  0  0
 13 14  2  0  0  0
 14 15  1  0  0  0
 15 16  2  0  0  0
 16 17  1  0  0  0
 16 18  1  0  0  0
 18 19  2  0  0  0
 26 27  2  0  0  0
 27 28  1  0  0  0
 28 24  1  0  0  0
 10  1  1  0  0  0
 19 13  1  0  0  0
  8  3  1  0  0  0
 20 23  1  0  0  0
M  END
> <minimizedAffinity>
-7.14633

> <CNNscore>
0.3791078627

> <CNNaffinity>
6.1786985397

> <CNN_VS>
2.3423931599

> <CNNaffinity_variance>
0.6424559355

$$$$
[H]c1c(N([H])C(=O)[C@@]2([H])N(C(=O)c3c([H])c([H])c(F)c([H])c3[H])C([H])([H])c3c([H])c([H])c([H])c([H])c3C2([H])[H])noc1C(C([H])([H])[H])(C([H])([H])[H])C([H])([H])[H]


 32 35  0  0  0  0  0  0  0  0999 V2000
    3.2858    2.9643   13.1206 C   0  0  0  0  0  0  0  0  0  0  0  0
    4.0755    4.2470   13.1425 C   0  0  0  0  0  0  0  0  0  0  0  0
    3.2395    5.4336   13.4333 C   0  0  0  0  0  0  0  0  0  0  0  0
    3.8731    6.6577   13.6716 C   0  0  0  0  0  0  0  0  0  0  0  0
    3.1826    7.8136   13.9455 C   0  0  0  0  0  0  0  0  0  0  0  0
    1.8080    7.7391   13.9825 C   0  0  0  0  0  0  0  0  0  0  0  0
    1.1585    6.5498   13.7525 C   0  0  0  0  0  0  0  0  0  0  0  0
    1.8768    5.3879   13.4766 C   0  0  0  0  0  0  0  0  0  0  0  0
    1.1340    4.1410   13.2611 C   0  0  0  0  0  0  0  0  0  0  0  0
    1.9619    3.1254   12.5795 N   0  0  0  0  0  0  0  0  0  0  0  0
    1.3370    2.4473   11.5146 C   0  0  0  0  0  0  0  0  0  0  0  0
    0.1270    2.8621   11.2018 O   0  0  0  0  0  0  0  0  0  0  0  0
    1.7818    1.3699   10.6813 C   0  0  0  0  0  0  0  0  0  0  0  0
    3.0418    1.1207   10.2146 C   0  0  0  0  0  0  0  0  0  0  0  0
    3.3507    0.1118    9.2850 C   0  0  0  0  0  0  0  0  0  0  0  0
    2.3616   -0.6979    8.7894 C   0  0  0  0  0  0  0  0  0  0  0  0
    2.6489   -1.6807    7.8846 F   0  0  0  0  0  0  0  0  0  0  0  0
    1.0870   -0.4783    9.2400 C   0  0  0  0  0  0  0  0  0  0  0  0
    0.7892    0.5051   10.1452 C   0  0  0  0  0  0  0  0  0  0  0  0
    4.0374    2.6895   15.5118 N   0  0  0  0  0  0  0  0  0  0  0  0
    3.1430    2.4063   14.4687 C   0  0  0  0  0  0  0  0  0  0  0  0
    2.1575    1.6288   14.7050 O   0  0  0  0  0  0  0  0  0  0  0  0
    4.8599    3.3128   15.4287 H   0  0  0  0  0  0  0  0  0  0  0  0
    3.9639    1.6468   19.0008 C   0  0  0  0  0  0  0  0  0  0  0  0
    4.3752    2.5299   18.0070 C   0  0  0  0  0  0  0  0  0  0  0  0
    3.8464    2.0808   16.8045 C   0  0  0  0  0  0  0  0  0  0  0  0
    3.1545    0.9688   17.1121 N   0  0  0  0  0  0  0  0  0  0  0  0
    3.2446    0.7459   18.4024 O   0  0  0  0  0  0  0  0  0  0  0  0
    4.3299    3.2517   20.7751 C   0  0  0  0  0  0  0  0  0  0  0  0
    4.3318    1.8030   20.4410 C   0  0  0  0  0  0  0  0  0  0  0  0
    5.7125    1.2118   20.6623 C   0  0  0  0  0  0  0  0  0  0  0  0
    3.3472    1.0077   21.2842 C   0  0  0  0  0  0  0  0  0  0  0  0
 29 30  1  0  0  0
 30 31  1  0  0  0
 30 32  1  0  0  0
 30 24  1  0  0  0
 24 25  2  0  0  0
 25 26  1  0  0  0
 26 20  1  0  0  0
 20 21  1  0  0  0
 21 22  2  0  0  0
 21  1  1  0  0  0
  1  2  1  0  0  0
  2  3  1  0  0  0
  3  4  2  0  0  0
  4  5  1  0  0  0
  5  6  2  0  0  0
  6  7  1  0  0  0
  7  8  2  0  0  0
  8  9  1  0  0  0
  9 10  1  0  0  0
 10 11  1  0  0  0
 11 12  2  0  0  0
 11 13  1  0  0  0
 13 14  2  0  0  0
 14 15  1  0  0  0
 15 16  2  0  0  0
 16 17  1  0  0  0
 16 18  1  0  0  0
 18 19  2  0  0  0
 26 27  2  0  0  0
 27 28  1  0  0  0
 28 24  1  0  0  0
 10  1  1  0  0  0
 19 13  1  0  0  0
  8  3  1  0  0  0
 20 23  1  0  0  0
M  END
> <minimizedAffinity>
-7.80481

> <CNNscore>
0.3649891019

> <CNNaffinity>
6.3345818520

> <CNN_VS>
2.3120534420

> <CNNaffinity_variance>
0.5851998329

$$$$
[H]c1c(N([H])C(=O)[C@@]2([H])N(C(=O)c3c([H])c([H])c(F)c([H])c3[H])C([H])([H])c3c([H])c([H])c([H])c([H])c3C2([H])[H])noc1C(C([H])([H])[H])(C([H])([H])[H])C([H])([H])[H]


 32 35  0  0  0  0  0  0  0  0999 V2000
    1.0241    3.5991   11.7921 C   0  0  0  0  0  0  0  0  0  0  0  0
   -0.4143    3.8699   11.4354 C   0  0  0  0  0  0  0  0  0  0  0  0
   -0.5643    4.9205   10.4035 C   0  0  0  0  0  0  0  0  0  0  0  0
   -1.8283    5.1351    9.8442 C   0  0  0  0  0  0  0  0  0  0  0  0
   -2.0667    6.0888    8.8843 C   0  0  0  0  0  0  0  0  0  0  0  0
   -0.9994    6.8541    8.4700 C   0  0  0  0  0  0  0  0  0  0  0  0
    0.2539    6.6653    9.0019 C   0  0  0  0  0  0  0  0  0  0  0  0
    0.4756    5.6923    9.9746 C   0  0  0  0  0  0  0  0  0  0  0  0
    1.8376    5.5180   10.4919 C   0  0  0  0  0  0  0  0  0  0  0  0
    1.8431    4.7825   11.7726 N   0  0  0  0  0  0  0  0  0  0  0  0
    2.6593    5.3280   12.7829 C   0  0  0  0  0  0  0  0  0  0  0  0
    3.2457    6.4705   12.4920 O   0  0  0  0  0  0  0  0  0  0  0  0
    2.9748    4.8680   14.1027 C   0  0  0  0  0  0  0  0  0  0  0  0
    3.7802    3.8270   14.4701 C   0  0  0  0  0  0  0  0  0  0  0  0
    3.9155    3.3659   15.7917 C   0  0  0  0  0  0  0  0  0  0  0  0
    3.2186    3.9667   16.8081 C   0  0  0  0  0  0  0  0  0  0  0  0
    3.3405    3.5269   18.0961 F   0  0  0  0  0  0  0  0  0  0  0  0
    2.4050    5.0169   16.4753 C   0  0  0  0  0  0  0  0  0  0  0  0
    2.2752    5.4635   15.1873 C   0  0  0  0  0  0  0  0  0  0  0  0
    3.0041    2.3682   10.8314 N   0  0  0  0  0  0  0  0  0  0  0  0
    1.6271    2.6339   10.8679 C   0  0  0  0  0  0  0  0  0  0  0  0
    0.8631    2.0041   10.0610 O   0  0  0  0  0  0  0  0  0  0  0  0
    3.7061    2.8152   11.4474 H   0  0  0  0  0  0  0  0  0  0  0  0
    4.3961    0.5279    8.0135 C   0  0  0  0  0  0  0  0  0  0  0  0
    4.0105    1.7250    8.6090 C   0  0  0  0  0  0  0  0  0  0  0  0
    3.5266    1.4246    9.8751 C   0  0  0  0  0  0  0  0  0  0  0  0
    3.6347    0.0887    9.9906 N   0  0  0  0  0  0  0  0  0  0  0  0
    4.1463   -0.4015    8.8858 O   0  0  0  0  0  0  0  0  0  0  0  0
    3.9333    0.8501    5.6597 C   0  0  0  0  0  0  0  0  0  0  0  0
    4.9764    0.4449    6.6385 C   0  0  0  0  0  0  0  0  0  0  0  0
    5.4190   -0.9838    6.3776 C   0  0  0  0  0  0  0  0  0  0  0  0
    6.2111    1.3305    6.5768 C   0  0  0  0  0  0  0  0  0  0  0  0
 29 30  1  0  0  0
 30 31  1  0  0  0
 30 32  1  0  0  0
 30 24  1  0  0  0
 24 25  2  0  0  0
 25 26  1  0  0  0
 26 20  1  0  0  0
 20 21  1  0  0  0
 21 22  2  0  0  0
 21  1  1  0  0  0
  1  2  1  0  0  0
  2  3  1  0  0  0
  3  4  2  0  0  0
  4  5  1  0  0  0
  5  6  2  0  0  0
  6  7  1  0  0  0
  7  8  2  0  0  0
  8  9  1  0  0  0
  9 10  1  0  0  0
 10 11  1  0  0  0
 11 12  2  0  0  0
 11 13  1  0  0  0
 13 14  2  0  0  0
 14 15  1  0  0  0
 15 16  2  0  0  0
 16 17  1  0  0  0
 16 18  1  0  0  0
 18 19  2  0  0  0
 26 27  2  0  0  0
 27 28  1  0  0  0
 28 24  1  0  0  0
 10  1  1  0  0  0
 19 13  1  0  0  0
  8  3  1  0  0  0
 20 23  1  0  0  0
M  END
> <minimizedAffinity>
-5.36538

> <CNNscore>
0.2941877842

> <CNNaffinity>
5.4678902626

> <CNN_VS>
1.6085865498

> <CNNaffinity_variance>
0.5892747641

$$$$
[H]c1c(N([H])C(=O)[C@@]2([H])N(C(=O)c3c([H])c([H])c(F)c([H])c3[H])C([H])([H])c3c([H])c([H])c([H])c([H])c3C2([H])[H])noc1C(C([H])([H])[H])(C([H])([H])[H])C([H])([H])[H]


 32 35  0  0  0  0  0  0  0  0999 V2000
    4.0205    5.7013   20.5020 C   0  0  0  0  0  0  0  0  0  0  0  0
    3.9914    6.9017   21.4117 C   0  0  0  0  0  0  0  0  0  0  0  0
    5.2918    7.6059   21.4785 C   0  0  0  0  0  0  0  0  0  0  0  0
    5.3525    8.8409   22.1325 C   0  0  0  0  0  0  0  0  0  0  0  0
    6.5134    9.5664   22.2492 C   0  0  0  0  0  0  0  0  0  0  0  0
    7.6539    9.0349   21.6896 C   0  0  0  0  0  0  0  0  0  0  0  0
    7.6241    7.8235   21.0409 C   0  0  0  0  0  0  0  0  0  0  0  0
    6.4363    7.1027   20.9326 C   0  0  0  0  0  0  0  0  0  0  0  0
    6.4563    5.8259   20.2100 C   0  0  0  0  0  0  0  0  0  0  0  0
    5.2763    4.9989   20.5339 N   0  0  0  0  0  0  0  0  0  0  0  0
    5.5415    3.6427   20.8076 C   0  0  0  0  0  0  0  0  0  0  0  0
    6.8126    3.2996   20.8279 O   0  0  0  0  0  0  0  0  0  0  0  0
    4.6693    2.5396   21.0823 C   0  0  0  0  0  0  0  0  0  0  0  0
    4.2138    2.0971   22.2923 C   0  0  0  0  0  0  0  0  0  0  0  0
    3.4712    0.9160   22.4688 C   0  0  0  0  0  0  0  0  0  0  0  0
    3.1587    0.1284   21.3910 C   0  0  0  0  0  0  0  0  0  0  0  0
    2.4389   -1.0221   21.5498 F   0  0  0  0  0  0  0  0  0  0  0  0
    3.5961    0.5453   20.1619 C   0  0  0  0  0  0  0  0  0  0  0  0
    4.3193    1.6958   19.9932 C   0  0  0  0  0  0  0  0  0  0  0  0
    3.7244    5.1577   18.0576 N   0  0  0  0  0  0  0  0  0  0  0  0
    3.7683    6.0847   19.1097 C   0  0  0  0  0  0  0  0  0  0  0  0
    3.5769    7.3191   18.8429 O   0  0  0  0  0  0  0  0  0  0  0  0
    3.8559    4.1366   18.1673 H   0  0  0  0  0  0  0  0  0  0  0  0
    2.5638    5.9753   14.7035 C   0  0  0  0  0  0  0  0  0  0  0  0
    2.3641    5.3773   15.9441 C   0  0  0  0  0  0  0  0  0  0  0  0
    3.4980    5.6144   16.7093 C   0  0  0  0  0  0  0  0  0  0  0  0
    4.3195    6.3278   15.9180 N   0  0  0  0  0  0  0  0  0  0  0  0
    3.7417    6.5202   14.7554 O   0  0  0  0  0  0  0  0  0  0  0  0
    1.4101    4.5356   13.1369 C   0  0  0  0  0  0  0  0  0  0  0  0
    1.5527    5.9401   13.6033 C   0  0  0  0  0  0  0  0  0  0  0  0
    2.0309    6.8275   12.4681 C   0  0  0  0  0  0  0  0  0  0  0  0
    0.2461    6.5183   14.1239 C   0  0  0  0  0  0  0  0  0  0  0  0
 29 30  1  0  0  0
 30 31  1  0  0  0
 30 32  1  0  0  0
 30 24  1  0  0  0
 24 25  2  0  0  0
 25 26  1  0  0  0
 26 20  1  0  0  0
 20 21  1  0  0  0
 21 22  2  0  0  0
 21  1  1  0  0  0
  1  2  1  0  0  0
  2  3  1  0  0  0
  3  4  2  0  0  0
  4  5  1  0  0  0
  5  6  2  0  0  0
  6  7  1  0  0  0
  7  8  2  0  0  0
  8  9  1  0  0  0
  9 10  1  0  0  0
 10 11  1  0  0  0
 11 12  2  0  0  0
 11 13  1  0  0  0
 13 14  2  0  0  0
 14 15  1  0  0  0
 15 16  2  0  0  0
 16 17  1  0  0  0
 16 18  1  0  0  0
 18 19  2  0  0  0
 26 27  2  0  0  0
 27 28  1  0  0  0
 28 24  1  0  0  0
 10  1  1  0  0  0
 19 13  1  0  0  0
  8  3  1  0  0  0
 20 23  1  0  0  0
M  END
> <minimizedAffinity>
-7.09357

> <CNNscore>
0.2803696990

> <CNNaffinity>
6.0809068680

> <CNN_VS>
1.7049020529

> <CNNaffinity_variance>
0.3449331224

$$$$
[H]c1c(N([H])C(=O)[C@@]2([H])N(C(=O)c3c([H])c([H])c(F)c([H])c3[H])C([H])([H])c3c([H])c([H])c([H])c([H])c3C2([H])[H])noc1C(C([H])([H])[H])(C([H])([H])[H])C([H])([H])[H]


 32 35  0  0  0  0  0  0  0  0999 V2000
    3.9206    2.2073    9.7205 C   0  0  0  0  0  0  0  0  0  0  0  0
    4.0948    0.8979    8.9963 C   0  0  0  0  0  0  0  0  0  0  0  0
    2.9963    0.6146    8.0453 C   0  0  0  0  0  0  0  0  0  0  0  0
    3.1289   -0.4698    7.1718 C   0  0  0  0  0  0  0  0  0  0  0  0
    2.1622   -0.8133    6.2578 C   0  0  0  0  0  0  0  0  0  0  0  0
    1.0225   -0.0416    6.2178 C   0  0  0  0  0  0  0  0  0  0  0  0
    0.8649    1.0301    7.0639 C   0  0  0  0  0  0  0  0  0  0  0  0
    1.8572    1.3629    7.9841 C   0  0  0  0  0  0  0  0  0  0  0  0
    1.6471    2.5302    8.8478 C   0  0  0  0  0  0  0  0  0  0  0  0
    2.5454    2.5084   10.0200 N   0  0  0  0  0  0  0  0  0  0  0  0
    1.9379    2.8027   11.2564 C   0  0  0  0  0  0  0  0  0  0  0  0
    0.6326    2.9735   11.2279 O   0  0  0  0  0  0  0  0  0  0  0  0
    2.4832    2.9479   12.5735 C   0  0  0  0  0  0  0  0  0  0  0  0
    3.3224    3.9185   13.0437 C   0  0  0  0  0  0  0  0  0  0  0  0
    3.9155    3.8951   14.3186 C   0  0  0  0  0  0  0  0  0  0  0  0
    3.6650    2.8571   15.1785 C   0  0  0  0  0  0  0  0  0  0  0  0
    4.2364    2.8224   16.4193 F   0  0  0  0  0  0  0  0  0  0  0  0
    2.8239    1.8690   14.7404 C   0  0  0  0  0  0  0  0  0  0  0  0
    2.2481    1.8944   13.4983 C   0  0  0  0  0  0  0  0  0  0  0  0
    4.4237    4.6542    9.3771 N   0  0  0  0  0  0  0  0  0  0  0  0
    4.4518    3.3238    8.9328 C   0  0  0  0  0  0  0  0  0  0  0  0
    4.9664    3.0733    7.7909 O   0  0  0  0  0  0  0  0  0  0  0  0
    4.0396    4.9624   10.2879 H   0  0  0  0  0  0  0  0  0  0  0  0
    5.0771    7.4534    7.1404 C   0  0  0  0  0  0  0  0  0  0  0  0
    4.1900    6.6442    7.8439 C   0  0  0  0  0  0  0  0  0  0  0  0
    4.9413    5.7024    8.5337 C   0  0  0  0  0  0  0  0  0  0  0  0
    6.2226    5.9725    8.2250 N   0  0  0  0  0  0  0  0  0  0  0  0
    6.2642    7.0007    7.4104 O   0  0  0  0  0  0  0  0  0  0  0  0
    3.1717    8.7663    6.4304 C   0  0  0  0  0  0  0  0  0  0  0  0
    4.6406    8.5939    6.2785 C   0  0  0  0  0  0  0  0  0  0  0  0
    4.9890    8.2798    4.8346 C   0  0  0  0  0  0  0  0  0  0  0  0
    5.4195    9.8359    6.6829 C   0  0  0  0  0  0  0  0  0  0  0  0
 29 30  1  0  0  0
 30 31  1  0  0  0
 30 32  1  0  0  0
 30 24  1  0  0  0
 24 25  2  0  0  0
 25 26  1  0  0  0
 26 20  1  0  0  0
 20 21  1  0  0  0
 21 22  2  0  0  0
 21  1  1  0  0  0
  1  2  1  0  0  0
  2  3  1  0  0  0
  3  4  2  0  0  0
  4  5  1  0  0  0
  5  6  2  0  0  0
  6  7  1  0  0  0
  7  8  2  0  0  0
  8  9  1  0  0  0
  9 10  1  0  0  0
 10 11  1  0  0  0
 11 12  2  0  0  0
 11 13  1  0  0  0
 13 14  2  0  0  0
 14 15  1  0  0  0
 15 16  2  0  0  0
 16 17  1  0  0  0
 16 18  1  0  0  0
 18 19  2  0  0  0
 26 27  2  0  0  0
 27 28  1  0  0  0
 28 24  1  0  0  0
 10  1  1  0  0  0
 19 13  1  0  0  0
  8  3  1  0  0  0
 20 23  1  0  0  0
M  END
> <minimizedAffinity>
-5.54633

> <CNNscore>
0.2750419676

> <CNNaffinity>
5.3997240067

> <CNN_VS>
1.4851506948

> <CNNaffinity_variance>
0.3751065433

$$$$
[H]c1c(N([H])C(=O)[C@@]2([H])N(C(=O)c3c([H])c([H])c(F)c([H])c3[H])C([H])([H])c3c([H])c([H])c([H])c([H])c3C2([H])[H])noc1C(C([H])([H])[H])(C([H])([H])[H])C([H])([H])[H]


 32 35  0  0  0  0  0  0  0  0999 V2000
    3.2700    3.0625   11.2729 C   0  0  0  0  0  0  0  0  0  0  0  0
    4.0722    4.1662   10.6344 C   0  0  0  0  0  0  0  0  0  0  0  0
    3.3464    5.4556   10.5916 C   0  0  0  0  0  0  0  0  0  0  0  0
    4.0427    6.6042   10.2011 C   0  0  0  0  0  0  0  0  0  0  0  0
    3.4544    7.8436   10.1269 C   0  0  0  0  0  0  0  0  0  0  0  0
    2.1205    7.9346   10.4568 C   0  0  0  0  0  0  0  0  0  0  0  0
    1.4111    6.8229   10.8442 C   0  0  0  0  0  0  0  0  0  0  0  0
    2.0260    5.5742   10.9136 C   0  0  0  0  0  0  0  0  0  0  0  0
    1.2277    4.4250   11.3549 C   0  0  0  0  0  0  0  0  0  0  0  0
    1.8632    3.1453   10.9807 N   0  0  0  0  0  0  0  0  0  0  0  0
    1.0046    2.1841   10.4121 C   0  0  0  0  0  0  0  0  0  0  0  0
   -0.2355    2.5747   10.2032 O   0  0  0  0  0  0  0  0  0  0  0  0
    1.2319    0.8305   10.0006 C   0  0  0  0  0  0  0  0  0  0  0  0
    2.3709    0.2786    9.4855 C   0  0  0  0  0  0  0  0  0  0  0  0
    2.4509   -1.0311    8.9797 C   0  0  0  0  0  0  0  0  0  0  0  0
    1.3458   -1.8425    8.9842 C   0  0  0  0  0  0  0  0  0  0  0  0
    1.4106   -3.1165    8.4943 F   0  0  0  0  0  0  0  0  0  0  0  0
    0.1879   -1.3221    9.4981 C   0  0  0  0  0  0  0  0  0  0  0  0
    0.1130   -0.0462    9.9897 C   0  0  0  0  0  0  0  0  0  0  0  0
    2.8648    2.0906   13.5641 N   0  0  0  0  0  0  0  0  0  0  0  0
    3.4160    3.0761   12.7315 C   0  0  0  0  0  0  0  0  0  0  0  0
    4.0778    4.0275   13.2686 O   0  0  0  0  0  0  0  0  0  0  0  0
    2.3216    1.2748   13.2303 H   0  0  0  0  0  0  0  0  0  0  0  0
    3.6901    2.8530   17.0286 C   0  0  0  0  0  0  0  0  0  0  0  0
    3.7913    3.1292   15.6684 C   0  0  0  0  0  0  0  0  0  0  0  0
    3.0279    2.1867   14.9931 C   0  0  0  0  0  0  0  0  0  0  0  0
    2.5096    1.3956   15.9498 N   0  0  0  0  0  0  0  0  0  0  0  0
    2.9167    1.8141   17.1253 O   0  0  0  0  0  0  0  0  0  0  0  0
    3.4786    4.7801   18.4777 C   0  0  0  0  0  0  0  0  0  0  0  0
    4.3747    3.6613   18.0832 C   0  0  0  0  0  0  0  0  0  0  0  0
    5.6772    4.2012   17.5202 C   0  0  0  0  0  0  0  0  0  0  0  0
    4.7179    2.7485   19.2502 C   0  0  0  0  0  0  0  0  0  0  0  0
 29 30  1  0  0  0
 30 31  1  0  0  0
 30 32  1  0  0  0
 30 24  1  0  0  0
 24 25  2  0  0  0
 25 26  1  0  0  0
 26 20  1  0  0  0
 20 21  1  0  0  0
 21 22  2  0  0  0
 21  1  1  0  0  0
  1  2  1  0  0  0
  2  3  1  0  0  0
  3  4  2  0  0  0
  4  5  1  0  0  0
  5  6  2  0  0  0
  6  7  1  0  0  0
  7  8  2  0  0  0
  8  9  1  0  0  0
  9 10  1  0  0  0
 10 11  1  0  0  0
 11 12  2  0  0  0
 11 13  1  0  0  0
 13 14  2  0  0  0
 14 15  1  0  0  0
 15 16  2  0  0  0
 16 17  1  0  0  0
 16 18  1  0  0  0
 18 19  2  0  0  0
 26 27  2  0  0  0
 27 28  1  0  0  0
 28 24  1  0  0  0
 10  1  1  0  0  0
 19 13  1  0  0  0
  8  3  1  0  0  0
 20 23  1  0  0  0
M  END
> <minimizedAffinity>
-6.70077

> <CNNscore>
0.2738780975

> <CNNaffinity>
5.9365248680

> <CNN_VS>
1.6258841753

> <CNNaffinity_variance>
0.3426199555

$$$$
[H]c1c(N([H])C(=O)[C@@]2([H])N(C(=O)c3c([H])c([H])c(F)c([H])c3[H])C([H])([H])c3c([H])c([H])c([H])c([H])c3C2([H])[H])noc1C(C([H])([H])[H])(C([H])([H])[H])C([H])([H])[H]


 32 35  0  0  0  0  0  0  0  0999 V2000
    3.5257    5.3332   19.1745 C   0  0  0  0  0  0  0  0  0  0  0  0
    3.1723    6.7973   19.1396 C   0  0  0  0  0  0  0  0  0  0  0  0
    4.2442    7.6352   18.5563 C   0  0  0  0  0  0  0  0  0  0  0  0
    3.9723    8.9810   18.2890 C   0  0  0  0  0  0  0  0  0  0  0  0
    4.9033    9.8373   17.7526 C   0  0  0  0  0  0  0  0  0  0  0  0
    6.1510    9.3258   17.4737 C   0  0  0  0  0  0  0  0  0  0  0  0
    6.4464    8.0073   17.7257 C   0  0  0  0  0  0  0  0  0  0  0  0
    5.4882    7.1541   18.2699 C   0  0  0  0  0  0  0  0  0  0  0  0
    5.8499    5.7505   18.4977 C   0  0  0  0  0  0  0  0  0  0  0  0
    4.9201    5.0951   19.4396 N   0  0  0  0  0  0  0  0  0  0  0  0
    5.5240    4.3177   20.4473 C   0  0  0  0  0  0  0  0  0  0  0  0
    6.8401    4.3422   20.4793 O   0  0  0  0  0  0  0  0  0  0  0  0
    4.9639    3.4905   21.4745 C   0  0  0  0  0  0  0  0  0  0  0  0
    4.9477    3.7049   22.8239 C   0  0  0  0  0  0  0  0  0  0  0  0
    4.4957    2.7622   23.7645 C   0  0  0  0  0  0  0  0  0  0  0  0
    4.0317    1.5404   23.3504 C   0  0  0  0  0  0  0  0  0  0  0  0
    3.5911    0.6156   24.2548 F   0  0  0  0  0  0  0  0  0  0  0  0
    4.0298    1.2941   22.0032 C   0  0  0  0  0  0  0  0  0  0  0  0
    4.4708    2.2140   21.0897 C   0  0  0  0  0  0  0  0  0  0  0  0
    4.0588    3.7587   17.2785 N   0  0  0  0  0  0  0  0  0  0  0  0
    3.2038    4.6794   17.9024 C   0  0  0  0  0  0  0  0  0  0  0  0
    2.0927    4.9590   17.3378 O   0  0  0  0  0  0  0  0  0  0  0  0
    4.9744    3.4565   17.6560 H   0  0  0  0  0  0  0  0  0  0  0  0
    3.1774    2.9235   13.8447 C   0  0  0  0  0  0  0  0  0  0  0  0
    3.5811    3.8486   14.8028 C   0  0  0  0  0  0  0  0  0  0  0  0
    3.6852    3.1773   16.0135 C   0  0  0  0  0  0  0  0  0  0  0  0
    3.3460    1.9033   15.7453 N   0  0  0  0  0  0  0  0  0  0  0  0
    3.0563    1.7916   14.4701 O   0  0  0  0  0  0  0  0  0  0  0  0
    4.1573    4.0037   11.9130 C   0  0  0  0  0  0  0  0  0  0  0  0
    2.9612    3.2720   12.4073 C   0  0  0  0  0  0  0  0  0  0  0  0
    1.7241    4.1449   12.2943 C   0  0  0  0  0  0  0  0  0  0  0  0
    2.6970    1.9918   11.6303 C   0  0  0  0  0  0  0  0  0  0  0  0
 29 30  1  0  0  0
 30 31  1  0  0  0
 30 32  1  0  0  0
 30 24  1  0  0  0
 24 25  2  0  0  0
 25 26  1  0  0  0
 26 20  1  0  0  0
 20 21  1  0  0  0
 21 22  2  0  0  0
 21  1  1  0  0  0
  1  2  1  0  0  0
  2  3  1  0  0  0
  3  4  2  0  0  0
  4  5  1  0  0  0
  5  6  2  0  0  0
  6  7  1  0  0  0
  7  8  2  0  0  0
  8  9  1  0  0  0
  9 10  1  0  0  0
 10 11  1  0  0  0
 11 12  2  0  0  0
 11 13  1  0  0  0
 13 14  2  0  0  0
 14 15  1  0  0  0
 15 16  2  0  0  0
 16 17  1  0  0  0
 16 18  1  0  0  0
 18 19  2  0  0  0
 26 27  2  0  0  0
 27 28  1  0  0  0
 28 24  1  0  0  0
 10  1  1  0  0  0
 19 13  1  0  0  0
  8  3  1  0  0  0
 20 23  1  0  0  0
M  END
> <minimizedAffinity>
-7.74293

> <CNNscore>
0.2652278543

> <CNNaffinity>
6.3251457214

> <CNN_VS>
1.6776047945

> <CNNaffinity_variance>
0.4597980082

$$$$
[H]c1c(N([H])C(=O)[C@@]2([H])N(C(=O)c3c([H])c([H])c(F)c([H])c3[H])C([H])([H])c3c([H])c([H])c([H])c([H])c3C2([H])[H])noc1C(C([H])([H])[H])(C([H])([H])[H])C([H])([H])[H]


 32 35  0  0  0  0  0  0  0  0999 V2000
    3.1926    1.8776   10.9421 C   0  0  0  0  0  0  0  0  0  0  0  0
    3.3428    0.6003   10.1576 C   0  0  0  0  0  0  0  0  0  0  0  0
    2.0534    0.0826    9.6469 C   0  0  0  0  0  0  0  0  0  0  0  0
    2.0703   -0.9868    8.7455 C   0  0  0  0  0  0  0  0  0  0  0  0
    0.9261   -1.5374    8.2206 C   0  0  0  0  0  0  0  0  0  0  0  0
   -0.2777   -0.9960    8.6130 C   0  0  0  0  0  0  0  0  0  0  0  0
   -0.3247    0.0552    9.4972 C   0  0  0  0  0  0  0  0  0  0  0  0
    0.8472    0.6004   10.0185 C   0  0  0  0  0  0  0  0  0  0  0  0
    0.7402    1.7363   10.9411 C   0  0  0  0  0  0  0  0  0  0  0  0
    1.9818    1.9243   11.7186 N   0  0  0  0  0  0  0  0  0  0  0  0
    1.8067    2.1413   13.0995 C   0  0  0  0  0  0  0  0  0  0  0  0
    0.5684    2.0620   13.5401 O   0  0  0  0  0  0  0  0  0  0  0  0
    2.7445    2.4318   14.1431 C   0  0  0  0  0  0  0  0  0  0  0  0
    3.0900    1.6579   15.2150 C   0  0  0  0  0  0  0  0  0  0  0  0
    3.9199    2.0927   16.2638 C   0  0  0  0  0  0  0  0  0  0  0  0
    4.4396    3.3613   16.2535 C   0  0  0  0  0  0  0  0  0  0  0  0
    5.2460    3.7958   17.2675 F   0  0  0  0  0  0  0  0  0  0  0  0
    4.1169    4.1625   15.1907 C   0  0  0  0  0  0  0  0  0  0  0  0
    3.3084    3.7364   14.1710 C   0  0  0  0  0  0  0  0  0  0  0  0
    3.2558    2.9468    8.6594 N   0  0  0  0  0  0  0  0  0  0  0  0
    3.1909    3.0464   10.0572 C   0  0  0  0  0  0  0  0  0  0  0  0
    3.1244    4.2085   10.5831 O   0  0  0  0  0  0  0  0  0  0  0  0
    3.3022    2.0555    8.1345 H   0  0  0  0  0  0  0  0  0  0  0  0
    3.9679    5.8238    6.5426 C   0  0  0  0  0  0  0  0  0  0  0  0
    4.3731    4.6499    7.1705 C   0  0  0  0  0  0  0  0  0  0  0  0
    3.2772    4.1435    7.8561 C   0  0  0  0  0  0  0  0  0  0  0  0
    2.2774    5.0127    7.6222 N   0  0  0  0  0  0  0  0  0  0  0  0
    2.7162    5.9804    6.8517 O   0  0  0  0  0  0  0  0  0  0  0  0
    4.0677    7.7169    5.0376 C   0  0  0  0  0  0  0  0  0  0  0  0
    4.8761    6.6584    5.6983 C   0  0  0  0  0  0  0  0  0  0  0  0
    5.5341    5.7698    4.6579 C   0  0  0  0  0  0  0  0  0  0  0  0
    5.9750    7.2285    6.5817 C   0  0  0  0  0  0  0  0  0  0  0  0
 29 30  1  0  0  0
 30 31  1  0  0  0
 30 32  1  0  0  0
 30 24  1  0  0  0
 24 25  2  0  0  0
 25 26  1  0  0  0
 26 20  1  0  0  0
 20 21  1  0  0  0
 21 22  2  0  0  0
 21  1  1  0  0  0
  1  2  1  0  0  0
  2  3  1  0  0  0
  3  4  2  0  0  0
  4  5  1  0  0  0
  5  6  2  0  0  0
  6  7  1  0  0  0
  7  8  2  0  0  0
  8  9  1  0  0  0
  9 10  1  0  0  0
 10 11  1  0  0  0
 11 12  2  0  0  0
 11 13  1  0  0  0
 13 14  2  0  0  0
 14 15  1  0  0  0
 15 16  2  0  0  0
 16 17  1  0  0  0
 16 18  1  0  0  0
 18 19  2  0  0  0
 26 27  2  0  0  0
 27 28  1  0  0  0
 28 24  1  0  0  0
 10  1  1  0  0  0
 19 13  1  0  0  0
  8  3  1  0  0  0
 20 23  1  0  0  0
M  END
> <minimizedAffinity>
-5.58454

> <CNNscore>
0.2645194829

> <CNNaffinity>
5.5889625549

> <CNN_VS>
1.4783895016

> <CNNaffinity_variance>
0.6150994301

$$$$
[H]c1c([H])c([H])c(C([H])([H])[C@]([H])(C(=O)N2C([H])([H])C([H])([H])C([H])([H])[C@@]2([H])C(=O)N([H])[C@]([H])(C(=O)N([H])[H])C([H])([H])C([H])(C([H])([H])[H])C([H])([H])[H])N([H])C(=O)[C@@]2([H])N(C(=O)[C@@]([H])(N([H])[H])C([H])([H])c3c([H])n([H])c4c([H])c([H])c([H])c([H])c34)C([H])([H])C([H])([H])C2([H])[H])c([H])c1[H]


 55 59  0  0  0  0  0  0  0  0999 V2000
    3.7434    6.1765   17.5141 C   0  0  0  0  0  0  0  0  0  0  0  0
    5.9929    9.2321   18.5888 C   0  0  0  0  0  0  0  0  0  0  0  0
    5.6716   10.5262   17.8641 C   0  0  0  0  0  0  0  0  0  0  0  0
    5.6820   10.0568   16.4170 C   0  0  0  0  0  0  0  0  0  0  0  0
    5.4479    8.5695   16.4959 C   0  0  0  0  0  0  0  0  0  0  0  0
    5.2291    8.2468   17.9334 N   0  0  0  0  0  0  0  0  0  0  0  0
    4.4990    7.1331   18.3436 C   0  0  0  0  0  0  0  0  0  0  0  0
    4.4772    6.8747   19.5818 O   0  0  0  0  0  0  0  0  0  0  0  0
    6.7718    8.6082   20.8417 N   0  0  0  0  0  0  0  0  0  0  0  0
    5.9965    9.4332   20.0208 C   0  0  0  0  0  0  0  0  0  0  0  0
    5.3236   10.3209   20.5639 O   0  0  0  0  0  0  0  0  0  0  0  0
    7.3867    7.8387   20.4275 H   0  0  0  0  0  0  0  0  0  0  0  0
    6.9008    8.6474   22.3133 C   0  0  0  0  0  0  0  0  0  0  0  0
    8.1435    9.4943   22.4039 C   0  0  0  0  0  0  0  0  0  0  0  0
    9.3401    9.3059   21.7595 N   0  0  0  0  0  0  0  0  0  0  0  0
    8.0488   10.5076   23.1828 O   0  0  0  0  0  0  0  0  0  0  0  0
    9.4192    9.3359   20.7128 H   0  0  0  0  0  0  0  0  0  0  0  0
   10.2027    9.1318   22.3122 H   0  0  0  0  0  0  0  0  0  0  0  0
    7.0302    7.3545   22.9639 C   0  0  0  0  0  0  0  0  0  0  0  0
    6.5879    4.8884   22.2470 C   0  0  0  0  0  0  0  0  0  0  0  0
    7.3443    6.1248   22.2503 C   0  0  0  0  0  0  0  0  0  0  0  0
    8.8140    5.7055   22.6495 C   0  0  0  0  0  0  0  0  0  0  0  0
    3.2296    6.8344   16.3387 N   0  0  0  0  0  0  0  0  0  0  0  0
    3.3381    6.3316   15.0117 C   0  0  0  0  0  0  0  0  0  0  0  0
    3.9321    5.2262   14.8857 O   0  0  0  0  0  0  0  0  0  0  0  0
    2.7437    7.7431   16.4670 H   0  0  0  0  0  0  0  0  0  0  0  0
    2.8041    7.0526   13.9177 C   0  0  0  0  0  0  0  0  0  0  0  0
    2.8756    8.5913   13.9901 C   0  0  0  0  0  0  0  0  0  0  0  0
    2.1456    9.0062   12.7019 C   0  0  0  0  0  0  0  0  0  0  0  0
    1.4258    7.7113   12.2770 C   0  0  0  0  0  0  0  0  0  0  0  0
    1.4343    6.9416   13.4874 N   0  0  0  0  0  0  0  0  0  0  0  0
    0.3903    6.2665   14.1139 C   0  0  0  0  0  0  0  0  0  0  0  0
    0.6266    5.6956   15.2526 O   0  0  0  0  0  0  0  0  0  0  0  0
   -1.0106    6.0908   13.6587 C   0  0  0  0  0  0  0  0  0  0  0  0
   -1.9541    6.7636   14.4854 N   0  0  0  0  0  0  0  0  0  0  0  0
   -2.2893    6.2308   15.2973 H   0  0  0  0  0  0  0  0  0  0  0  0
   -1.6977    7.7176   14.7613 H   0  0  0  0  0  0  0  0  0  0  0  0
   -1.2077    6.4928   12.2190 C   0  0  0  0  0  0  0  0  0  0  0  0
   -1.9758    5.4297   11.5072 C   0  0  0  0  0  0  0  0  0  0  0  0
   -1.3663    4.3885   10.7649 C   0  0  0  0  0  0  0  0  0  0  0  0
   -2.3181    3.5770   10.3165 N   0  0  0  0  0  0  0  0  0  0  0  0
   -3.5394    4.0018   10.7059 C   0  0  0  0  0  0  0  0  0  0  0  0
   -4.8158    3.5470   10.5186 C   0  0  0  0  0  0  0  0  0  0  0  0
   -5.9404    4.1601   11.0192 C   0  0  0  0  0  0  0  0  0  0  0  0
   -5.7145    5.3265   11.7605 C   0  0  0  0  0  0  0  0  0  0  0  0
   -4.4442    5.7883   11.9526 C   0  0  0  0  0  0  0  0  0  0  0  0
   -3.3111    5.1562   11.4429 C   0  0  0  0  0  0  0  0  0  0  0  0
   -2.2271    2.7002    9.7226 H   0  0  0  0  0  0  0  0  0  0  0  0
    3.0740    5.0516   18.0928 C   0  0  0  0  0  0  0  0  0  0  0  0
    3.6861    3.7881   18.4710 C   0  0  0  0  0  0  0  0  0  0  0  0
    4.2026    3.4998   19.7144 C   0  0  0  0  0  0  0  0  0  0  0  0
    4.8254    2.3100   20.0355 C   0  0  0  0  0  0  0  0  0  0  0  0
    4.9309    1.3603   19.0430 C   0  0  0  0  0  0  0  0  0  0  0  0
    4.4201    1.6220   17.7859 C   0  0  0  0  0  0  0  0  0  0  0  0
    3.8111    2.7922   17.4791 C   0  0  0  0  0  0  0  0  0  0  0  0
 20 21  1  0  0  0
 21 22  1  0  0  0
 21 19  1  0  0  0
 19 13  1  0  0  0
 13  9  1  0  0  0
  9 10  1  0  0  0
 10 11  2  0  0  0
 10  2  1  0  0  0
  2  3  1  0  0  0
  3  4  1  0  0  0
  4  5  1  0  0  0
  5  6  1  0  0  0
  6  7  1  0  0  0
  7  8  2  0  0  0
  7  1  1  0  0  0
  1 49  1  0  0  0
 49 50  1  0  0  0
 50 51  2  0  0  0
 51 52  1  0  0  0
 52 53  2  0  0  0
 53 54  1  0  0  0
 54 55  2  0  0  0
  1 23  1  0  0  0
 23 24  1  0  0  0
 24 25  2  0  0  0
 24 27  1  0  0  0
 27 28  1  0  0  0
 28 29  1  0  0  0
 29 30  1  0  0  0
 30 31  1  0  0  0
 31 32  1  0  0  0
 32 33  2  0  0  0
 32 34  1  0  0  0
 34 35  1  0  0  0
 34 38  1  0  0  0
 38 39  1  0  0  0
 39 40  2  0  0  0
 40 41  1  0  0  0
 41 42  1  0  0  0
 42 43  2  0  0  0
 43 44  1  0  0  0
 44 45  2  0  0  0
 45 46  1  0  0  0
 46 47  2  0  0  0
 13 14  1  0  0  0
 14 15  1  0  0  0
 14 16  2  0  0  0
  6  2  1  0  0  0
 55 50  1  0  0  0
 31 27  1  0  0  0
 47 39  1  0  0  0
 47 42  1  0  0  0
  9 12  1  0  0  0
 23 26  1  0  0  0
 35 36  1  0  0  0
 35 37  1  0  0  0
 41 48  1  0  0  0
 15 17  1  0  0  0
 15 18  1  0  0  0
M  END
> <minimizedAffinity>
-8.94070

> <CNNscore>
0.4050824940

> <CNNaffinity>
6.8819007874

> <CNN_VS>
2.7877376080

> <CNNaffinity_variance>
0.1929936111

$$$$
[H]c1c([H])c([H])c(C([H])([H])[C@]([H])(C(=O)N2C([H])([H])C([H])([H])C([H])([H])[C@@]2([H])C(=O)N([H])[C@]([H])(C(=O)N([H])[H])C([H])([H])C([H])(C([H])([H])[H])C([H])([H])[H])N([H])C(=O)[C@@]2([H])N(C(=O)[C@@]([H])(N([H])[H])C([H])([H])c3c([H])n([H])c4c([H])c([H])c([H])c([H])c34)C([H])([H])C([H])([H])C2([H])[H])c([H])c1[H]


 55 59  0  0  0  0  0  0  0  0999 V2000
    3.3950    5.2327   15.9342 C   0  0  0  0  0  0  0  0  0  0  0  0
    2.4538    7.5536   12.8880 C   0  0  0  0  0  0  0  0  0  0  0  0
    3.5771    7.7524   11.8872 C   0  0  0  0  0  0  0  0  0  0  0  0
    4.7193    8.1494   12.8106 C   0  0  0  0  0  0  0  0  0  0  0  0
    4.3214    7.6143   14.1627 C   0  0  0  0  0  0  0  0  0  0  0  0
    3.0444    6.8722   13.9699 N   0  0  0  0  0  0  0  0  0  0  0  0
    2.6456    5.8432   14.8207 C   0  0  0  0  0  0  0  0  0  0  0  0
    1.4885    5.3616   14.6498 O   0  0  0  0  0  0  0  0  0  0  0  0
    0.0443    7.0402   12.9360 N   0  0  0  0  0  0  0  0  0  0  0  0
    1.2445    7.1217   12.2230 C   0  0  0  0  0  0  0  0  0  0  0  0
    1.2269    6.8090   11.0239 O   0  0  0  0  0  0  0  0  0  0  0  0
   -0.0046    7.3154   13.9673 H   0  0  0  0  0  0  0  0  0  0  0  0
   -1.2827    6.6160   12.4429 C   0  0  0  0  0  0  0  0  0  0  0  0
   -2.0749    6.8621   13.7005 C   0  0  0  0  0  0  0  0  0  0  0  0
   -3.4289    7.0483   13.8202 N   0  0  0  0  0  0  0  0  0  0  0  0
   -1.3795    6.8978   14.7764 O   0  0  0  0  0  0  0  0  0  0  0  0
   -4.1189    6.3026   13.5545 H   0  0  0  0  0  0  0  0  0  0  0  0
   -3.7962    7.9483   14.1878 H   0  0  0  0  0  0  0  0  0  0  0  0
   -1.3629    5.2463   11.9644 C   0  0  0  0  0  0  0  0  0  0  0  0
   -2.3479    5.6259    9.5817 C   0  0  0  0  0  0  0  0  0  0  0  0
   -2.1204    4.8511   10.7855 C   0  0  0  0  0  0  0  0  0  0  0  0
   -3.5589    4.4130   11.2692 C   0  0  0  0  0  0  0  0  0  0  0  0
    3.7779    6.2425   16.8893 N   0  0  0  0  0  0  0  0  0  0  0  0
    3.3632    6.2744   18.2504 C   0  0  0  0  0  0  0  0  0  0  0  0
    2.6056    5.3364   18.6201 O   0  0  0  0  0  0  0  0  0  0  0  0
    4.4028    7.0047   16.5623 H   0  0  0  0  0  0  0  0  0  0  0  0
    3.7893    7.3112   19.1136 C   0  0  0  0  0  0  0  0  0  0  0  0
    4.1207    8.6710   18.4661 C   0  0  0  0  0  0  0  0  0  0  0  0
    4.6100    9.4889   19.6728 C   0  0  0  0  0  0  0  0  0  0  0  0
    4.8665    8.4105   20.7435 C   0  0  0  0  0  0  0  0  0  0  0  0
    4.9496    7.2113   19.9608 N   0  0  0  0  0  0  0  0  0  0  0  0
    5.9097    6.2035   19.9853 C   0  0  0  0  0  0  0  0  0  0  0  0
    5.8112    5.2431   19.1214 O   0  0  0  0  0  0  0  0  0  0  0  0
    7.0773    6.0520   20.8877 C   0  0  0  0  0  0  0  0  0  0  0  0
    8.0041    7.1277   20.7858 N   0  0  0  0  0  0  0  0  0  0  0  0
    8.7204    7.0263   20.0565 H   0  0  0  0  0  0  0  0  0  0  0  0
    7.5899    8.0656   20.7564 H   0  0  0  0  0  0  0  0  0  0  0  0
    6.6762    5.8517   22.3272 C   0  0  0  0  0  0  0  0  0  0  0  0
    5.5848    4.8368   22.4021 C   0  0  0  0  0  0  0  0  0  0  0  0
    4.2534    5.1460   22.7739 C   0  0  0  0  0  0  0  0  0  0  0  0
    3.5209    4.0417   22.6764 N   0  0  0  0  0  0  0  0  0  0  0  0
    4.2713    2.9980   22.2627 C   0  0  0  0  0  0  0  0  0  0  0  0
    4.0183    1.6777   22.0098 C   0  0  0  0  0  0  0  0  0  0  0  0
    4.9639    0.7722   21.5887 C   0  0  0  0  0  0  0  0  0  0  0  0
    6.2583    1.2808   21.4253 C   0  0  0  0  0  0  0  0  0  0  0  0
    6.5206    2.5970   21.6755 C   0  0  0  0  0  0  0  0  0  0  0  0
    5.5528    3.5068   22.0990 C   0  0  0  0  0  0  0  0  0  0  0  0
    2.4874    3.9022   22.8816 H   0  0  0  0  0  0  0  0  0  0  0  0
    4.1741    4.0465   15.7492 C   0  0  0  0  0  0  0  0  0  0  0  0
    3.8732    2.7282   16.2839 C   0  0  0  0  0  0  0  0  0  0  0  0
    3.0572    1.7972   15.6814 C   0  0  0  0  0  0  0  0  0  0  0  0
    2.7454    0.5705   16.2333 C   0  0  0  0  0  0  0  0  0  0  0  0
    3.2897    0.2705   17.4629 C   0  0  0  0  0  0  0  0  0  0  0  0
    4.1135    1.1857   18.0902 C   0  0  0  0  0  0  0  0  0  0  0  0
    4.4139    2.3872   17.5420 C   0  0  0  0  0  0  0  0  0  0  0  0
 20 21  1  0  0  0
 21 22  1  0  0  0
 21 19  1  0  0  0
 19 13  1  0  0  0
 13  9  1  0  0  0
  9 10  1  0  0  0
 10 11  2  0  0  0
 10  2  1  0  0  0
  2  3  1  0  0  0
  3  4  1  0  0  0
  4  5  1  0  0  0
  5  6  1  0  0  0
  6  7  1  0  0  0
  7  8  2  0  0  0
  7  1  1  0  0  0
  1 49  1  0  0  0
 49 50  1  0  0  0
 50 51  2  0  0  0
 51 52  1  0  0  0
 52 53  2  0  0  0
 53 54  1  0  0  0
 54 55  2  0  0  0
  1 23  1  0  0  0
 23 24  1  0  0  0
 24 25  2  0  0  0
 24 27  1  0  0  0
 27 28  1  0  0  0
 28 29  1  0  0  0
 29 30  1  0  0  0
 30 31  1  0  0  0
 31 32  1  0  0  0
 32 33  2  0  0  0
 32 34  1  0  0  0
 34 35  1  0  0  0
 34 38  1  0  0  0
 38 39  1  0  0  0
 39 40  2  0  0  0
 40 41  1  0  0  0
 41 42  1  0  0  0
 42 43  2  0  0  0
 43 44  1  0  0  0
 44 45  2  0  0  0
 45 46  1  0  0  0
 46 47  2  0  0  0
 13 14  1  0  0  0
 14 15  1  0  0  0
 14 16  2  0  0  0
  6  2  1  0  0  0
 55 50  1  0  0  0
 31 27  1  0  0  0
 47 39  1  0  0  0
 47 42  1  0  0  0
  9 12  1  0  0  0
 23 26  1  0  0  0
 35 36  1  0  0  0
 35 37  1  0  0  0
 41 48  1  0  0  0
 15 17  1  0  0  0
 15 18  1  0  0  0
M  END
> <minimizedAffinity>
-10.40482

> <CNNscore>
0.3569828272

> <CNNaffinity>
7.3730607033

> <CNN_VS>
2.6320559978

> <CNNaffinity_variance>
0.3896292448

$$$$
[H]c1c([H])c([H])c(C([H])([H])[C@]([H])(C(=O)N2C([H])([H])C([H])([H])C([H])([H])[C@@]2([H])C(=O)N([H])[C@]([H])(C(=O)N([H])[H])C([H])([H])C([H])(C([H])([H])[H])C([H])([H])[H])N([H])C(=O)[C@@]2([H])N(C(=O)[C@@]([H])(N([H])[H])C([H])([H])c3c([H])n([H])c4c([H])c([H])c([H])c([H])c34)C([H])([H])C([H])([H])C2([H])[H])c([H])c1[H]


 55 59  0  0  0  0  0  0  0  0999 V2000
    5.6267    8.7390   13.3925 C   0  0  0  0  0  0  0  0  0  0  0  0
    4.8475   10.9097   16.5913 C   0  0  0  0  0  0  0  0  0  0  0  0
    3.3768   11.2326   16.7807 C   0  0  0  0  0  0  0  0  0  0  0  0
    3.0192   11.7687   15.4025 C   0  0  0  0  0  0  0  0  0  0  0  0
    4.0728   11.2003   14.4861 C   0  0  0  0  0  0  0  0  0  0  0  0
    4.9294   10.3109   15.3191 N   0  0  0  0  0  0  0  0  0  0  0  0
    5.6487    9.2483   14.7760 C   0  0  0  0  0  0  0  0  0  0  0  0
    6.4448    8.6319   15.5419 O   0  0  0  0  0  0  0  0  0  0  0  0
    4.8383    9.1797   18.3459 N   0  0  0  0  0  0  0  0  0  0  0  0
    5.4052   10.3329   17.7943 C   0  0  0  0  0  0  0  0  0  0  0  0
    6.3818   10.8303   18.3729 O   0  0  0  0  0  0  0  0  0  0  0  0
    4.0071    8.6964   17.8799 H   0  0  0  0  0  0  0  0  0  0  0  0
    5.2533    8.4516   19.5631 C   0  0  0  0  0  0  0  0  0  0  0  0
    4.6369    7.1149   19.2422 C   0  0  0  0  0  0  0  0  0  0  0  0
    3.3595    6.6907   19.5081 N   0  0  0  0  0  0  0  0  0  0  0  0
    5.4184    6.2902   18.6493 O   0  0  0  0  0  0  0  0  0  0  0  0
    2.5188    7.1579   19.0865 H   0  0  0  0  0  0  0  0  0  0  0  0
    3.2052    5.8808   20.1408 H   0  0  0  0  0  0  0  0  0  0  0  0
    4.7904    9.0184   20.8186 C   0  0  0  0  0  0  0  0  0  0  0  0
    6.6465   10.4419   21.9674 C   0  0  0  0  0  0  0  0  0  0  0  0
    5.6789    9.3638   21.9192 C   0  0  0  0  0  0  0  0  0  0  0  0
    6.4930    8.0645   22.2989 C   0  0  0  0  0  0  0  0  0  0  0  0
    4.9553    7.4641   13.3420 N   0  0  0  0  0  0  0  0  0  0  0  0
    3.5724    7.2832   13.0588 C   0  0  0  0  0  0  0  0  0  0  0  0
    2.9106    8.3340   12.8389 O   0  0  0  0  0  0  0  0  0  0  0  0
    5.5207    6.6127   13.5257 H   0  0  0  0  0  0  0  0  0  0  0  0
    3.0008    5.9892   13.0350 C   0  0  0  0  0  0  0  0  0  0  0  0
    1.5105    5.8879   12.6518 C   0  0  0  0  0  0  0  0  0  0  0  0
    1.2406    4.3827   12.8131 C   0  0  0  0  0  0  0  0  0  0  0  0
    2.4574    3.8956   13.6239 C   0  0  0  0  0  0  0  0  0  0  0  0
    2.9671    5.1158   14.1795 N   0  0  0  0  0  0  0  0  0  0  0  0
    3.3265    5.4079   15.4924 C   0  0  0  0  0  0  0  0  0  0  0  0
    3.6954    6.6181   15.7712 O   0  0  0  0  0  0  0  0  0  0  0  0
    3.3552    4.5085   16.6717 C   0  0  0  0  0  0  0  0  0  0  0  0
    2.0565    4.1475   17.1293 N   0  0  0  0  0  0  0  0  0  0  0  0
    1.6276    4.7973   17.7995 H   0  0  0  0  0  0  0  0  0  0  0  0
    1.3861    3.8907   16.3967 H   0  0  0  0  0  0  0  0  0  0  0  0
    4.1818    3.2698   16.4369 C   0  0  0  0  0  0  0  0  0  0  0  0
    3.9121    2.2799   17.5204 C   0  0  0  0  0  0  0  0  0  0  0  0
    3.1471    1.1026   17.3316 C   0  0  0  0  0  0  0  0  0  0  0  0
    3.1529    0.4094   18.4653 N   0  0  0  0  0  0  0  0  0  0  0  0
    3.8734    1.0424   19.4160 C   0  0  0  0  0  0  0  0  0  0  0  0
    4.1865    0.7704   20.7195 C   0  0  0  0  0  0  0  0  0  0  0  0
    4.9541    1.5835   21.5201 C   0  0  0  0  0  0  0  0  0  0  0  0
    5.4208    2.7588   20.9186 C   0  0  0  0  0  0  0  0  0  0  0  0
    5.1132    3.0390   19.6183 C   0  0  0  0  0  0  0  0  0  0  0  0
    4.3367    2.2052   18.8150 C   0  0  0  0  0  0  0  0  0  0  0  0
    2.6800   -0.5161   18.6878 H   0  0  0  0  0  0  0  0  0  0  0  0
    6.6518    9.0805   12.4539 C   0  0  0  0  0  0  0  0  0  0  0  0
    7.9316    8.4086   12.2963 C   0  0  0  0  0  0  0  0  0  0  0  0
    9.0785    8.7169   12.9930 C   0  0  0  0  0  0  0  0  0  0  0  0
   10.2960    8.0983   12.7897 C   0  0  0  0  0  0  0  0  0  0  0  0
   10.3553    7.1136   11.8279 C   0  0  0  0  0  0  0  0  0  0  0  0
    9.2193    6.7824   11.1142 C   0  0  0  0  0  0  0  0  0  0  0  0
    8.0288    7.3947   11.3196 C   0  0  0  0  0  0  0  0  0  0  0  0
 20 21  1  0  0  0
 21 22  1  0  0  0
 21 19  1  0  0  0
 19 13  1  0  0  0
 13  9  1  0  0  0
  9 10  1  0  0  0
 10 11  2  0  0  0
 10  2  1  0  0  0
  2  3  1  0  0  0
  3  4  1  0  0  0
  4  5  1  0  0  0
  5  6  1  0  0  0
  6  7  1  0  0  0
  7  8  2  0  0  0
  7  1  1  0  0  0
  1 49  1  0  0  0
 49 50  1  0  0  0
 50 51  2  0  0  0
 51 52  1  0  0  0
 52 53  2  0  0  0
 53 54  1  0  0  0
 54 55  2  0  0  0
  1 23  1  0  0  0
 23 24  1  0  0  0
 24 25  2  0  0  0
 24 27  1  0  0  0
 27 28  1  0  0  0
 28 29  1  0  0  0
 29 30  1  0  0  0
 30 31  1  0  0  0
 31 32  1  0  0  0
 32 33  2  0  0  0
 32 34  1  0  0  0
 34 35  1  0  0  0
 34 38  1  0  0  0
 38 39  1  0  0  0
 39 40  2  0  0  0
 40 41  1  0  0  0
 41 42  1  0  0  0
 42 43  2  0  0  0
 43 44  1  0  0  0
 44 45  2  0  0  0
 45 46  1  0  0  0
 46 47  2  0  0  0
 13 14  1  0  0  0
 14 15  1  0  0  0
 14 16  2  0  0  0
  6  2  1  0  0  0
 55 50  1  0  0  0
 31 27  1  0  0  0
 47 39  1  0  0  0
 47 42  1  0  0  0
  9 12  1  0  0  0
 23 26  1  0  0  0
 35 36  1  0  0  0
 35 37  1  0  0  0
 41 48  1  0  0  0
 15 17  1  0  0  0
 15 18  1  0  0  0
M  END
> <minimizedAffinity>
-9.56038

> <CNNscore>
0.3375946879

> <CNNaffinity>
7.1639719009

> <CNN_VS>
2.4185187817

> <CNNaffinity_variance>
0.2543350160

$$$$
[H]c1c([H])c([H])c(C([H])([H])[C@]([H])(C(=O)N2C([H])([H])C([H])([H])C([H])([H])[C@@]2([H])C(=O)N([H])[C@]([H])(C(=O)N([H])[H])C([H])([H])C([H])(C([H])([H])[H])C([H])([H])[H])N([H])C(=O)[C@@]2([H])N(C(=O)[C@@]([H])(N([H])[H])C([H])([H])c3c([H])n([H])c4c([H])c([H])c([H])c([H])c34)C([H])([H])C([H])([H])C2([H])[H])c([H])c1[H]


 55 59  0  0  0  0  0  0  0  0999 V2000
    4.3096    4.2344   18.5043 C   0  0  0  0  0  0  0  0  0  0  0  0
    3.1690    1.4570   15.9477 C   0  0  0  0  0  0  0  0  0  0  0  0
    2.2216    0.4254   16.5318 C   0  0  0  0  0  0  0  0  0  0  0  0
    2.9731    0.0244   17.7923 C   0  0  0  0  0  0  0  0  0  0  0  0
    3.8961    1.1831   18.0720 C   0  0  0  0  0  0  0  0  0  0  0  0
    3.5985    2.2235   17.0485 N   0  0  0  0  0  0  0  0  0  0  0  0
    3.8479    3.5767   17.2681 C   0  0  0  0  0  0  0  0  0  0  0  0
    3.6808    4.3655   16.2934 O   0  0  0  0  0  0  0  0  0  0  0  0
    3.4597    2.7213   13.8528 N   0  0  0  0  0  0  0  0  0  0  0  0
    2.6271    2.0209   14.7314 C   0  0  0  0  0  0  0  0  0  0  0  0
    1.4299    1.9124   14.4303 O   0  0  0  0  0  0  0  0  0  0  0  0
    4.5040    2.8302   14.0510 H   0  0  0  0  0  0  0  0  0  0  0  0
    3.0973    3.3733   12.5771 C   0  0  0  0  0  0  0  0  0  0  0  0
    2.5103    4.6430   13.1367 C   0  0  0  0  0  0  0  0  0  0  0  0
    1.2069    4.8836   13.4914 N   0  0  0  0  0  0  0  0  0  0  0  0
    3.3477    5.6006   13.2915 O   0  0  0  0  0  0  0  0  0  0  0  0
    0.7312    4.3480   14.2593 H   0  0  0  0  0  0  0  0  0  0  0  0
    0.6639    5.6183   12.9963 H   0  0  0  0  0  0  0  0  0  0  0  0
    2.1762    2.6294   11.7346 C   0  0  0  0  0  0  0  0  0  0  0  0
    1.2952    2.0318    9.3559 C   0  0  0  0  0  0  0  0  0  0  0  0
    2.0909    2.8017   10.2914 C   0  0  0  0  0  0  0  0  0  0  0  0
    3.5621    2.7494    9.7185 C   0  0  0  0  0  0  0  0  0  0  0  0
    4.3545    5.6637   18.3209 N   0  0  0  0  0  0  0  0  0  0  0  0
    5.4763    6.3858   17.8251 C   0  0  0  0  0  0  0  0  0  0  0  0
    6.4916    5.6977   17.5320 O   0  0  0  0  0  0  0  0  0  0  0  0
    3.5065    6.2095   18.5684 H   0  0  0  0  0  0  0  0  0  0  0  0
    5.4271    7.7926   17.6829 C   0  0  0  0  0  0  0  0  0  0  0  0
    6.6124    8.4663   16.9622 C   0  0  0  0  0  0  0  0  0  0  0  0
    6.2488    9.9563   17.0730 C   0  0  0  0  0  0  0  0  0  0  0  0
    5.1485    9.9669   18.1521 C   0  0  0  0  0  0  0  0  0  0  0  0
    5.3364    8.6998   18.7976 N   0  0  0  0  0  0  0  0  0  0  0  0
    5.4288    8.4033   20.1547 C   0  0  0  0  0  0  0  0  0  0  0  0
    5.6763    7.1790   20.4983 O   0  0  0  0  0  0  0  0  0  0  0  0
    5.2797    9.3114   21.3182 C   0  0  0  0  0  0  0  0  0  0  0  0
    4.6341    8.6954   22.4272 N   0  0  0  0  0  0  0  0  0  0  0  0
    3.6079    8.7441   22.4241 H   0  0  0  0  0  0  0  0  0  0  0  0
    4.9490    7.7448   22.6489 H   0  0  0  0  0  0  0  0  0  0  0  0
    6.5904    9.9150   21.7550 C   0  0  0  0  0  0  0  0  0  0  0  0
    7.2803    8.9800   22.6912 C   0  0  0  0  0  0  0  0  0  0  0  0
    6.9831    8.8969   24.0738 C   0  0  0  0  0  0  0  0  0  0  0  0
    7.7202    7.9279   24.6062 N   0  0  0  0  0  0  0  0  0  0  0  0
    8.5030    7.3463   23.6721 C   0  0  0  0  0  0  0  0  0  0  0  0
    9.4227    6.3340   23.6893 C   0  0  0  0  0  0  0  0  0  0  0  0
   10.1214    5.9001   22.5870 C   0  0  0  0  0  0  0  0  0  0  0  0
    9.8419    6.5718   21.3905 C   0  0  0  0  0  0  0  0  0  0  0  0
    8.9258    7.5837   21.3635 C   0  0  0  0  0  0  0  0  0  0  0  0
    8.2209    8.0128   22.4871 C   0  0  0  0  0  0  0  0  0  0  0  0
    7.7611    7.5932   25.6142 H   0  0  0  0  0  0  0  0  0  0  0  0
    5.1867    3.5715   19.4208 C   0  0  0  0  0  0  0  0  0  0  0  0
    4.9946    3.4465   20.8567 C   0  0  0  0  0  0  0  0  0  0  0  0
    5.6093    2.5114   21.6589 C   0  0  0  0  0  0  0  0  0  0  0  0
    5.3723    2.3792   23.0127 C   0  0  0  0  0  0  0  0  0  0  0  0
    4.4627    3.2412   23.5854 C   0  0  0  0  0  0  0  0  0  0  0  0
    3.8317    4.1907   22.8044 C   0  0  0  0  0  0  0  0  0  0  0  0
    4.0696    4.3133   21.4767 C   0  0  0  0  0  0  0  0  0  0  0  0
 20 21  1  0  0  0
 21 22  1  0  0  0
 21 19  1  0  0  0
 19 13  1  0  0  0
 13  9  1  0  0  0
  9 10  1  0  0  0
 10 11  2  0  0  0
 10  2  1  0  0  0
  2  3  1  0  0  0
  3  4  1  0  0  0
  4  5  1  0  0  0
  5  6  1  0  0  0
  6  7  1  0  0  0
  7  8  2  0  0  0
  7  1  1  0  0  0
  1 49  1  0  0  0
 49 50  1  0  0  0
 50 51  2  0  0  0
 51 52  1  0  0  0
 52 53  2  0  0  0
 53 54  1  0  0  0
 54 55  2  0  0  0
  1 23  1  0  0  0
 23 24  1  0  0  0
 24 25  2  0  0  0
 24 27  1  0  0  0
 27 28  1  0  0  0
 28 29  1  0  0  0
 29 30  1  0  0  0
 30 31  1  0  0  0
 31 32  1  0  0  0
 32 33  2  0  0  0
 32 34  1  0  0  0
 34 35  1  0  0  0
 34 38  1  0  0  0
 38 39  1  0  0  0
 39 40  2  0  0  0
 40 41  1  0  0  0
 41 42  1  0  0  0
 42 43  2  0  0  0
 43 44  1  0  0  0
 44 45  2  0  0  0
 45 46  1  0  0  0
 46 47  2  0  0  0
 13 14  1  0  0  0
 14 15  1  0  0  0
 14 16  2  0  0  0
  6  2  1  0  0  0
 55 50  1  0  0  0
 31 27  1  0  0  0
 47 39  1  0  0  0
 47 42  1  0  0  0
  9 12  1  0  0  0
 23 26  1  0  0  0
 35 36  1  0  0  0
 35 37  1  0  0  0
 41 48  1  0  0  0
 15 17  1  0  0  0
 15 18  1  0  0  0
M  END
> <minimizedAffinity>
-9.16918

> <CNNscore>
0.2511055171

> <CNNaffinity>
7.3064565659

> <CNN_VS>
1.8346915245

> <CNNaffinity_variance>
0.5035155416

$$$$
[H]c1c([H])c([H])c(C([H])([H])[C@]([H])(C(=O)N2C([H])([H])C([H])([H])C([H])([H])[C@@]2([H])C(=O)N([H])[C@]([H])(C(=O)N([H])[H])C([H])([H])C([H])(C([H])([H])[H])C([H])([H])[H])N([H])C(=O)[C@@]2([H])N(C(=O)[C@@]([H])(N([H])[H])C([H])([H])c3c([H])n([H])c4c([H])c([H])c([H])c([H])c34)C([H])([H])C([H])([H])C2([H])[H])c([H])c1[H]


 55 59  0  0  0  0  0  0  0  0999 V2000
    3.4343    4.4744   16.2066 C   0  0  0  0  0  0  0  0  0  0  0  0
    2.0109    4.2382   12.5364 C   0  0  0  0  0  0  0  0  0  0  0  0
    1.3201    2.9244   12.2207 C   0  0  0  0  0  0  0  0  0  0  0  0
    2.3705    1.9269   12.6857 C   0  0  0  0  0  0  0  0  0  0  0  0
    3.2206    2.6957   13.6651 C   0  0  0  0  0  0  0  0  0  0  0  0
    2.6041    4.0450   13.7992 N   0  0  0  0  0  0  0  0  0  0  0  0
    2.7692    4.8289   14.9393 C   0  0  0  0  0  0  0  0  0  0  0  0
    2.3137    6.0086   14.9060 O   0  0  0  0  0  0  0  0  0  0  0  0
   -0.1330    5.4361   12.7362 N   0  0  0  0  0  0  0  0  0  0  0  0
    1.1586    5.3586   12.2059 C   0  0  0  0  0  0  0  0  0  0  0  0
    1.5297    6.2699   11.4525 O   0  0  0  0  0  0  0  0  0  0  0  0
   -0.5000    4.6892   13.4064 H   0  0  0  0  0  0  0  0  0  0  0  0
   -1.1496    6.4851   12.5126 C   0  0  0  0  0  0  0  0  0  0  0  0
   -1.5797    6.6846   13.9427 C   0  0  0  0  0  0  0  0  0  0  0  0
   -2.8559    6.8245   14.4267 N   0  0  0  0  0  0  0  0  0  0  0  0
   -0.6212    6.7255   14.7924 O   0  0  0  0  0  0  0  0  0  0  0  0
   -3.5715    6.0611   14.3382 H   0  0  0  0  0  0  0  0  0  0  0  0
   -3.1346    7.7059   14.9014 H   0  0  0  0  0  0  0  0  0  0  0  0
   -2.2395    6.1198   11.6238 C   0  0  0  0  0  0  0  0  0  0  0  0
   -2.2457    4.0214   10.0784 C   0  0  0  0  0  0  0  0  0  0  0  0
   -2.5767    4.7430   11.2911 C   0  0  0  0  0  0  0  0  0  0  0  0
   -4.1406    4.5850   11.4484 C   0  0  0  0  0  0  0  0  0  0  0  0
    3.8604    5.6669   16.8957 N   0  0  0  0  0  0  0  0  0  0  0  0
    3.3556    6.1051   18.1522 C   0  0  0  0  0  0  0  0  0  0  0  0
    2.4716    5.3755   18.6782 O   0  0  0  0  0  0  0  0  0  0  0  0
    4.5898    6.2516   16.4437 H   0  0  0  0  0  0  0  0  0  0  0  0
    3.8341    7.2946   18.7504 C   0  0  0  0  0  0  0  0  0  0  0  0
    4.8415    8.1323   17.9371 C   0  0  0  0  0  0  0  0  0  0  0  0
    5.1815    9.2655   18.9193 C   0  0  0  0  0  0  0  0  0  0  0  0
    4.6528    8.7307   20.2646 C   0  0  0  0  0  0  0  0  0  0  0  0
    4.5296    7.3242   20.0111 N   0  0  0  0  0  0  0  0  0  0  0  0
    4.9778    6.2460   20.7691 C   0  0  0  0  0  0  0  0  0  0  0  0
    4.8127    5.0524   20.2932 O   0  0  0  0  0  0  0  0  0  0  0  0
    5.6424    6.2528   22.0953 C   0  0  0  0  0  0  0  0  0  0  0  0
    5.0681    5.3268   23.0115 N   0  0  0  0  0  0  0  0  0  0  0  0
    4.2710    5.6797   23.5551 H   0  0  0  0  0  0  0  0  0  0  0  0
    4.8604    4.3983   22.6285 H   0  0  0  0  0  0  0  0  0  0  0  0
    7.1302    6.0282   22.0001 C   0  0  0  0  0  0  0  0  0  0  0  0
    7.7703    7.2100   21.3517 C   0  0  0  0  0  0  0  0  0  0  0  0
    8.3836    7.1653   20.0756 C   0  0  0  0  0  0  0  0  0  0  0  0
    8.7935    8.3896   19.7614 N   0  0  0  0  0  0  0  0  0  0  0  0
    8.4991    9.2661   20.7456 C   0  0  0  0  0  0  0  0  0  0  0  0
    8.6972   10.6078   20.9234 C   0  0  0  0  0  0  0  0  0  0  0  0
    8.3057   11.3099   22.0393 C   0  0  0  0  0  0  0  0  0  0  0  0
    7.6694   10.5582   23.0348 C   0  0  0  0  0  0  0  0  0  0  0  0
    7.4675    9.2185   22.8665 C   0  0  0  0  0  0  0  0  0  0  0  0
    7.8658    8.5179   21.7289 C   0  0  0  0  0  0  0  0  0  0  0  0
    9.2971    8.7245   18.8874 H   0  0  0  0  0  0  0  0  0  0  0  0
    4.1283    3.2327   16.3645 C   0  0  0  0  0  0  0  0  0  0  0  0
    3.7456    2.1397   17.2438 C   0  0  0  0  0  0  0  0  0  0  0  0
    4.1151    2.0201   18.5648 C   0  0  0  0  0  0  0  0  0  0  0  0
    3.7814    0.9466   19.3664 C   0  0  0  0  0  0  0  0  0  0  0  0
    3.0324   -0.0610   18.7991 C   0  0  0  0  0  0  0  0  0  0  0  0
    2.6461    0.0332   17.4756 C   0  0  0  0  0  0  0  0  0  0  0  0
    2.9784    1.0896   16.6959 C   0  0  0  0  0  0  0  0  0  0  0  0
 20 21  1  0  0  0
 21 22  1  0  0  0
 21 19  1  0  0  0
 19 13  1  0  0  0
 13  9  1  0  0  0
  9 10  1  0  0  0
 10 11  2  0  0  0
 10  2  1  0  0  0
  2  3  1  0  0  0
  3  4  1  0  0  0
  4  5  1  0  0  0
  5  6  1  0  0  0
  6  7  1  0  0  0
  7  8  2  0  0  0
  7  1  1  0  0  0
  1 49  1  0  0  0
 49 50  1  0  0  0
 50 51  2  0  0  0
 51 52  1  0  0  0
 52 53  2  0  0  0
 53 54  1  0  0  0
 54 55  2  0  0  0
  1 23  1  0  0  0
 23 24  1  0  0  0
 24 25  2  0  0  0
 24 27  1  0  0  0
 27 28  1  0  0  0
 28 29  1  0  0  0
 29 30  1  0  0  0
 30 31  1  0  0  0
 31 32  1  0  0  0
 32 33  2  0  0  0
 32 34  1  0  0  0
 34 35  1  0  0  0
 34 38  1  0  0  0
 38 39  1  0  0  0
 39 40  2  0  0  0
 40 41  1  0  0  0
 41 42  1  0  0  0
 42 43  2  0  0  0
 43 44  1  0  0  0
 44 45  2  0  0  0
 45 46  1  0  0  0
 46 47  2  0  0  0
 13 14  1  0  0  0
 14 15  1  0  0  0
 14 16  2  0  0  0
  6  2  1  0  0  0
 55 50  1  0  0  0
 31 27  1  0  0  0
 47 39  1  0  0  0
 47 42  1  0  0  0
  9 12  1  0  0  0
 23 26  1  0  0  0
 35 36  1  0  0  0
 35 37  1  0  0  0
 41 48  1  0  0  0
 15 17  1  0  0  0
 15 18  1  0  0  0
M  END
> <minimizedAffinity>
-9.66027

> <CNNscore>
0.2227058411

> <CNNaffinity>
7.1016144753

> <CNN_VS>
1.5815709829

> <CNNaffinity_variance>
0.3899914622

$$$$
[H]c1c([H])c([H])c(C([H])([H])[C@]([H])(C(=O)N2C([H])([H])C([H])([H])C([H])([H])[C@@]2([H])C(=O)N([H])[C@]([H])(C(=O)N([H])[H])C([H])([H])C([H])(C([H])([H])[H])C([H])([H])[H])N([H])C(=O)[C@@]2([H])N(C(=O)[C@@]([H])(N([H])[H])C([H])([H])c3c([H])n([H])c4c([H])c([H])c([H])c([H])c34)C([H])([H])C([H])([H])C2([H])[H])c([H])c1[H]


 55 59  0  0  0  0  0  0  0  0999 V2000
    3.7520    4.4078   15.5210 C   0  0  0  0  0  0  0  0  0  0  0  0
    1.7128    5.8785   12.4829 C   0  0  0  0  0  0  0  0  0  0  0  0
    1.0342    7.2046   12.7730 C   0  0  0  0  0  0  0  0  0  0  0  0
    0.3165    6.8827   14.0753 C   0  0  0  0  0  0  0  0  0  0  0  0
    1.0654    5.7039   14.6432 C   0  0  0  0  0  0  0  0  0  0  0  0
    2.2099    5.4425   13.7265 N   0  0  0  0  0  0  0  0  0  0  0  0
    3.3768    4.8121   14.1536 C   0  0  0  0  0  0  0  0  0  0  0  0
    4.2376    4.5215   13.2733 O   0  0  0  0  0  0  0  0  0  0  0  0
    3.5706    6.8675   11.2015 N   0  0  0  0  0  0  0  0  0  0  0  0
    2.5079    5.9617   11.2780 C   0  0  0  0  0  0  0  0  0  0  0  0
    2.2798    5.2533   10.2870 O   0  0  0  0  0  0  0  0  0  0  0  0
    3.8256    7.4901   12.0315 H   0  0  0  0  0  0  0  0  0  0  0  0
    4.4854    7.1068   10.0658 C   0  0  0  0  0  0  0  0  0  0  0  0
    5.6682    7.6271   10.8405 C   0  0  0  0  0  0  0  0  0  0  0  0
    5.6648    8.5087   11.8917 N   0  0  0  0  0  0  0  0  0  0  0  0
    6.8046    7.1786   10.4534 O   0  0  0  0  0  0  0  0  0  0  0  0
    5.1903    8.2875   12.8020 H   0  0  0  0  0  0  0  0  0  0  0  0
    6.1463    9.4249   11.7992 H   0  0  0  0  0  0  0  0  0  0  0  0
    3.9995    8.0322    9.0563 C   0  0  0  0  0  0  0  0  0  0  0  0
    5.5898    7.3065    7.1235 C   0  0  0  0  0  0  0  0  0  0  0  0
    4.6029    8.1717    7.7386 C   0  0  0  0  0  0  0  0  0  0  0  0
    5.2175    9.6241    7.6484 C   0  0  0  0  0  0  0  0  0  0  0  0
    4.0293    5.5714   16.3257 N   0  0  0  0  0  0  0  0  0  0  0  0
    3.3740    5.8906   17.5482 C   0  0  0  0  0  0  0  0  0  0  0  0
    2.4906    5.0762   17.9314 O   0  0  0  0  0  0  0  0  0  0  0  0
    4.7612    6.2275   15.9906 H   0  0  0  0  0  0  0  0  0  0  0  0
    3.7127    7.0606   18.2679 C   0  0  0  0  0  0  0  0  0  0  0  0
    4.0931    8.3063   17.4422 C   0  0  0  0  0  0  0  0  0  0  0  0
    4.4646    9.3165   18.5403 C   0  0  0  0  0  0  0  0  0  0  0  0
    4.6292    8.4285   19.7892 C   0  0  0  0  0  0  0  0  0  0  0  0
    4.7913    7.1218   19.2202 N   0  0  0  0  0  0  0  0  0  0  0  0
    5.7516    6.1513   19.4921 C   0  0  0  0  0  0  0  0  0  0  0  0
    5.7387    5.0634   18.7888 O   0  0  0  0  0  0  0  0  0  0  0  0
    6.8327    6.1704   20.5077 C   0  0  0  0  0  0  0  0  0  0  0  0
    7.7947    7.1945   20.2789 N   0  0  0  0  0  0  0  0  0  0  0  0
    8.5678    6.9423   19.6512 H   0  0  0  0  0  0  0  0  0  0  0  0
    7.4110    8.1120   20.0276 H   0  0  0  0  0  0  0  0  0  0  0  0
    6.3041    6.2652   21.9164 C   0  0  0  0  0  0  0  0  0  0  0  0
    5.3448    5.1491   22.1631 C   0  0  0  0  0  0  0  0  0  0  0  0
    3.9808    5.3479   22.4898 C   0  0  0  0  0  0  0  0  0  0  0  0
    3.3909    4.1606   22.5783 N   0  0  0  0  0  0  0  0  0  0  0  0
    4.2690    3.1643   22.3337 C   0  0  0  0  0  0  0  0  0  0  0  0
    4.1834    1.7995   22.3003 C   0  0  0  0  0  0  0  0  0  0  0  0
    5.2382    0.9613   22.0245 C   0  0  0  0  0  0  0  0  0  0  0  0
    6.4624    1.5924   21.7712 C   0  0  0  0  0  0  0  0  0  0  0  0
    6.5578    2.9539   21.8026 C   0  0  0  0  0  0  0  0  0  0  0  0
    5.4803    3.7939   22.0801 C   0  0  0  0  0  0  0  0  0  0  0  0
    2.3798    3.9298   22.8111 H   0  0  0  0  0  0  0  0  0  0  0  0
    4.3867    3.1516   15.7814 C   0  0  0  0  0  0  0  0  0  0  0  0
    3.8481    2.0668   16.5860 C   0  0  0  0  0  0  0  0  0  0  0  0
    2.9753    1.1032   16.1327 C   0  0  0  0  0  0  0  0  0  0  0  0
    2.4372    0.1118   16.9291 C   0  0  0  0  0  0  0  0  0  0  0  0
    2.8030    0.0957   18.2573 C   0  0  0  0  0  0  0  0  0  0  0  0
    3.6786    1.0500   18.7394 C   0  0  0  0  0  0  0  0  0  0  0  0
    4.2015    2.0195   17.9514 C   0  0  0  0  0  0  0  0  0  0  0  0
 20 21  1  0  0  0
 21 22  1  0  0  0
 21 19  1  0  0  0
 19 13  1  0  0  0
 13  9  1  0  0  0
  9 10  1  0  0  0
 10 11  2  0  0  0
 10  2  1  0  0  0
  2  3  1  0  0  0
  3  4  1  0  0  0
  4  5  1  0  0  0
  5  6  1  0  0  0
  6  7  1  0  0  0
  7  8  2  0  0  0
  7  1  1  0  0  0
  1 49  1  0  0  0
 49 50  1  0  0  0
 50 51  2  0  0  0
 51 52  1  0  0  0
 52 53  2  0  0  0
 53 54  1  0  0  0
 54 55  2  0  0  0
  1 23  1  0  0  0
 23 24  1  0  0  0
 24 25  2  0  0  0
 24 27  1  0  0  0
 27 28  1  0  0  0
 28 29  1  0  0  0
 29 30  1  0  0  0
 30 31  1  0  0  0
 31 32  1  0  0  0
 32 33  2  0  0  0
 32 34  1  0  0  0
 34 35  1  0  0  0
 34 38  1  0  0  0
 38 39  1  0  0  0
 39 40  2  0  0  0
 40 41  1  0  0  0
 41 42  1  0  0  0
 42 43  2  0  0  0
 43 44  1  0  0  0
 44 45  2  0  0  0
 45 46  1  0  0  0
 46 47  2  0  0  0
 13 14  1  0  0  0
 14 15  1  0  0  0
 14 16  2  0  0  0
  6  2  1  0  0  0
 55 50  1  0  0  0
 31 27  1  0  0  0
 47 39  1  0  0  0
 47 42  1  0  0  0
  9 12  1  0  0  0
 23 26  1  0  0  0
 35 36  1  0  0  0
 35 37  1  0  0  0
 41 48  1  0  0  0
 15 17  1  0  0  0
 15 18  1  0  0  0
M  END
> <minimizedAffinity>
-9.25419

> <CNNscore>
0.2176364958

> <CNNaffinity>
7.0240845680

> <CNN_VS>
1.5286971331

> <CNNaffinity_variance>
0.3513914347

$$$$
[H]c1c([H])c([H])c(C([H])([H])[C@]([H])(C(=O)N2C([H])([H])C([H])([H])C([H])([H])[C@@]2([H])C(=O)N([H])[C@]([H])(C(=O)N([H])[H])C([H])([H])C([H])(C([H])([H])[H])C([H])([H])[H])N([H])C(=O)[C@@]2([H])N(C(=O)[C@@]([H])(N([H])[H])C([H])([H])c3c([H])n([H])c4c([H])c([H])c([H])c([H])c34)C([H])([H])C([H])([H])C2([H])[H])c([H])c1[H]


 55 59  0  0  0  0  0  0  0  0999 V2000
    4.5997    4.3421   18.0777 C   0  0  0  0  0  0  0  0  0  0  0  0
    3.3595    2.5654   14.7827 C   0  0  0  0  0  0  0  0  0  0  0  0
    2.2001    1.6086   14.9906 C   0  0  0  0  0  0  0  0  0  0  0  0
    2.7226    0.7691   16.1469 C   0  0  0  0  0  0  0  0  0  0  0  0
    3.7734    1.6302   16.8002 C   0  0  0  0  0  0  0  0  0  0  0  0
    3.7665    2.9339   16.0797 N   0  0  0  0  0  0  0  0  0  0  0  0
    4.1942    4.1174   16.6780 C   0  0  0  0  0  0  0  0  0  0  0  0
    4.2703    5.1459   15.9455 O   0  0  0  0  0  0  0  0  0  0  0  0
    1.9823    4.3886   13.8603 N   0  0  0  0  0  0  0  0  0  0  0  0
    3.0625    3.5102   13.7290 C   0  0  0  0  0  0  0  0  0  0  0  0
    3.7353    3.5727   12.6902 O   0  0  0  0  0  0  0  0  0  0  0  0
    1.3788    4.3931   14.7420 H   0  0  0  0  0  0  0  0  0  0  0  0
    1.5154    5.4103   12.9000 C   0  0  0  0  0  0  0  0  0  0  0  0
    2.2462    6.5987   13.4688 C   0  0  0  0  0  0  0  0  0  0  0  0
    2.2463    7.0457   14.7660 N   0  0  0  0  0  0  0  0  0  0  0  0
    2.9460    7.2568   12.6205 O   0  0  0  0  0  0  0  0  0  0  0  0
    2.6196    6.4626   15.5555 H   0  0  0  0  0  0  0  0  0  0  0  0
    1.8726    7.9898   14.9871 H   0  0  0  0  0  0  0  0  0  0  0  0
    0.0753    5.5921   12.8319 C   0  0  0  0  0  0  0  0  0  0  0  0
   -0.9644    4.3496   10.7907 C   0  0  0  0  0  0  0  0  0  0  0  0
   -0.6843    5.5247   11.5916 C   0  0  0  0  0  0  0  0  0  0  0  0
   -0.0471    6.5637   10.5867 C   0  0  0  0  0  0  0  0  0  0  0  0
    4.7776    5.7513   18.3244 N   0  0  0  0  0  0  0  0  0  0  0  0
    3.8372    6.5859   18.9912 C   0  0  0  0  0  0  0  0  0  0  0  0
    2.7797    6.0231   19.3851 O   0  0  0  0  0  0  0  0  0  0  0  0
    5.6565    6.1929   17.9915 H   0  0  0  0  0  0  0  0  0  0  0  0
    4.0993    7.9628   19.1840 C   0  0  0  0  0  0  0  0  0  0  0  0
    4.8735    8.6923   18.0674 C   0  0  0  0  0  0  0  0  0  0  0  0
    5.0319   10.1033   18.6576 C   0  0  0  0  0  0  0  0  0  0  0  0
    4.6940    9.8978   20.1471 C   0  0  0  0  0  0  0  0  0  0  0  0
    4.8414    8.4797   20.3047 N   0  0  0  0  0  0  0  0  0  0  0  0
    5.5365    7.7650   21.2764 C   0  0  0  0  0  0  0  0  0  0  0  0
    5.5883    6.4751   21.1675 O   0  0  0  0  0  0  0  0  0  0  0  0
    6.2564    8.2740   22.4694 C   0  0  0  0  0  0  0  0  0  0  0  0
    6.4744    7.2732   23.4581 N   0  0  0  0  0  0  0  0  0  0  0  0
    5.7116    7.1469   24.1346 H   0  0  0  0  0  0  0  0  0  0  0  0
    6.7962    6.3660   23.1041 H   0  0  0  0  0  0  0  0  0  0  0  0
    7.5605    8.9442   22.1181 C   0  0  0  0  0  0  0  0  0  0  0  0
    8.5321    7.9188   21.6373 C   0  0  0  0  0  0  0  0  0  0  0  0
    8.7489    7.6282   20.2679 C   0  0  0  0  0  0  0  0  0  0  0  0
    9.7174    6.7230   20.1769 N   0  0  0  0  0  0  0  0  0  0  0  0
   10.1733    6.3773   21.4001 C   0  0  0  0  0  0  0  0  0  0  0  0
   11.1311    5.5135   21.8559 C   0  0  0  0  0  0  0  0  0  0  0  0
   11.4303    5.3153   23.1835 C   0  0  0  0  0  0  0  0  0  0  0  0
   10.6756    6.0669   24.0926 C   0  0  0  0  0  0  0  0  0  0  0  0
    9.7174    6.9313   23.6473 C   0  0  0  0  0  0  0  0  0  0  0  0
    9.4251    7.1266   22.2983 C   0  0  0  0  0  0  0  0  0  0  0  0
   10.1339    6.2714   19.3096 H   0  0  0  0  0  0  0  0  0  0  0  0
    5.3365    3.3572   18.8096 C   0  0  0  0  0  0  0  0  0  0  0  0
    4.8780    2.6418   19.9896 C   0  0  0  0  0  0  0  0  0  0  0  0
    4.8131    1.2716   20.1088 C   0  0  0  0  0  0  0  0  0  0  0  0
    4.3260    0.6150   21.2214 C   0  0  0  0  0  0  0  0  0  0  0  0
    3.8800    1.3885   22.2708 C   0  0  0  0  0  0  0  0  0  0  0  0
    3.9347    2.7663   22.1792 C   0  0  0  0  0  0  0  0  0  0  0  0
    4.4136    3.4025   21.0836 C   0  0  0  0  0  0  0  0  0  0  0  0
 20 21  1  0  0  0
 21 22  1  0  0  0
 21 19  1  0  0  0
 19 13  1  0  0  0
 13  9  1  0  0  0
  9 10  1  0  0  0
 10 11  2  0  0  0
 10  2  1  0  0  0
  2  3  1  0  0  0
  3  4  1  0  0  0
  4  5  1  0  0  0
  5  6  1  0  0  0
  6  7  1  0  0  0
  7  8  2  0  0  0
  7  1  1  0  0  0
  1 49  1  0  0  0
 49 50  1  0  0  0
 50 51  2  0  0  0
 51 52  1  0  0  0
 52 53  2  0  0  0
 53 54  1  0  0  0
 54 55  2  0  0  0
  1 23  1  0  0  0
 23 24  1  0  0  0
 24 25  2  0  0  0
 24 27  1  0  0  0
 27 28  1  0  0  0
 28 29  1  0  0  0
 29 30  1  0  0  0
 30 31  1  0  0  0
 31 32  1  0  0  0
 32 33  2  0  0  0
 32 34  1  0  0  0
 34 35  1  0  0  0
 34 38  1  0  0  0
 38 39  1  0  0  0
 39 40  2  0  0  0
 40 41  1  0  0  0
 41 42  1  0  0  0
 42 43  2  0  0  0
 43 44  1  0  0  0
 44 45  2  0  0  0
 45 46  1  0  0  0
 46 47  2  0  0  0
 13 14  1  0  0  0
 14 15  1  0  0  0
 14 16  2  0  0  0
  6  2  1  0  0  0
 55 50  1  0  0  0
 31 27  1  0  0  0
 47 39  1  0  0  0
 47 42  1  0  0  0
  9 12  1  0  0  0
 23 26  1  0  0  0
 35 36  1  0  0  0
 35 37  1  0  0  0
 41 48  1  0  0  0
 15 17  1  0  0  0
 15 18  1  0  0  0
M  END
> <minimizedAffinity>
-9.42844

> <CNNscore>
0.2042427510

> <CNNaffinity>
7.2483658791

> <CNN_VS>
1.4804261923

> <CNNaffinity_variance>
0.2079921067

$$$$
[H]c1c([H])c([H])c(C([H])([H])[C@]([H])(C(=O)N2C([H])([H])C([H])([H])C([H])([H])[C@@]2([H])C(=O)N([H])[C@]([H])(C(=O)N([H])[H])C([H])([H])C([H])(C([H])([H])[H])C([H])([H])[H])N([H])C(=O)[C@@]2([H])N(C(=O)[C@@]([H])(N([H])[H])C([H])([H])c3c([H])n([H])c4c([H])c([H])c([H])c([H])c34)C([H])([H])C([H])([H])C2([H])[H])c([H])c1[H]


 55 59  0  0  0  0  0  0  0  0999 V2000
    4.2947    7.8240   14.3789 C   0  0  0  0  0  0  0  0  0  0  0  0
    4.4040    9.1025   18.1078 C   0  0  0  0  0  0  0  0  0  0  0  0
    3.1600    9.8540   18.5443 C   0  0  0  0  0  0  0  0  0  0  0  0
    3.0155   10.8568   17.4093 C   0  0  0  0  0  0  0  0  0  0  0  0
    3.7750   10.2449   16.2597 C   0  0  0  0  0  0  0  0  0  0  0  0
    4.2471    8.9098   16.7215 N   0  0  0  0  0  0  0  0  0  0  0  0
    4.5160    7.8681   15.8360 C   0  0  0  0  0  0  0  0  0  0  0  0
    5.0327    6.8167   16.3132 O   0  0  0  0  0  0  0  0  0  0  0  0
    5.9394    8.0498   19.7221 N   0  0  0  0  0  0  0  0  0  0  0  0
    4.7179    8.0437   19.0413 C   0  0  0  0  0  0  0  0  0  0  0  0
    3.9364    7.1082   19.2647 O   0  0  0  0  0  0  0  0  0  0  0  0
    6.6442    8.8409   19.5838 H   0  0  0  0  0  0  0  0  0  0  0  0
    6.4444    7.0624   20.6988 C   0  0  0  0  0  0  0  0  0  0  0  0
    5.3230    7.1493   21.7011 C   0  0  0  0  0  0  0  0  0  0  0  0
    4.6571    8.2716   22.1249 N   0  0  0  0  0  0  0  0  0  0  0  0
    4.9642    6.0274   22.2061 O   0  0  0  0  0  0  0  0  0  0  0  0
    4.0904    8.8636   21.4684 H   0  0  0  0  0  0  0  0  0  0  0  0
    4.7031    8.5531   23.1242 H   0  0  0  0  0  0  0  0  0  0  0  0
    7.7516    7.3535   21.2628 C   0  0  0  0  0  0  0  0  0  0  0  0
    8.5388    7.5625   23.7383 C   0  0  0  0  0  0  0  0  0  0  0  0
    8.2129    6.8203   22.5367 C   0  0  0  0  0  0  0  0  0  0  0  0
    9.4850    5.9298   22.2469 C   0  0  0  0  0  0  0  0  0  0  0  0
    3.9058    6.4961   13.9743 N   0  0  0  0  0  0  0  0  0  0  0  0
    2.5634    6.0649   13.7799 C   0  0  0  0  0  0  0  0  0  0  0  0
    1.6693    6.9308   13.9830 O   0  0  0  0  0  0  0  0  0  0  0  0
    4.6592    5.8002   13.8123 H   0  0  0  0  0  0  0  0  0  0  0  0
    2.2790    4.7365   13.3846 C   0  0  0  0  0  0  0  0  0  0  0  0
    0.8799    4.4644   12.7960 C   0  0  0  0  0  0  0  0  0  0  0  0
    0.9183    2.9438   12.5704 C   0  0  0  0  0  0  0  0  0  0  0  0
    2.1384    2.4993   13.4004 C   0  0  0  0  0  0  0  0  0  0  0  0
    2.3338    3.6127   14.2834 N   0  0  0  0  0  0  0  0  0  0  0  0
    2.5139    3.6261   15.6638 C   0  0  0  0  0  0  0  0  0  0  0  0
    2.5971    4.7738   16.2591 O   0  0  0  0  0  0  0  0  0  0  0  0
    2.6320    2.4801   16.5984 C   0  0  0  0  0  0  0  0  0  0  0  0
    1.9319    1.3233   16.1534 N   0  0  0  0  0  0  0  0  0  0  0  0
    0.9424    1.2739   16.4251 H   0  0  0  0  0  0  0  0  0  0  0  0
    2.0449    1.0941   15.1601 H   0  0  0  0  0  0  0  0  0  0  0  0
    4.0652    2.1283   16.9071 C   0  0  0  0  0  0  0  0  0  0  0  0
    4.4003    2.5783   18.2898 C   0  0  0  0  0  0  0  0  0  0  0  0
    4.9921    3.8316   18.5827 C   0  0  0  0  0  0  0  0  0  0  0  0
    5.0973    3.9505   19.9019 N   0  0  0  0  0  0  0  0  0  0  0  0
    4.6152    2.8546   20.5267 C   0  0  0  0  0  0  0  0  0  0  0  0
    4.4924    2.4749   21.8351 C   0  0  0  0  0  0  0  0  0  0  0  0
    3.9589    1.2771   22.2497 C   0  0  0  0  0  0  0  0  0  0  0  0
    3.5298    0.4200   21.2288 C   0  0  0  0  0  0  0  0  0  0  0  0
    3.6485    0.7901   19.9200 C   0  0  0  0  0  0  0  0  0  0  0  0
    4.1881    2.0090   19.5116 C   0  0  0  0  0  0  0  0  0  0  0  0
    5.4973    4.7525   20.4732 H   0  0  0  0  0  0  0  0  0  0  0  0
    4.9951    8.7001   13.4898 C   0  0  0  0  0  0  0  0  0  0  0  0
    6.2131    8.3893   12.7589 C   0  0  0  0  0  0  0  0  0  0  0  0
    6.2682    7.6916   11.5732 C   0  0  0  0  0  0  0  0  0  0  0  0
    7.4416    7.3641   10.9232 C   0  0  0  0  0  0  0  0  0  0  0  0
    8.6238    7.7650   11.5062 C   0  0  0  0  0  0  0  0  0  0  0  0
    8.5983    8.4680   12.6956 C   0  0  0  0  0  0  0  0  0  0  0  0
    7.4428    8.7847   13.3271 C   0  0  0  0  0  0  0  0  0  0  0  0
 20 21  1  0  0  0
 21 22  1  0  0  0
 21 19  1  0  0  0
 19 13  1  0  0  0
 13  9  1  0  0  0
  9 10  1  0  0  0
 10 11  2  0  0  0
 10  2  1  0  0  0
  2  3  1  0  0  0
  3  4  1  0  0  0
  4  5  1  0  0  0
  5  6  1  0  0  0
  6  7  1  0  0  0
  7  8  2  0  0  0
  7  1  1  0  0  0
  1 49  1  0  0  0
 49 50  1  0  0  0
 50 51  2  0  0  0
 51 52  1  0  0  0
 52 53  2  0  0  0
 53 54  1  0  0  0
 54 55  2  0  0  0
  1 23  1  0  0  0
 23 24  1  0  0  0
 24 25  2  0  0  0
 24 27  1  0  0  0
 27 28  1  0  0  0
 28 29  1  0  0  0
 29 30  1  0  0  0
 30 31  1  0  0  0
 31 32  1  0  0  0
 32 33  2  0  0  0
 32 34  1  0  0  0
 34 35  1  0  0  0
 34 38  1  0  0  0
 38 39  1  0  0  0
 39 40  2  0  0  0
 40 41  1  0  0  0
 41 42  1  0  0  0
 42 43  2  0  0  0
 43 44  1  0  0  0
 44 45  2  0  0  0
 45 46  1  0  0  0
 46 47  2  0  0  0
 13 14  1  0  0  0
 14 15  1  0  0  0
 14 16  2  0  0  0
  6  2  1  0  0  0
 55 50  1  0  0  0
 31 27  1  0  0  0
 47 39  1  0  0  0
 47 42  1  0  0  0
  9 12  1  0  0  0
 23 26  1  0  0  0
 35 36  1  0  0  0
 35 37  1  0  0  0
 41 48  1  0  0  0
 15 17  1  0  0  0
 15 18  1  0  0  0
M  END
> <minimizedAffinity>
-9.91639

> <CNNscore>
0.1989585161

> <CNNaffinity>
7.1377296448

> <CNN_VS>
1.4201121330

> <CNNaffinity_variance>
0.3817434013

$$$$
[H]c1c([H])c([H])c(C([H])([H])[C@]([H])(C(=O)N2C([H])([H])C([H])([H])C([H])([H])[C@@]2([H])C(=O)N([H])[C@]([H])(C(=O)N([H])[H])C([H])([H])C([H])(C([H])([H])[H])C([H])([H])[H])N([H])C(=O)[C@@]2([H])N(C(=O)[C@@]([H])(N([H])[H])C([H])([H])c3c([H])n([H])c4c([H])c([H])c([H])c([H])c34)C([H])([H])C([H])([H])C2([H])[H])c([H])c1[H]


 55 59  0  0  0  0  0  0  0  0999 V2000
    3.1401    4.2764   13.3531 C   0  0  0  0  0  0  0  0  0  0  0  0
    0.4991    4.6695   10.4510 C   0  0  0  0  0  0  0  0  0  0  0  0
   -0.7240    5.4844   10.8293 C   0  0  0  0  0  0  0  0  0  0  0  0
   -1.1307    4.8079   12.1299 C   0  0  0  0  0  0  0  0  0  0  0  0
    0.1235    4.1257   12.6143 C   0  0  0  0  0  0  0  0  0  0  0  0
    1.2049    4.4885   11.6564 N   0  0  0  0  0  0  0  0  0  0  0  0
    2.5501    4.4935   12.0194 C   0  0  0  0  0  0  0  0  0  0  0  0
    3.3999    4.6912   11.1034 O   0  0  0  0  0  0  0  0  0  0  0  0
    1.5366    6.4972    9.1647 N   0  0  0  0  0  0  0  0  0  0  0  0
    1.0941    5.1724    9.2328 C   0  0  0  0  0  0  0  0  0  0  0  0
    1.2268    4.4661    8.2232 O   0  0  0  0  0  0  0  0  0  0  0  0
    1.4653    7.1468   10.0100 H   0  0  0  0  0  0  0  0  0  0  0  0
    2.1565    7.1942    8.0185 C   0  0  0  0  0  0  0  0  0  0  0  0
    2.5944    8.4467    8.7319 C   0  0  0  0  0  0  0  0  0  0  0  0
    3.5716    9.3330    8.3548 N   0  0  0  0  0  0  0  0  0  0  0  0
    1.9647    8.6945    9.8202 O   0  0  0  0  0  0  0  0  0  0  0  0
    3.5080    9.8856    7.4641 H   0  0  0  0  0  0  0  0  0  0  0  0
    4.4030    9.4746    8.9619 H   0  0  0  0  0  0  0  0  0  0  0  0
    1.2764    7.4459    6.8900 C   0  0  0  0  0  0  0  0  0  0  0  0
   -0.9619    8.7416    6.5691 C   0  0  0  0  0  0  0  0  0  0  0  0
    0.4732    8.6525    6.7521 C   0  0  0  0  0  0  0  0  0  0  0  0
    1.0907    9.5026    5.5725 C   0  0  0  0  0  0  0  0  0  0  0  0
    3.6809    5.5108   13.8652 N   0  0  0  0  0  0  0  0  0  0  0  0
    2.9409    6.4824   14.5959 C   0  0  0  0  0  0  0  0  0  0  0  0
    1.7245    6.2161   14.7957 O   0  0  0  0  0  0  0  0  0  0  0  0
    4.6850    5.7083   13.6891 H   0  0  0  0  0  0  0  0  0  0  0  0
    3.5593    7.6689   15.0560 C   0  0  0  0  0  0  0  0  0  0  0  0
    4.8398    8.1208   14.3253 C   0  0  0  0  0  0  0  0  0  0  0  0
    5.2508    9.3602   15.1375 C   0  0  0  0  0  0  0  0  0  0  0  0
    4.4104    9.2287   16.4227 C   0  0  0  0  0  0  0  0  0  0  0  0
    4.0325    7.8451   16.4047 N   0  0  0  0  0  0  0  0  0  0  0  0
    4.1121    6.8929   17.4171 C   0  0  0  0  0  0  0  0  0  0  0  0
    3.7751    5.6734   17.1385 O   0  0  0  0  0  0  0  0  0  0  0  0
    4.5401    7.0667   18.8268 C   0  0  0  0  0  0  0  0  0  0  0  0
    3.4572    7.0108   19.7492 N   0  0  0  0  0  0  0  0  0  0  0  0
    2.9777    7.9027   19.9222 H   0  0  0  0  0  0  0  0  0  0  0  0
    2.7765    6.2613   19.5856 H   0  0  0  0  0  0  0  0  0  0  0  0
    5.6135    6.0887   19.2322 C   0  0  0  0  0  0  0  0  0  0  0  0
    5.4107    5.6906   20.6560 C   0  0  0  0  0  0  0  0  0  0  0  0
    5.6519    6.5552   21.7519 C   0  0  0  0  0  0  0  0  0  0  0  0
    5.3123    5.9233   22.8704 N   0  0  0  0  0  0  0  0  0  0  0  0
    4.8560    4.6804   22.6049 C   0  0  0  0  0  0  0  0  0  0  0  0
    4.3941    3.6461   23.3716 C   0  0  0  0  0  0  0  0  0  0  0  0
    3.9740    2.4356   22.8719 C   0  0  0  0  0  0  0  0  0  0  0  0
    4.0457    2.2978   21.4802 C   0  0  0  0  0  0  0  0  0  0  0  0
    4.5056    3.3244   20.7066 C   0  0  0  0  0  0  0  0  0  0  0  0
    4.9257    4.5488   21.2244 C   0  0  0  0  0  0  0  0  0  0  0  0
    5.3653    6.2642   23.8758 H   0  0  0  0  0  0  0  0  0  0  0  0
    3.6857    3.0085   13.7316 C   0  0  0  0  0  0  0  0  0  0  0  0
    3.5245    2.3531   15.0195 C   0  0  0  0  0  0  0  0  0  0  0  0
    2.5904    1.3817   15.3017 C   0  0  0  0  0  0  0  0  0  0  0  0
    2.4225    0.8097   16.5471 C   0  0  0  0  0  0  0  0  0  0  0  0
    3.2456    1.2456   17.5623 C   0  0  0  0  0  0  0  0  0  0  0  0
    4.1932    2.2185   17.3074 C   0  0  0  0  0  0  0  0  0  0  0  0
    4.3509    2.7749   16.0827 C   0  0  0  0  0  0  0  0  0  0  0  0
 20 21  1  0  0  0
 21 22  1  0  0  0
 21 19  1  0  0  0
 19 13  1  0  0  0
 13  9  1  0  0  0
  9 10  1  0  0  0
 10 11  2  0  0  0
 10  2  1  0  0  0
  2  3  1  0  0  0
  3  4  1  0  0  0
  4  5  1  0  0  0
  5  6  1  0  0  0
  6  7  1  0  0  0
  7  8  2  0  0  0
  7  1  1  0  0  0
  1 49  1  0  0  0
 49 50  1  0  0  0
 50 51  2  0  0  0
 51 52  1  0  0  0
 52 53  2  0  0  0
 53 54  1  0  0  0
 54 55  2  0  0  0
  1 23  1  0  0  0
 23 24  1  0  0  0
 24 25  2  0  0  0
 24 27  1  0  0  0
 27 28  1  0  0  0
 28 29  1  0  0  0
 29 30  1  0  0  0
 30 31  1  0  0  0
 31 32  1  0  0  0
 32 33  2  0  0  0
 32 34  1  0  0  0
 34 35  1  0  0  0
 34 38  1  0  0  0
 38 39  1  0  0  0
 39 40  2  0  0  0
 40 41  1  0  0  0
 41 42  1  0  0  0
 42 43  2  0  0  0
 43 44  1  0  0  0
 44 45  2  0  0  0
 45 46  1  0  0  0
 46 47  2  0  0  0
 13 14  1  0  0  0
 14 15  1  0  0  0
 14 16  2  0  0  0
  6  2  1  0  0  0
 55 50  1  0  0  0
 31 27  1  0  0  0
 47 39  1  0  0  0
 47 42  1  0  0  0
  9 12  1  0  0  0
 23 26  1  0  0  0
 35 36  1  0  0  0
 35 37  1  0  0  0
 41 48  1  0  0  0
 15 17  1  0  0  0
 15 18  1  0  0  0
M  END
> <minimizedAffinity>
-9.02884

> <CNNscore>
0.1967833191

> <CNNaffinity>
6.9806389809

> <CNN_VS>
1.3736733198

> <CNNaffinity_variance>
0.2514576614

$$$$
[H]Oc1c([H])c([H])c(C([H])([H])[C@@]2([H])C(=O)N([H])[C@]([H])(C([H])([H])c3c([H])n([H])c4c([H])c([H])c([H])c([H])c34)C(=O)N([H])[C@@]([H])(C([H])([H])c3c([H])c([H])c([H])c([H])c3[H])C(=O)N([H])[C@@]([H])(C([H])(C([H])([H])[H])C([H])([H])[H])C(=O)N([H])[C@@]([H])(C([H])([H])c3c([H])c([H])c([H])c([H])c3[H])C(=O)N([H])[C@@]([H])(C([H])([H])c3c([H])nc([H])n3[H])C(=O)N3C([H])([H])C([H])([H])C([H])([H])[C@@]3([H])C(=O)N2[H])c([H])c1[H]


 81 88  0  0  0  0  0  0  0  0999 V2000
    2.1298    5.2111   12.7378 C   0  0  0  0  0  0  0  0  0  0  0  0
    1.3023    5.8336   11.7523 N   0  0  0  0  0  0  0  0  0  0  0  0
    1.6082    6.9433   10.9233 C   0  0  0  0  0  0  0  0  0  0  0  0
    0.8111    7.9519   11.0702 O   0  0  0  0  0  0  0  0  0  0  0  0
    2.6723    7.0962    9.9522 C   0  0  0  0  0  0  0  0  0  0  0  0
    2.2911    7.5685    8.6475 N   0  0  0  0  0  0  0  0  0  0  0  0
    1.0751    7.5982    7.9726 C   0  0  0  0  0  0  0  0  0  0  0  0
    0.6289    8.7424    7.5917 O   0  0  0  0  0  0  0  0  0  0  0  0
    0.1720    6.4781    7.6012 C   0  0  0  0  0  0  0  0  0  0  0  0
    0.0234    6.4306    6.1408 N   0  0  0  0  0  0  0  0  0  0  0  0
    0.2389    5.3538    5.2909 C   0  0  0  0  0  0  0  0  0  0  0  0
   -0.7089    5.0764    4.4699 O   0  0  0  0  0  0  0  0  0  0  0  0
    1.4248    4.4627    5.1882 C   0  0  0  0  0  0  0  0  0  0  0  0
    1.2696    3.1801    5.7947 N   0  0  0  0  0  0  0  0  0  0  0  0
    1.1806    1.8505    5.4190 C   0  0  0  0  0  0  0  0  0  0  0  0
    2.3237    1.1832    5.4148 O   0  0  0  0  0  0  0  0  0  0  0  0
    0.1157    0.9595    5.0158 C   0  0  0  0  0  0  0  0  0  0  0  0
   -1.0465    1.5189    4.2488 C   0  0  0  0  0  0  0  0  0  0  0  0
   -2.0087    0.3431    4.2311 C   0  0  0  0  0  0  0  0  0  0  0  0
   -1.3963   -0.6621    5.1864 C   0  0  0  0  0  0  0  0  0  0  0  0
   -0.6097    0.2476    6.0477 N   0  0  0  0  0  0  0  0  0  0  0  0
   -0.6223    0.3737    7.4301 C   0  0  0  0  0  0  0  0  0  0  0  0
   -1.7643    0.5880    8.0113 O   0  0  0  0  0  0  0  0  0  0  0  0
    0.4825    0.3059    8.4189 C   0  0  0  0  0  0  0  0  0  0  0  0
    0.1691    1.1369    9.5524 N   0  0  0  0  0  0  0  0  0  0  0  0
    0.5335    2.4522    9.8419 C   0  0  0  0  0  0  0  0  0  0  0  0
   -0.3819    3.3593    9.8508 O   0  0  0  0  0  0  0  0  0  0  0  0
    1.9095    2.9812   10.1613 C   0  0  0  0  0  0  0  0  0  0  0  0
    2.0426    2.8696   11.5858 N   0  0  0  0  0  0  0  0  0  0  0  0
    2.4226    3.7795   12.5524 C   0  0  0  0  0  0  0  0  0  0  0  0
    3.1888    3.2826   13.4872 O   0  0  0  0  0  0  0  0  0  0  0  0
    0.3257    5.4122   11.6605 H   0  0  0  0  0  0  0  0  0  0  0  0
    3.1234    7.9818    8.0963 H   0  0  0  0  0  0  0  0  0  0  0  0
   -0.2910    7.3589    5.7108 H   0  0  0  0  0  0  0  0  0  0  0  0
    1.2241    3.2866    6.8968 H   0  0  0  0  0  0  0  0  0  0  0  0
   -0.4659    0.6604   10.2714 H   0  0  0  0  0  0  0  0  0  0  0  0
    1.7914    1.8779   11.9462 H   0  0  0  0  0  0  0  0  0  0  0  0
    2.2133    5.9912   15.1527 C   0  0  0  0  0  0  0  0  0  0  0  0
    1.3728    5.4209   14.0694 C   0  0  0  0  0  0  0  0  0  0  0  0
    0.0436    6.0633   13.8887 C   0  0  0  0  0  0  0  0  0  0  0  0
    3.8546    7.9043   10.4747 C   0  0  0  0  0  0  0  0  0  0  0  0
    5.1012    7.1719   10.5964 C   0  0  0  0  0  0  0  0  0  0  0  0
    6.3055    7.8832   10.5826 C   0  0  0  0  0  0  0  0  0  0  0  0
    7.5340    7.2453   10.6870 C   0  0  0  0  0  0  0  0  0  0  0  0
    7.6080    5.8783   10.8087 C   0  0  0  0  0  0  0  0  0  0  0  0
    6.4275    5.1517   10.8250 C   0  0  0  0  0  0  0  0  0  0  0  0
    5.2215    5.8071   10.7198 C   0  0  0  0  0  0  0  0  0  0  0  0
   -1.1485    6.5376    8.3019 C   0  0  0  0  0  0  0  0  0  0  0  0
   -2.3735    6.3957    7.5172 C   0  0  0  0  0  0  0  0  0  0  0  0
   -3.1924    7.4485    7.0817 C   0  0  0  0  0  0  0  0  0  0  0  0
   -4.2223    6.9665    6.3691 N   0  0  0  0  0  0  0  0  0  0  0  0
   -4.1428    5.6281    6.2998 C   0  0  0  0  0  0  0  0  0  0  0  0
   -4.9813    4.7041    5.6939 C   0  0  0  0  0  0  0  0  0  0  0  0
   -4.6781    3.3818    5.7959 C   0  0  0  0  0  0  0  0  0  0  0  0
   -3.5460    2.9841    6.4978 C   0  0  0  0  0  0  0  0  0  0  0  0
   -2.7302    3.9212    7.0897 C   0  0  0  0  0  0  0  0  0  0  0  0
   -3.0056    5.2619    7.0053 C   0  0  0  0  0  0  0  0  0  0  0  0
   -5.0016    7.5248    5.9144 H   0  0  0  0  0  0  0  0  0  0  0  0
    2.2289    4.6093    3.9521 C   0  0  0  0  0  0  0  0  0  0  0  0
    3.4434    5.4088    3.9518 C   0  0  0  0  0  0  0  0  0  0  0  0
    4.6417    4.8498    3.5983 C   0  0  0  0  0  0  0  0  0  0  0  0
    5.7782    5.6250    3.5792 C   0  0  0  0  0  0  0  0  0  0  0  0
    5.7942    6.9632    3.9005 C   0  0  0  0  0  0  0  0  0  0  0  0
    6.9410    7.7460    3.8819 O   0  0  0  0  0  0  0  0  0  0  0  0
    4.5594    7.4900    4.2524 C   0  0  0  0  0  0  0  0  0  0  0  0
    3.4104    6.7329    4.2780 C   0  0  0  0  0  0  0  0  0  0  0  0
    7.4767    7.7907    4.7533 H   0  0  0  0  0  0  0  0  0  0  0  0
    0.6089   -1.1684    8.8319 C   0  0  0  0  0  0  0  0  0  0  0  0
    1.8623   -1.8036    8.5089 C   0  0  0  0  0  0  0  0  0  0  0  0
    2.1059   -2.6627    7.4626 C   0  0  0  0  0  0  0  0  0  0  0  0
    3.3991   -3.0352    7.4837 N   0  0  0  0  0  0  0  0  0  0  0  0
    3.9717   -2.4142    8.5402 C   0  0  0  0  0  0  0  0  0  0  0  0
    3.0318   -1.6714    9.1531 N   0  0  0  0  0  0  0  0  0  0  0  0
    3.1541   -1.0635   10.0108 H   0  0  0  0  0  0  0  0  0  0  0  0
    2.9599    2.1770    9.4574 C   0  0  0  0  0  0  0  0  0  0  0  0
    3.8691    3.0133    8.6623 C   0  0  0  0  0  0  0  0  0  0  0  0
    5.1692    2.6160    8.4418 C   0  0  0  0  0  0  0  0  0  0  0  0
    6.0511    3.3914    7.7255 C   0  0  0  0  0  0  0  0  0  0  0  0
    5.6585    4.6005    7.2018 C   0  0  0  0  0  0  0  0  0  0  0  0
    4.3597    5.0239    7.4076 C   0  0  0  0  0  0  0  0  0  0  0  0
    3.5038    4.2253    8.1276 C   0  0  0  0  0  0  0  0  0  0  0  0
 38 39  1  0  0  0
 39 40  1  0  0  0
 39  1  1  0  0  0
  1  2  1  0  0  0
  2  3  1  0  0  0
  3  4  2  0  0  0
  3  5  1  0  0  0
  5 41  1  0  0  0
 41 42  1  0  0  0
 42 43  2  0  0  0
 43 44  1  0  0  0
 44 45  2  0  0  0
 45 46  1  0  0  0
 46 47  2  0  0  0
  5  6  1  0  0  0
  6  7  1  0  0  0
  7  8  2  0  0  0
  7  9  1  0  0  0
  9 48  1  0  0  0
 48 49  1  0  0  0
 49 50  2  0  0  0
 50 51  1  0  0  0
 51 52  1  0  0  0
 52 53  2  0  0  0
 53 54  1  0  0  0
 54 55  2  0  0  0
 55 56  1  0  0  0
 56 57  2  0  0  0
  9 10  1  0  0  0
 10 11  1  0  0  0
 11 12  2  0  0  0
 11 13  1  0  0  0
 13 59  1  0  0  0
 59 60  1  0  0  0
 60 61  2  0  0  0
 61 62  1  0  0  0
 62 63  2  0  0  0
 63 64  1  0  0  0
 63 65  1  0  0  0
 65 66  2  0  0  0
 13 14  1  0  0  0
 14 15  1  0  0  0
 15 16  2  0  0  0
 15 17  1  0  0  0
 17 18  1  0  0  0
 18 19  1  0  0  0
 19 20  1  0  0  0
 20 21  1  0  0  0
 21 22  1  0  0  0
 22 23  2  0  0  0
 22 24  1  0  0  0
 24 68  1  0  0  0
 68 69  1  0  0  0
 69 70  2  0  0  0
 70 71  1  0  0  0
 71 72  2  0  0  0
 72 73  1  0  0  0
 24 25  1  0  0  0
 25 26  1  0  0  0
 26 27  2  0  0  0
 26 28  1  0  0  0
 28 75  1  0  0  0
 75 76  1  0  0  0
 76 77  2  0  0  0
 77 78  1  0  0  0
 78 79  2  0  0  0
 79 80  1  0  0  0
 80 81  2  0  0  0
 28 29  1  0  0  0
 29 30  1  0  0  0
 30 31  2  0  0  0
 30  1  1  0  0  0
 47 42  1  0  0  0
 57 49  1  0  0  0
 66 60  1  0  0  0
 21 17  1  0  0  0
 73 69  1  0  0  0
 81 76  1  0  0  0
 57 52  1  0  0  0
  2 32  1  0  0  0
  6 33  1  0  0  0
 51 58  1  0  0  0
 10 34  1  0  0  0
 64 67  1  0  0  0
 14 35  1  0  0  0
 73 74  1  0  0  0
 25 36  1  0  0  0
 29 37  1  0  0  0
M  END
> <minimizedAffinity>
-5.48244

> <CNNscore>
0.2450003475

> <CNNaffinity>
7.3034391403

> <CNN_VS>
1.7893451452

> <CNNaffinity_variance>
2.3748679161

$$$$
[H]Oc1c([H])c([H])c(C([H])([H])[C@@]2([H])C(=O)N([H])[C@]([H])(C([H])([H])c3c([H])n([H])c4c([H])c([H])c([H])c([H])c34)C(=O)N([H])[C@@]([H])(C([H])([H])c3c([H])c([H])c([H])c([H])c3[H])C(=O)N([H])[C@@]([H])(C([H])(C([H])([H])[H])C([H])([H])[H])C(=O)N([H])[C@@]([H])(C([H])([H])c3c([H])c([H])c([H])c([H])c3[H])C(=O)N([H])[C@@]([H])(C([H])([H])c3c([H])nc([H])n3[H])C(=O)N3C([H])([H])C([H])([H])C([H])([H])[C@@]3([H])C(=O)N2[H])c([H])c1[H]


 81 88  0  0  0  0  0  0  0  0999 V2000
    4.9887    5.6077   10.7432 C   0  0  0  0  0  0  0  0  0  0  0  0
    5.0671    6.0155    9.3754 N   0  0  0  0  0  0  0  0  0  0  0  0
    5.7198    5.3597    8.3001 C   0  0  0  0  0  0  0  0  0  0  0  0
    6.6411    6.0656    7.7281 O   0  0  0  0  0  0  0  0  0  0  0  0
    5.4974    4.0316    7.7659 C   0  0  0  0  0  0  0  0  0  0  0  0
    5.3286    3.9305    6.3404 N   0  0  0  0  0  0  0  0  0  0  0  0
    4.9871    4.8585    5.3621 C   0  0  0  0  0  0  0  0  0  0  0  0
    5.8210    5.0521    4.4026 O   0  0  0  0  0  0  0  0  0  0  0  0
    3.7649    5.6945    5.2371 C   0  0  0  0  0  0  0  0  0  0  0  0
    3.0758    5.3720    3.9809 N   0  0  0  0  0  0  0  0  0  0  0  0
    1.7511    4.9961    3.8009 C   0  0  0  0  0  0  0  0  0  0  0  0
    1.0864    5.6528    2.9199 O   0  0  0  0  0  0  0  0  0  0  0  0
    0.9781    3.9270    4.4868 C   0  0  0  0  0  0  0  0  0  0  0  0
    0.0822    4.3854    5.4988 N   0  0  0  0  0  0  0  0  0  0  0  0
   -1.2807    4.4716    5.7269 C   0  0  0  0  0  0  0  0  0  0  0  0
   -1.8123    3.4538    6.3851 O   0  0  0  0  0  0  0  0  0  0  0  0
   -2.3208    5.4288    5.4234 C   0  0  0  0  0  0  0  0  0  0  0  0
   -2.2238    6.2280    4.1569 C   0  0  0  0  0  0  0  0  0  0  0  0
   -3.3451    7.2380    4.3339 C   0  0  0  0  0  0  0  0  0  0  0  0
   -3.7933    7.0586    5.7710 C   0  0  0  0  0  0  0  0  0  0  0  0
   -2.5531    6.5085    6.3605 N   0  0  0  0  0  0  0  0  0  0  0  0
   -1.8371    6.9508    7.4645 C   0  0  0  0  0  0  0  0  0  0  0  0
   -1.4601    8.1939    7.4872 O   0  0  0  0  0  0  0  0  0  0  0  0
   -1.3996    6.2315    8.6869 C   0  0  0  0  0  0  0  0  0  0  0  0
   -0.1777    6.8130    9.1792 N   0  0  0  0  0  0  0  0  0  0  0  0
    1.1514    6.4409    8.9749 C   0  0  0  0  0  0  0  0  0  0  0  0
    1.9142    7.2235    8.2919 O   0  0  0  0  0  0  0  0  0  0  0  0
    1.8488    5.1967    9.4658 C   0  0  0  0  0  0  0  0  0  0  0  0
    2.3787    5.5371   10.7553 N   0  0  0  0  0  0  0  0  0  0  0  0
    3.6404    5.4041   11.3003 C   0  0  0  0  0  0  0  0  0  0  0  0
    3.6488    5.0263   12.5513 O   0  0  0  0  0  0  0  0  0  0  0  0
    4.5898    6.9459    9.1602 H   0  0  0  0  0  0  0  0  0  0  0  0
    5.5092    2.9312    5.9712 H   0  0  0  0  0  0  0  0  0  0  0  0
    3.7023    5.4454    3.1163 H   0  0  0  0  0  0  0  0  0  0  0  0
    0.6563    4.7710    6.3647 H   0  0  0  0  0  0  0  0  0  0  0  0
   -0.3298    7.6856    9.7814 H   0  0  0  0  0  0  0  0  0  0  0  0
    1.6307    5.9806   11.4036 H   0  0  0  0  0  0  0  0  0  0  0  0
    7.1099    6.9621   11.0798 C   0  0  0  0  0  0  0  0  0  0  0  0
    5.7126    6.7281   11.5248 C   0  0  0  0  0  0  0  0  0  0  0  0
    4.8832    7.9515   11.6911 C   0  0  0  0  0  0  0  0  0  0  0  0
    6.5223    3.0095    8.2438 C   0  0  0  0  0  0  0  0  0  0  0  0
    6.2326    1.6311    7.8957 C   0  0  0  0  0  0  0  0  0  0  0  0
    6.3278    0.6503    8.8883 C   0  0  0  0  0  0  0  0  0  0  0  0
    6.0721   -0.6879    8.6225 C   0  0  0  0  0  0  0  0  0  0  0  0
    5.7128   -1.0977    7.3609 C   0  0  0  0  0  0  0  0  0  0  0  0
    5.6116   -0.1436    6.3602 C   0  0  0  0  0  0  0  0  0  0  0  0
    5.8704    1.1774    6.6485 C   0  0  0  0  0  0  0  0  0  0  0  0
    4.0446    7.1583    5.3685 C   0  0  0  0  0  0  0  0  0  0  0  0
    4.7869    7.8355    4.3068 C   0  0  0  0  0  0  0  0  0  0  0  0
    4.3123    8.0900    3.0113 C   0  0  0  0  0  0  0  0  0  0  0  0
    5.2424    8.7464    2.3007 N   0  0  0  0  0  0  0  0  0  0  0  0
    6.3337    8.9506    3.0556 C   0  0  0  0  0  0  0  0  0  0  0  0
    7.5410    9.5613    2.7505 C   0  0  0  0  0  0  0  0  0  0  0  0
    8.5061    9.6150    3.7079 C   0  0  0  0  0  0  0  0  0  0  0  0
    8.2680    9.0629    4.9614 C   0  0  0  0  0  0  0  0  0  0  0  0
    7.0611    8.4626    5.2387 C   0  0  0  0  0  0  0  0  0  0  0  0
    6.0663    8.3924    4.2974 C   0  0  0  0  0  0  0  0  0  0  0  0
    5.1658    9.0711    1.2935 H   0  0  0  0  0  0  0  0  0  0  0  0
    0.6186    2.7599    3.6473 C   0  0  0  0  0  0  0  0  0  0  0  0
    0.9563    1.4115    4.0739 C   0  0  0  0  0  0  0  0  0  0  0  0
   -0.0060    0.5856    4.5890 C   0  0  0  0  0  0  0  0  0  0  0  0
    0.3237   -0.6960    4.9657 C   0  0  0  0  0  0  0  0  0  0  0  0
    1.5916   -1.2206    4.8571 C   0  0  0  0  0  0  0  0  0  0  0  0
    1.9250   -2.5138    5.2376 O   0  0  0  0  0  0  0  0  0  0  0  0
    2.5360   -0.3509    4.3302 C   0  0  0  0  0  0  0  0  0  0  0  0
    2.2280    0.9346    3.9471 C   0  0  0  0  0  0  0  0  0  0  0  0
    2.2307   -2.6394    6.2067 H   0  0  0  0  0  0  0  0  0  0  0  0
   -2.5350    6.3801    9.7109 C   0  0  0  0  0  0  0  0  0  0  0  0
   -3.3672    5.2174    9.8959 C   0  0  0  0  0  0  0  0  0  0  0  0
   -4.1592    4.6110    8.9488 C   0  0  0  0  0  0  0  0  0  0  0  0
   -4.7733    3.5461    9.4969 N   0  0  0  0  0  0  0  0  0  0  0  0
   -4.3714    3.4792   10.7867 C   0  0  0  0  0  0  0  0  0  0  0  0
   -3.5203    4.4958   11.0167 N   0  0  0  0  0  0  0  0  0  0  0  0
   -3.0270    4.7257   11.9245 H   0  0  0  0  0  0  0  0  0  0  0  0
    0.8831    4.0551    9.5643 C   0  0  0  0  0  0  0  0  0  0  0  0
    1.5084    2.7620    9.2563 C   0  0  0  0  0  0  0  0  0  0  0  0
    2.1238    2.0307   10.2480 C   0  0  0  0  0  0  0  0  0  0  0  0
    2.7421    0.8307    9.9842 C   0  0  0  0  0  0  0  0  0  0  0  0
    2.7659    0.3180    8.7087 C   0  0  0  0  0  0  0  0  0  0  0  0
    2.1563    1.0306    7.6943 C   0  0  0  0  0  0  0  0  0  0  0  0
    1.5472    2.2262    7.9916 C   0  0  0  0  0  0  0  0  0  0  0  0
 38 39  1  0  0  0
 39 40  1  0  0  0
 39  1  1  0  0  0
  1  2  1  0  0  0
  2  3  1  0  0  0
  3  4  2  0  0  0
  3  5  1  0  0  0
  5 41  1  0  0  0
 41 42  1  0  0  0
 42 43  2  0  0  0
 43 44  1  0  0  0
 44 45  2  0  0  0
 45 46  1  0  0  0
 46 47  2  0  0  0
  5  6  1  0  0  0
  6  7  1  0  0  0
  7  8  2  0  0  0
  7  9  1  0  0  0
  9 48  1  0  0  0
 48 49  1  0  0  0
 49 50  2  0  0  0
 50 51  1  0  0  0
 51 52  1  0  0  0
 52 53  2  0  0  0
 53 54  1  0  0  0
 54 55  2  0  0  0
 55 56  1  0  0  0
 56 57  2  0  0  0
  9 10  1  0  0  0
 10 11  1  0  0  0
 11 12  2  0  0  0
 11 13  1  0  0  0
 13 59  1  0  0  0
 59 60  1  0  0  0
 60 61  2  0  0  0
 61 62  1  0  0  0
 62 63  2  0  0  0
 63 64  1  0  0  0
 63 65  1  0  0  0
 65 66  2  0  0  0
 13 14  1  0  0  0
 14 15  1  0  0  0
 15 16  2  0  0  0
 15 17  1  0  0  0
 17 18  1  0  0  0
 18 19  1  0  0  0
 19 20  1  0  0  0
 20 21  1  0  0  0
 21 22  1  0  0  0
 22 23  2  0  0  0
 22 24  1  0  0  0
 24 68  1  0  0  0
 68 69  1  0  0  0
 69 70  2  0  0  0
 70 71  1  0  0  0
 71 72  2  0  0  0
 72 73  1  0  0  0
 24 25  1  0  0  0
 25 26  1  0  0  0
 26 27  2  0  0  0
 26 28  1  0  0  0
 28 75  1  0  0  0
 75 76  1  0  0  0
 76 77  2  0  0  0
 77 78  1  0  0  0
 78 79  2  0  0  0
 79 80  1  0  0  0
 80 81  2  0  0  0
 28 29  1  0  0  0
 29 30  1  0  0  0
 30 31  2  0  0  0
 30  1  1  0  0  0
 47 42  1  0  0  0
 57 49  1  0  0  0
 66 60  1  0  0  0
 21 17  1  0  0  0
 73 69  1  0  0  0
 81 76  1  0  0  0
 57 52  1  0  0  0
  2 32  1  0  0  0
  6 33  1  0  0  0
 51 58  1  0  0  0
 10 34  1  0  0  0
 64 67  1  0  0  0
 14 35  1  0  0  0
 73 74  1  0  0  0
 25 36  1  0  0  0
 29 37  1  0  0  0
M  END
> <minimizedAffinity>
-6.79828

> <CNNscore>
0.1996297687

> <CNNaffinity>
6.9453973770

> <CNN_VS>
1.3865081072

> <CNNaffinity_variance>
1.7286351919

$$$$
[H]Oc1c([H])c([H])c(C([H])([H])[C@@]2([H])C(=O)N([H])[C@]([H])(C([H])([H])c3c([H])n([H])c4c([H])c([H])c([H])c([H])c34)C(=O)N([H])[C@@]([H])(C([H])([H])c3c([H])c([H])c([H])c([H])c3[H])C(=O)N([H])[C@@]([H])(C([H])(C([H])([H])[H])C([H])([H])[H])C(=O)N([H])[C@@]([H])(C([H])([H])c3c([H])c([H])c([H])c([H])c3[H])C(=O)N([H])[C@@]([H])(C([H])([H])c3c([H])nc([H])n3[H])C(=O)N3C([H])([H])C([H])([H])C([H])([H])[C@@]3([H])C(=O)N2[H])c([H])c1[H]


 81 88  0  0  0  0  0  0  0  0999 V2000
    6.0138    3.4687    7.0491 C   0  0  0  0  0  0  0  0  0  0  0  0
    5.3444    4.1980    8.0802 N   0  0  0  0  0  0  0  0  0  0  0  0
    5.1422    5.5989    8.1748 C   0  0  0  0  0  0  0  0  0  0  0  0
    5.6543    6.1394    9.2330 O   0  0  0  0  0  0  0  0  0  0  0  0
    4.4520    6.4890    7.2636 C   0  0  0  0  0  0  0  0  0  0  0  0
    3.4740    7.3717    7.8423 N   0  0  0  0  0  0  0  0  0  0  0  0
    2.7740    7.3470    9.0442 C   0  0  0  0  0  0  0  0  0  0  0  0
    2.9132    8.3478    9.8394 O   0  0  0  0  0  0  0  0  0  0  0  0
    1.8511    6.3128    9.5800 C   0  0  0  0  0  0  0  0  0  0  0  0
    0.5214    6.9011    9.7870 N   0  0  0  0  0  0  0  0  0  0  0  0
   -0.6998    6.4548    9.2993 C   0  0  0  0  0  0  0  0  0  0  0  0
   -1.6430    6.3197   10.1603 O   0  0  0  0  0  0  0  0  0  0  0  0
   -1.0825    6.1075    7.9050 C   0  0  0  0  0  0  0  0  0  0  0  0
   -1.1416    4.7090    7.6266 N   0  0  0  0  0  0  0  0  0  0  0  0
   -2.0861    3.7426    7.3248 C   0  0  0  0  0  0  0  0  0  0  0  0
   -2.2841    3.5247    6.0344 O   0  0  0  0  0  0  0  0  0  0  0  0
   -2.9486    2.8671    8.0862 C   0  0  0  0  0  0  0  0  0  0  0  0
   -3.4847    3.3440    9.4042 C   0  0  0  0  0  0  0  0  0  0  0  0
   -4.1251    2.0830    9.9597 C   0  0  0  0  0  0  0  0  0  0  0  0
   -3.6765    0.9835    9.0175 C   0  0  0  0  0  0  0  0  0  0  0  0
   -2.4260    1.5816    8.5010 N   0  0  0  0  0  0  0  0  0  0  0  0
   -1.1449    1.0472    8.4756 C   0  0  0  0  0  0  0  0  0  0  0  0
   -0.6410    0.6208    9.5946 O   0  0  0  0  0  0  0  0  0  0  0  0
   -0.1947    0.8626    7.3504 C   0  0  0  0  0  0  0  0  0  0  0  0
    1.1570    0.9437    7.8404 N   0  0  0  0  0  0  0  0  0  0  0  0
    2.0447    2.0194    7.8808 C   0  0  0  0  0  0  0  0  0  0  0  0
    2.3773    2.5033    9.0280 O   0  0  0  0  0  0  0  0  0  0  0  0
    2.6982    2.7227    6.7174 C   0  0  0  0  0  0  0  0  0  0  0  0
    3.9225    2.0132    6.4785 N   0  0  0  0  0  0  0  0  0  0  0  0
    5.2279    2.4425    6.3427 C   0  0  0  0  0  0  0  0  0  0  0  0
    5.9035    1.8235    5.4110 O   0  0  0  0  0  0  0  0  0  0  0  0
    4.9793    3.5983    8.8845 H   0  0  0  0  0  0  0  0  0  0  0  0
    3.2519    8.2178    7.2081 H   0  0  0  0  0  0  0  0  0  0  0  0
    0.5316    7.7828   10.3936 H   0  0  0  0  0  0  0  0  0  0  0  0
   -0.1210    4.2775    7.6418 H   0  0  0  0  0  0  0  0  0  0  0  0
    1.5177    0.0260    8.2585 H   0  0  0  0  0  0  0  0  0  0  0  0
    3.7682    0.9429    6.3938 H   0  0  0  0  0  0  0  0  0  0  0  0
    8.4543    3.6281    7.7314 C   0  0  0  0  0  0  0  0  0  0  0  0
    7.2171    2.8072    7.7595 C   0  0  0  0  0  0  0  0  0  0  0  0
    6.8655    2.2293    9.0841 C   0  0  0  0  0  0  0  0  0  0  0  0
    5.3937    7.2751    6.3587 C   0  0  0  0  0  0  0  0  0  0  0  0
    5.9497    6.5297    5.2449 C   0  0  0  0  0  0  0  0  0  0  0  0
    7.3397    6.4682    5.1012 C   0  0  0  0  0  0  0  0  0  0  0  0
    7.9379    5.7794    4.0549 C   0  0  0  0  0  0  0  0  0  0  0  0
    7.1754    5.1279    3.1153 C   0  0  0  0  0  0  0  0  0  0  0  0
    5.7952    5.1745    3.2369 C   0  0  0  0  0  0  0  0  0  0  0  0
    5.2254    5.8642    4.2831 C   0  0  0  0  0  0  0  0  0  0  0  0
    2.3738    5.6491   10.8147 C   0  0  0  0  0  0  0  0  0  0  0  0
    2.2500    6.3404   12.0967 C   0  0  0  0  0  0  0  0  0  0  0  0
    1.1165    6.3331   12.9236 C   0  0  0  0  0  0  0  0  0  0  0  0
    1.3507    7.0520   14.0323 N   0  0  0  0  0  0  0  0  0  0  0  0
    2.5964    7.5516   13.9979 C   0  0  0  0  0  0  0  0  0  0  0  0
    3.2697    8.3609   14.9009 C   0  0  0  0  0  0  0  0  0  0  0  0
    4.5398    8.7507   14.6078 C   0  0  0  0  0  0  0  0  0  0  0  0
    5.1339    8.3357   13.4214 C   0  0  0  0  0  0  0  0  0  0  0  0
    4.4440    7.5325   12.5423 C   0  0  0  0  0  0  0  0  0  0  0  0
    3.1632    7.1202   12.8072 C   0  0  0  0  0  0  0  0  0  0  0  0
    0.6797    7.2240   14.8360 H   0  0  0  0  0  0  0  0  0  0  0  0
   -2.0351    7.0373    7.2537 C   0  0  0  0  0  0  0  0  0  0  0  0
   -1.5972    7.9052    6.1724 C   0  0  0  0  0  0  0  0  0  0  0  0
   -0.7303    8.9356    6.4179 C   0  0  0  0  0  0  0  0  0  0  0  0
   -0.3057    9.7333    5.3804 C   0  0  0  0  0  0  0  0  0  0  0  0
   -0.7041    9.5618    4.0741 C   0  0  0  0  0  0  0  0  0  0  0  0
   -0.2764   10.3669    3.0266 O   0  0  0  0  0  0  0  0  0  0  0  0
   -1.5820    8.5067    3.8692 C   0  0  0  0  0  0  0  0  0  0  0  0
   -2.0192    7.6966    4.8922 C   0  0  0  0  0  0  0  0  0  0  0  0
   -0.8458   11.1937    2.8252 H   0  0  0  0  0  0  0  0  0  0  0  0
   -0.4856   -0.5239    6.7563 C   0  0  0  0  0  0  0  0  0  0  0  0
   -1.4908   -0.5639    5.7235 C   0  0  0  0  0  0  0  0  0  0  0  0
   -2.0604   -1.6871    5.1702 C   0  0  0  0  0  0  0  0  0  0  0  0
   -2.9672   -1.3180    4.2466 N   0  0  0  0  0  0  0  0  0  0  0  0
   -2.9710    0.0343    4.2153 C   0  0  0  0  0  0  0  0  0  0  0  0
   -2.0735    0.4796    5.1136 N   0  0  0  0  0  0  0  0  0  0  0  0
   -1.8344    1.4864    5.3355 H   0  0  0  0  0  0  0  0  0  0  0  0
    1.8093    2.6847    5.5116 C   0  0  0  0  0  0  0  0  0  0  0  0
    1.7586    3.9744    4.8100 C   0  0  0  0  0  0  0  0  0  0  0  0
    1.6064    5.1472    5.5158 C   0  0  0  0  0  0  0  0  0  0  0  0
    1.5272    6.3666    4.8843 C   0  0  0  0  0  0  0  0  0  0  0  0
    1.5979    6.4541    3.5140 C   0  0  0  0  0  0  0  0  0  0  0  0
    1.7505    5.2933    2.7807 C   0  0  0  0  0  0  0  0  0  0  0  0
    1.8265    4.0912    3.4425 C   0  0  0  0  0  0  0  0  0  0  0  0
 38 39  1  0  0  0
 39 40  1  0  0  0
 39  1  1  0  0  0
  1  2  1  0  0  0
  2  3  1  0  0  0
  3  4  2  0  0  0
  3  5  1  0  0  0
  5 41  1  0  0  0
 41 42  1  0  0  0
 42 43  2  0  0  0
 43 44  1  0  0  0
 44 45  2  0  0  0
 45 46  1  0  0  0
 46 47  2  0  0  0
  5  6  1  0  0  0
  6  7  1  0  0  0
  7  8  2  0  0  0
  7  9  1  0  0  0
  9 48  1  0  0  0
 48 49  1  0  0  0
 49 50  2  0  0  0
 50 51  1  0  0  0
 51 52  1  0  0  0
 52 53  2  0  0  0
 53 54  1  0  0  0
 54 55  2  0  0  0
 55 56  1  0  0  0
 56 57  2  0  0  0
  9 10  1  0  0  0
 10 11  1  0  0  0
 11 12  2  0  0  0
 11 13  1  0  0  0
 13 59  1  0  0  0
 59 60  1  0  0  0
 60 61  2  0  0  0
 61 62  1  0  0  0
 62 63  2  0  0  0
 63 64  1  0  0  0
 63 65  1  0  0  0
 65 66  2  0  0  0
 13 14  1  0  0  0
 14 15  1  0  0  0
 15 16  2  0  0  0
 15 17  1  0  0  0
 17 18  1  0  0  0
 18 19  1  0  0  0
 19 20  1  0  0  0
 20 21  1  0  0  0
 21 22  1  0  0  0
 22 23  2  0  0  0
 22 24  1  0  0  0
 24 68  1  0  0  0
 68 69  1  0  0  0
 69 70  2  0  0  0
 70 71  1  0  0  0
 71 72  2  0  0  0
 72 73  1  0  0  0
 24 25  1  0  0  0
 25 26  1  0  0  0
 26 27  2  0  0  0
 26 28  1  0  0  0
 28 75  1  0  0  0
 75 76  1  0  0  0
 76 77  2  0  0  0
 77 78  1  0  0  0
 78 79  2  0  0  0
 79 80  1  0  0  0
 80 81  2  0  0  0
 28 29  1  0  0  0
 29 30  1  0  0  0
 30 31  2  0  0  0
 30  1  1  0  0  0
 47 42  1  0  0  0
 57 49  1  0  0  0
 66 60  1  0  0  0
 21 17  1  0  0  0
 73 69  1  0  0  0
 81 76  1  0  0  0
 57 52  1  0  0  0
  2 32  1  0  0  0
  6 33  1  0  0  0
 51 58  1  0  0  0
 10 34  1  0  0  0
 64 67  1  0  0  0
 14 35  1  0  0  0
 73 74  1  0  0  0
 25 36  1  0  0  0
 29 37  1  0  0  0
M  END
> <minimizedAffinity>
-6.10180

> <CNNscore>
0.1779018790

> <CNNaffinity>
7.1037535667

> <CNN_VS>
1.2637710571

> <CNNaffinity_variance>
1.9645602703

$$$$
[H]Oc1c([H])c([H])c(C([H])([H])[C@@]2([H])C(=O)N([H])[C@]([H])(C([H])([H])c3c([H])n([H])c4c([H])c([H])c([H])c([H])c34)C(=O)N([H])[C@@]([H])(C([H])([H])c3c([H])c([H])c([H])c([H])c3[H])C(=O)N([H])[C@@]([H])(C([H])(C([H])([H])[H])C([H])([H])[H])C(=O)N([H])[C@@]([H])(C([H])([H])c3c([H])c([H])c([H])c([H])c3[H])C(=O)N([H])[C@@]([H])(C([H])([H])c3c([H])nc([H])n3[H])C(=O)N3C([H])([H])C([H])([H])C([H])([H])[C@@]3([H])C(=O)N2[H])c([H])c1[H]


 81 88  0  0  0  0  0  0  0  0999 V2000
    2.3095   -0.6495    8.8887 C   0  0  0  0  0  0  0  0  0  0  0  0
    1.2282    0.2694    8.7164 N   0  0  0  0  0  0  0  0  0  0  0  0
    0.4953    0.9596    9.7158 C   0  0  0  0  0  0  0  0  0  0  0  0
   -0.7741    0.7085    9.7123 O   0  0  0  0  0  0  0  0  0  0  0  0
    0.9676    1.8905   10.7203 C   0  0  0  0  0  0  0  0  0  0  0  0
    0.2571    3.1371   10.8283 N   0  0  0  0  0  0  0  0  0  0  0  0
   -0.5851    3.8220    9.9583 C   0  0  0  0  0  0  0  0  0  0  0  0
   -1.7813    4.0743   10.3567 O   0  0  0  0  0  0  0  0  0  0  0  0
   -0.3166    4.3341    8.5894 C   0  0  0  0  0  0  0  0  0  0  0  0
   -0.4915    5.7922    8.5674 N   0  0  0  0  0  0  0  0  0  0  0  0
    0.4081    6.7579    8.1355 C   0  0  0  0  0  0  0  0  0  0  0  0
   -0.0397    7.6194    7.2950 O   0  0  0  0  0  0  0  0  0  0  0  0
    1.8346    6.9455    8.5108 C   0  0  0  0  0  0  0  0  0  0  0  0
    2.7780    6.4942    7.5395 N   0  0  0  0  0  0  0  0  0  0  0  0
    3.7200    7.0227    6.6734 C   0  0  0  0  0  0  0  0  0  0  0  0
    4.9544    7.0872    7.1466 O   0  0  0  0  0  0  0  0  0  0  0  0
    3.7068    7.5422    5.3242 C   0  0  0  0  0  0  0  0  0  0  0  0
    2.4814    8.2563    4.8340 C   0  0  0  0  0  0  0  0  0  0  0  0
    2.7843    8.4245    3.3545 C   0  0  0  0  0  0  0  0  0  0  0  0
    4.0240    7.5831    3.1236 C   0  0  0  0  0  0  0  0  0  0  0  0
    3.8847    6.6107    4.2295 N   0  0  0  0  0  0  0  0  0  0  0  0
    3.8911    5.2232    4.1817 C   0  0  0  0  0  0  0  0  0  0  0  0
    3.0543    4.6381    3.3784 O   0  0  0  0  0  0  0  0  0  0  0  0
    4.7182    4.2327    4.9150 C   0  0  0  0  0  0  0  0  0  0  0  0
    3.9701    3.0153    5.0937 N   0  0  0  0  0  0  0  0  0  0  0  0
    3.2054    2.5699    6.1723 C   0  0  0  0  0  0  0  0  0  0  0  0
    1.9290    2.4695    6.0252 O   0  0  0  0  0  0  0  0  0  0  0  0
    3.6873    2.1711    7.5449 C   0  0  0  0  0  0  0  0  0  0  0  0
    3.9725    0.7672    7.4587 N   0  0  0  0  0  0  0  0  0  0  0  0
    3.5859   -0.3038    8.2397 C   0  0  0  0  0  0  0  0  0  0  0  0
    4.5275   -1.1859    8.4469 O   0  0  0  0  0  0  0  0  0  0  0  0
    0.9326    0.4238    7.7023 H   0  0  0  0  0  0  0  0  0  0  0  0
    0.4162    3.6244   11.7795 H   0  0  0  0  0  0  0  0  0  0  0  0
   -1.4418    6.1163    8.9379 H   0  0  0  0  0  0  0  0  0  0  0  0
    2.7561    5.3879    7.4776 H   0  0  0  0  0  0  0  0  0  0  0  0
    3.9975    2.3658    4.2424 H   0  0  0  0  0  0  0  0  0  0  0  0
    4.6106    0.5280    6.6149 H   0  0  0  0  0  0  0  0  0  0  0  0
    0.9203   -2.7413    9.2651 C   0  0  0  0  0  0  0  0  0  0  0  0
    1.7791   -1.9851    8.3186 C   0  0  0  0  0  0  0  0  0  0  0  0
    1.2450   -1.8570    6.9364 C   0  0  0  0  0  0  0  0  0  0  0  0
    1.1282    1.2604   12.0990 C   0  0  0  0  0  0  0  0  0  0  0  0
    1.7804    2.0952   13.0904 C   0  0  0  0  0  0  0  0  0  0  0  0
    1.2141    3.3345   13.4066 C   0  0  0  0  0  0  0  0  0  0  0  0
    1.7898    4.1861   14.3395 C   0  0  0  0  0  0  0  0  0  0  0  0
    2.9482    3.8354   14.9906 C   0  0  0  0  0  0  0  0  0  0  0  0
    3.5281    2.6116   14.6940 C   0  0  0  0  0  0  0  0  0  0  0  0
    2.9384    1.7846   13.7649 C   0  0  0  0  0  0  0  0  0  0  0  0
   -1.1363    3.6508    7.5408 C   0  0  0  0  0  0  0  0  0  0  0  0
   -1.8724    4.4650    6.5754 C   0  0  0  0  0  0  0  0  0  0  0  0
   -3.2302    4.8078    6.6615 C   0  0  0  0  0  0  0  0  0  0  0  0
   -3.5770    5.5806    5.6207 N   0  0  0  0  0  0  0  0  0  0  0  0
   -2.5136    5.7799    4.8257 C   0  0  0  0  0  0  0  0  0  0  0  0
   -2.3940    6.4868    3.6384 C   0  0  0  0  0  0  0  0  0  0  0  0
   -1.1869    6.5106    3.0112 C   0  0  0  0  0  0  0  0  0  0  0  0
   -0.1066    5.8332    3.5650 C   0  0  0  0  0  0  0  0  0  0  0  0
   -0.2518    5.1392    4.7445 C   0  0  0  0  0  0  0  0  0  0  0  0
   -1.4537    5.0958    5.4033 C   0  0  0  0  0  0  0  0  0  0  0  0
   -4.5349    5.9906    5.4203 H   0  0  0  0  0  0  0  0  0  0  0  0
    2.1268    8.1443    9.3316 C   0  0  0  0  0  0  0  0  0  0  0  0
    2.2256    8.0421   10.7786 C   0  0  0  0  0  0  0  0  0  0  0  0
    1.1260    7.7213   11.5280 C   0  0  0  0  0  0  0  0  0  0  0  0
    1.2405    7.6043   12.8941 C   0  0  0  0  0  0  0  0  0  0  0  0
    2.4189    7.7930   13.5796 C   0  0  0  0  0  0  0  0  0  0  0  0
    2.5350    7.6755   14.9584 O   0  0  0  0  0  0  0  0  0  0  0  0
    3.5082    8.1161   12.7827 C   0  0  0  0  0  0  0  0  0  0  0  0
    3.4161    8.2381   11.4150 C   0  0  0  0  0  0  0  0  0  0  0  0
    2.3769    8.5278   15.5035 H   0  0  0  0  0  0  0  0  0  0  0  0
    5.9713    3.9916    4.0596 C   0  0  0  0  0  0  0  0  0  0  0  0
    7.1235    4.7891    4.3986 C   0  0  0  0  0  0  0  0  0  0  0  0
    8.1676    4.4239    5.2163 C   0  0  0  0  0  0  0  0  0  0  0  0
    9.0587    5.4307    5.2778 N   0  0  0  0  0  0  0  0  0  0  0  0
    8.5798    6.4299    4.5020 C   0  0  0  0  0  0  0  0  0  0  0  0
    7.4080    6.0300    3.9748 N   0  0  0  0  0  0  0  0  0  0  0  0
    6.7783    6.5773    3.3236 H   0  0  0  0  0  0  0  0  0  0  0  0
    4.9128    2.9478    7.9197 C   0  0  0  0  0  0  0  0  0  0  0  0
    4.7902    3.5907    9.2349 C   0  0  0  0  0  0  0  0  0  0  0  0
    3.5500    3.9023    9.7464 C   0  0  0  0  0  0  0  0  0  0  0  0
    3.4054    4.5298   10.9618 C   0  0  0  0  0  0  0  0  0  0  0  0
    4.5061    4.8698   11.7123 C   0  0  0  0  0  0  0  0  0  0  0  0
    5.7627    4.5691   11.2234 C   0  0  0  0  0  0  0  0  0  0  0  0
    5.8723    3.9416   10.0057 C   0  0  0  0  0  0  0  0  0  0  0  0
 38 39  1  0  0  0
 39 40  1  0  0  0
 39  1  1  0  0  0
  1  2  1  0  0  0
  2  3  1  0  0  0
  3  4  2  0  0  0
  3  5  1  0  0  0
  5 41  1  0  0  0
 41 42  1  0  0  0
 42 43  2  0  0  0
 43 44  1  0  0  0
 44 45  2  0  0  0
 45 46  1  0  0  0
 46 47  2  0  0  0
  5  6  1  0  0  0
  6  7  1  0  0  0
  7  8  2  0  0  0
  7  9  1  0  0  0
  9 48  1  0  0  0
 48 49  1  0  0  0
 49 50  2  0  0  0
 50 51  1  0  0  0
 51 52  1  0  0  0
 52 53  2  0  0  0
 53 54  1  0  0  0
 54 55  2  0  0  0
 55 56  1  0  0  0
 56 57  2  0  0  0
  9 10  1  0  0  0
 10 11  1  0  0  0
 11 12  2  0  0  0
 11 13  1  0  0  0
 13 59  1  0  0  0
 59 60  1  0  0  0
 60 61  2  0  0  0
 61 62  1  0  0  0
 62 63  2  0  0  0
 63 64  1  0  0  0
 63 65  1  0  0  0
 65 66  2  0  0  0
 13 14  1  0  0  0
 14 15  1  0  0  0
 15 16  2  0  0  0
 15 17  1  0  0  0
 17 18  1  0  0  0
 18 19  1  0  0  0
 19 20  1  0  0  0
 20 21  1  0  0  0
 21 22  1  0  0  0
 22 23  2  0  0  0
 22 24  1  0  0  0
 24 68  1  0  0  0
 68 69  1  0  0  0
 69 70  2  0  0  0
 70 71  1  0  0  0
 71 72  2  0  0  0
 72 73  1  0  0  0
 24 25  1  0  0  0
 25 26  1  0  0  0
 26 27  2  0  0  0
 26 28  1  0  0  0
 28 75  1  0  0  0
 75 76  1  0  0  0
 76 77  2  0  0  0
 77 78  1  0  0  0
 78 79  2  0  0  0
 79 80  1  0  0  0
 80 81  2  0  0  0
 28 29  1  0  0  0
 29 30  1  0  0  0
 30 31  2  0  0  0
 30  1  1  0  0  0
 47 42  1  0  0  0
 57 49  1  0  0  0
 66 60  1  0  0  0
 21 17  1  0  0  0
 73 69  1  0  0  0
 81 76  1  0  0  0
 57 52  1  0  0  0
  2 32  1  0  0  0
  6 33  1  0  0  0
 51 58  1  0  0  0
 10 34  1  0  0  0
 64 67  1  0  0  0
 14 35  1  0  0  0
 73 74  1  0  0  0
 25 36  1  0  0  0
 29 37  1  0  0  0
M  END
> <minimizedAffinity>
-6.51778

> <CNNscore>
0.1660620719

> <CNNaffinity>
7.0849332809

> <CNN_VS>
1.1765387058

> <CNNaffinity_variance>
1.6389020681

$$$$
[H]Oc1c([H])c([H])c(C([H])([H])[C@@]2([H])C(=O)N([H])[C@]([H])(C([H])([H])c3c([H])n([H])c4c([H])c([H])c([H])c([H])c34)C(=O)N([H])[C@@]([H])(C([H])([H])c3c([H])c([H])c([H])c([H])c3[H])C(=O)N([H])[C@@]([H])(C([H])(C([H])([H])[H])C([H])([H])[H])C(=O)N([H])[C@@]([H])(C([H])([H])c3c([H])c([H])c([H])c([H])c3[H])C(=O)N([H])[C@@]([H])(C([H])([H])c3c([H])nc([H])n3[H])C(=O)N3C([H])([H])C([H])([H])C([H])([H])[C@@]3([H])C(=O)N2[H])c([H])c1[H]


 81 88  0  0  0  0  0  0  0  0999 V2000
    0.4533    4.9902   11.7592 C   0  0  0  0  0  0  0  0  0  0  0  0
   -0.0868    5.2856   10.4692 N   0  0  0  0  0  0  0  0  0  0  0  0
    0.4471    6.1373    9.4682 C   0  0  0  0  0  0  0  0  0  0  0  0
   -0.3310    7.1150    9.1322 O   0  0  0  0  0  0  0  0  0  0  0  0
    1.7217    6.0607    8.7839 C   0  0  0  0  0  0  0  0  0  0  0  0
    1.6879    6.1422    7.3477 N   0  0  0  0  0  0  0  0  0  0  0  0
    0.6770    5.9376    6.4142 C   0  0  0  0  0  0  0  0  0  0  0  0
    0.3731    6.9152    5.6361 O   0  0  0  0  0  0  0  0  0  0  0  0
   -0.1400    4.7236    6.1557 C   0  0  0  0  0  0  0  0  0  0  0  0
    0.0743    4.2723    4.7746 N   0  0  0  0  0  0  0  0  0  0  0  0
    0.4600    3.0134    4.3333 C   0  0  0  0  0  0  0  0  0  0  0  0
   -0.2643    2.4844    3.4142 O   0  0  0  0  0  0  0  0  0  0  0  0
    1.6073    2.1761    4.7734 C   0  0  0  0  0  0  0  0  0  0  0  0
    1.2690    1.1034    5.6519 N   0  0  0  0  0  0  0  0  0  0  0  0
    1.2353   -0.2807    5.6465 C   0  0  0  0  0  0  0  0  0  0  0  0
    2.3236   -0.8776    6.1060 O   0  0  0  0  0  0  0  0  0  0  0  0
    0.2763   -1.2896    5.2558 C   0  0  0  0  0  0  0  0  0  0  0  0
   -0.6439   -1.0082    4.1042 C   0  0  0  0  0  0  0  0  0  0  0  0
   -1.6070   -2.1813    4.1754 C   0  0  0  0  0  0  0  0  0  0  0  0
   -1.2793   -2.8614    5.4900 C   0  0  0  0  0  0  0  0  0  0  0  0
   -0.7020   -1.7201    6.2332 N   0  0  0  0  0  0  0  0  0  0  0  0
   -1.0509   -1.2209    7.4808 C   0  0  0  0  0  0  0  0  0  0  0  0
   -2.2939   -0.9013    7.6825 O   0  0  0  0  0  0  0  0  0  0  0  0
   -0.2263   -0.9715    8.6894 C   0  0  0  0  0  0  0  0  0  0  0  0
   -0.7840    0.1249    9.4379 N   0  0  0  0  0  0  0  0  0  0  0  0
   -0.4628    1.4827    9.4346 C   0  0  0  0  0  0  0  0  0  0  0  0
   -1.3245    2.3204    8.9693 O   0  0  0  0  0  0  0  0  0  0  0  0
    0.8075    2.1331    9.9231 C   0  0  0  0  0  0  0  0  0  0  0  0
    0.5822    2.4212   11.3108 N   0  0  0  0  0  0  0  0  0  0  0  0
    0.7396    3.5753   12.0523 C   0  0  0  0  0  0  0  0  0  0  0  0
    1.2367    3.3842   13.2457 O   0  0  0  0  0  0  0  0  0  0  0  0
   -1.0230    4.8167   10.2605 H   0  0  0  0  0  0  0  0  0  0  0  0
    2.6424    6.4215    6.9254 H   0  0  0  0  0  0  0  0  0  0  0  0
   -0.0964    5.0341    4.0426 H   0  0  0  0  0  0  0  0  0  0  0  0
    0.9567    1.5057    6.6361 H   0  0  0  0  0  0  0  0  0  0  0  0
   -1.5906   -0.1614   10.0819 H   0  0  0  0  0  0  0  0  0  0  0  0
    0.2202    1.5569   11.8570 H   0  0  0  0  0  0  0  0  0  0  0  0
   -0.1761    6.7526   13.4754 C   0  0  0  0  0  0  0  0  0  0  0  0
   -0.6017    5.5261   12.7542 C   0  0  0  0  0  0  0  0  0  0  0  0
   -1.9739    5.5669   12.1820 C   0  0  0  0  0  0  0  0  0  0  0  0
    2.7625    7.0273    9.3370 C   0  0  0  0  0  0  0  0  0  0  0  0
    3.9926    6.4145    9.8027 C   0  0  0  0  0  0  0  0  0  0  0  0
    3.9234    5.4371   10.8009 C   0  0  0  0  0  0  0  0  0  0  0  0
    5.0611    4.8160   11.2977 C   0  0  0  0  0  0  0  0  0  0  0  0
    6.3070    5.1449   10.8196 C   0  0  0  0  0  0  0  0  0  0  0  0
    6.4009    6.1110    9.8298 C   0  0  0  0  0  0  0  0  0  0  0  0
    5.2581    6.7128    9.3534 C   0  0  0  0  0  0  0  0  0  0  0  0
   -1.5900    4.9202    6.4674 C   0  0  0  0  0  0  0  0  0  0  0  0
   -2.5864    4.5504    5.4639 C   0  0  0  0  0  0  0  0  0  0  0  0
   -3.2046    5.4300    4.5623 C   0  0  0  0  0  0  0  0  0  0  0  0
   -4.0512    4.7561    3.7686 N   0  0  0  0  0  0  0  0  0  0  0  0
   -4.0389    3.4527    4.0902 C   0  0  0  0  0  0  0  0  0  0  0  0
   -4.7543    2.3866    3.5653 C   0  0  0  0  0  0  0  0  0  0  0  0
   -4.5677    1.1491    4.0988 C   0  0  0  0  0  0  0  0  0  0  0  0
   -3.6733    0.9766    5.1491 C   0  0  0  0  0  0  0  0  0  0  0  0
   -2.9756    2.0511    5.6515 C   0  0  0  0  0  0  0  0  0  0  0  0
   -3.1386    3.3115    5.1365 C   0  0  0  0  0  0  0  0  0  0  0  0
   -4.6565    5.1560    2.9944 H   0  0  0  0  0  0  0  0  0  0  0  0
    2.6951    2.0106    3.7807 C   0  0  0  0  0  0  0  0  0  0  0  0
    4.0874    2.1137    4.1870 C   0  0  0  0  0  0  0  0  0  0  0  0
    4.7242    1.0451    4.7580 C   0  0  0  0  0  0  0  0  0  0  0  0
    6.0489    1.1499    5.1149 C   0  0  0  0  0  0  0  0  0  0  0  0
    6.8002    2.2886    4.9322 C   0  0  0  0  0  0  0  0  0  0  0  0
    8.1369    2.3952    5.2926 O   0  0  0  0  0  0  0  0  0  0  0  0
    6.1168    3.3472    4.3505 C   0  0  0  0  0  0  0  0  0  0  0  0
    4.7924    3.2640    3.9859 C   0  0  0  0  0  0  0  0  0  0  0  0
    8.3280    2.7273    6.2422 H   0  0  0  0  0  0  0  0  0  0  0  0
   -0.2498   -2.2702    9.5097 C   0  0  0  0  0  0  0  0  0  0  0  0
    0.8437   -3.1797    9.2734 C   0  0  0  0  0  0  0  0  0  0  0  0
    0.9686   -4.4620    9.7553 C   0  0  0  0  0  0  0  0  0  0  0  0
    2.1196   -4.9964    9.3069 N   0  0  0  0  0  0  0  0  0  0  0  0
    2.7212   -4.0552    8.5443 C   0  0  0  0  0  0  0  0  0  0  0  0
    1.9396   -2.9599    8.5312 N   0  0  0  0  0  0  0  0  0  0  0  0
    2.1232   -2.0475    8.0271 H   0  0  0  0  0  0  0  0  0  0  0  0
    1.9742    1.2094    9.7471 C   0  0  0  0  0  0  0  0  0  0  0  0
    3.1335    1.8776    9.1407 C   0  0  0  0  0  0  0  0  0  0  0  0
    2.9549    2.8742    8.2070 C   0  0  0  0  0  0  0  0  0  0  0  0
    4.0209    3.4979    7.6016 C   0  0  0  0  0  0  0  0  0  0  0  0
    5.3121    3.1423    7.9124 C   0  0  0  0  0  0  0  0  0  0  0  0
    5.5207    2.1454    8.8458 C   0  0  0  0  0  0  0  0  0  0  0  0
    4.4338    1.5425    9.4322 C   0  0  0  0  0  0  0  0  0  0  0  0
 38 39  1  0  0  0
 39 40  1  0  0  0
 39  1  1  0  0  0
  1  2  1  0  0  0
  2  3  1  0  0  0
  3  4  2  0  0  0
  3  5  1  0  0  0
  5 41  1  0  0  0
 41 42  1  0  0  0
 42 43  2  0  0  0
 43 44  1  0  0  0
 44 45  2  0  0  0
 45 46  1  0  0  0
 46 47  2  0  0  0
  5  6  1  0  0  0
  6  7  1  0  0  0
  7  8  2  0  0  0
  7  9  1  0  0  0
  9 48  1  0  0  0
 48 49  1  0  0  0
 49 50  2  0  0  0
 50 51  1  0  0  0
 51 52  1  0  0  0
 52 53  2  0  0  0
 53 54  1  0  0  0
 54 55  2  0  0  0
 55 56  1  0  0  0
 56 57  2  0  0  0
  9 10  1  0  0  0
 10 11  1  0  0  0
 11 12  2  0  0  0
 11 13  1  0  0  0
 13 59  1  0  0  0
 59 60  1  0  0  0
 60 61  2  0  0  0
 61 62  1  0  0  0
 62 63  2  0  0  0
 63 64  1  0  0  0
 63 65  1  0  0  0
 65 66  2  0  0  0
 13 14  1  0  0  0
 14 15  1  0  0  0
 15 16  2  0  0  0
 15 17  1  0  0  0
 17 18  1  0  0  0
 18 19  1  0  0  0
 19 20  1  0  0  0
 20 21  1  0  0  0
 21 22  1  0  0  0
 22 23  2  0  0  0
 22 24  1  0  0  0
 24 68  1  0  0  0
 68 69  1  0  0  0
 69 70  2  0  0  0
 70 71  1  0  0  0
 71 72  2  0  0  0
 72 73  1  0  0  0
 24 25  1  0  0  0
 25 26  1  0  0  0
 26 27  2  0  0  0
 26 28  1  0  0  0
 28 75  1  0  0  0
 75 76  1  0  0  0
 76 77  2  0  0  0
 77 78  1  0  0  0
 78 79  2  0  0  0
 79 80  1  0  0  0
 80 81  2  0  0  0
 28 29  1  0  0  0
 29 30  1  0  0  0
 30 31  2  0  0  0
 30  1  1  0  0  0
 47 42  1  0  0  0
 57 49  1  0  0  0
 66 60  1  0  0  0
 21 17  1  0  0  0
 73 69  1  0  0  0
 81 76  1  0  0  0
 57 52  1  0  0  0
  2 32  1  0  0  0
  6 33  1  0  0  0
 51 58  1  0  0  0
 10 34  1  0  0  0
 64 67  1  0  0  0
 14 35  1  0  0  0
 73 74  1  0  0  0
 25 36  1  0  0  0
 29 37  1  0  0  0
M  END
> <minimizedAffinity>
-5.27804

> <CNNscore>
0.1617237031

> <CNNaffinity>
7.1924486160

> <CNN_VS>
1.1631894112

> <CNNaffinity_variance>
1.3542706966

$$$$
[H]Oc1c([H])c([H])c(C([H])([H])[C@@]2([H])C(=O)N([H])[C@]([H])(C([H])([H])c3c([H])n([H])c4c([H])c([H])c([H])c([H])c34)C(=O)N([H])[C@@]([H])(C([H])([H])c3c([H])c([H])c([H])c([H])c3[H])C(=O)N([H])[C@@]([H])(C([H])(C([H])([H])[H])C([H])([H])[H])C(=O)N([H])[C@@]([H])(C([H])([H])c3c([H])c([H])c([H])c([H])c3[H])C(=O)N([H])[C@@]([H])(C([H])([H])c3c([H])nc([H])n3[H])C(=O)N3C([H])([H])C([H])([H])C([H])([H])[C@@]3([H])C(=O)N2[H])c([H])c1[H]


 81 88  0  0  0  0  0  0  0  0999 V2000
    4.2849   -0.5953    8.8948 C   0  0  0  0  0  0  0  0  0  0  0  0
    3.1469    0.0004    8.2677 N   0  0  0  0  0  0  0  0  0  0  0  0
    1.9504    0.4602    8.8754 C   0  0  0  0  0  0  0  0  0  0  0  0
    0.8782   -0.1227    8.4455 O   0  0  0  0  0  0  0  0  0  0  0  0
    1.7706    1.4758    9.8927 C   0  0  0  0  0  0  0  0  0  0  0  0
    0.7794    2.4847    9.6279 N   0  0  0  0  0  0  0  0  0  0  0  0
    0.1699    2.9250    8.4575 C   0  0  0  0  0  0  0  0  0  0  0  0
   -1.1111    2.8432    8.3817 O   0  0  0  0  0  0  0  0  0  0  0  0
    0.7813    3.5011    7.2318 C   0  0  0  0  0  0  0  0  0  0  0  0
    0.2639    4.8587    7.0165 N   0  0  0  0  0  0  0  0  0  0  0  0
    0.9832    6.0341    6.8450 C   0  0  0  0  0  0  0  0  0  0  0  0
    0.6715    6.7502    5.8256 O   0  0  0  0  0  0  0  0  0  0  0  0
    2.0763    6.5953    7.6824 C   0  0  0  0  0  0  0  0  0  0  0  0
    3.3906    6.4218    7.1537 N   0  0  0  0  0  0  0  0  0  0  0  0
    4.4173    7.1909    6.6330 C   0  0  0  0  0  0  0  0  0  0  0  0
    5.3337    7.5811    7.5047 O   0  0  0  0  0  0  0  0  0  0  0  0
    4.7674    7.6985    5.3253 C   0  0  0  0  0  0  0  0  0  0  0  0
    3.6684    8.0608    4.3699 C   0  0  0  0  0  0  0  0  0  0  0  0
    4.4381    8.3159    3.0849 C   0  0  0  0  0  0  0  0  0  0  0  0
    5.8458    7.8406    3.3857 C   0  0  0  0  0  0  0  0  0  0  0  0
    5.5627    6.8577    4.4543 N   0  0  0  0  0  0  0  0  0  0  0  0
    5.9369    5.5235    4.5386 C   0  0  0  0  0  0  0  0  0  0  0  0
    5.6291    4.7414    3.5479 O   0  0  0  0  0  0  0  0  0  0  0  0
    6.6602    4.7859    5.6043 C   0  0  0  0  0  0  0  0  0  0  0  0
    6.2328    3.4109    5.6167 N   0  0  0  0  0  0  0  0  0  0  0  0
    5.2660    2.7678    6.3904 C   0  0  0  0  0  0  0  0  0  0  0  0
    4.2020    2.3292    5.8106 O   0  0  0  0  0  0  0  0  0  0  0  0
    5.2968    2.5023    7.8749 C   0  0  0  0  0  0  0  0  0  0  0  0
    5.9389    1.2275    8.0236 N   0  0  0  0  0  0  0  0  0  0  0  0
    5.5780    0.0858    8.7113 C   0  0  0  0  0  0  0  0  0  0  0  0
    6.5689   -0.5124    9.3181 O   0  0  0  0  0  0  0  0  0  0  0  0
    3.2138    0.0777    7.2051 H   0  0  0  0  0  0  0  0  0  0  0  0
    0.4509    2.9893   10.5252 H   0  0  0  0  0  0  0  0  0  0  0  0
   -0.8048    4.9125    6.9952 H   0  0  0  0  0  0  0  0  0  0  0  0
    3.6735    5.3509    7.1892 H   0  0  0  0  0  0  0  0  0  0  0  0
    6.7328    2.7995    4.8933 H   0  0  0  0  0  0  0  0  0  0  0  0
    6.8796    1.1753    7.4862 H   0  0  0  0  0  0  0  0  0  0  0  0
    3.6146   -3.0369    9.0861 C   0  0  0  0  0  0  0  0  0  0  0  0
    4.3561   -2.0198    8.2981 C   0  0  0  0  0  0  0  0  0  0  0  0
    4.1140   -2.0492    6.8309 C   0  0  0  0  0  0  0  0  0  0  0  0
    1.5698    0.9012   11.2903 C   0  0  0  0  0  0  0  0  0  0  0  0
    1.8436    1.8163   12.3825 C   0  0  0  0  0  0  0  0  0  0  0  0
    0.8849    2.7804   12.7111 C   0  0  0  0  0  0  0  0  0  0  0  0
    1.0852    3.6916   13.7389 C   0  0  0  0  0  0  0  0  0  0  0  0
    2.2452    3.6763   14.4758 C   0  0  0  0  0  0  0  0  0  0  0  0
    3.2103    2.7295   14.1688 C   0  0  0  0  0  0  0  0  0  0  0  0
    2.9885    1.8366   13.1448 C   0  0  0  0  0  0  0  0  0  0  0  0
    0.6033    2.6311    6.0279 C   0  0  0  0  0  0  0  0  0  0  0  0
    0.0267    3.2092    4.8154 C   0  0  0  0  0  0  0  0  0  0  0  0
    0.7517    3.7158    3.7262 C   0  0  0  0  0  0  0  0  0  0  0  0
   -0.0895    4.1502    2.7752 N   0  0  0  0  0  0  0  0  0  0  0  0
   -1.3594    3.9629    3.1685 C   0  0  0  0  0  0  0  0  0  0  0  0
   -2.5550    4.2695    2.5358 C   0  0  0  0  0  0  0  0  0  0  0  0
   -3.7227    3.9915    3.1761 C   0  0  0  0  0  0  0  0  0  0  0  0
   -3.6976    3.4117    4.4394 C   0  0  0  0  0  0  0  0  0  0  0  0
   -2.4976    3.1172    5.0453 C   0  0  0  0  0  0  0  0  0  0  0  0
   -1.3024    3.3828    4.4276 C   0  0  0  0  0  0  0  0  0  0  0  0
    0.1699    4.5826    1.8416 H   0  0  0  0  0  0  0  0  0  0  0  0
    1.7347    7.8219    8.4406 C   0  0  0  0  0  0  0  0  0  0  0  0
    1.5060    7.7634    9.8752 C   0  0  0  0  0  0  0  0  0  0  0  0
    2.3370    8.4261   10.7377 C   0  0  0  0  0  0  0  0  0  0  0  0
    2.0935    8.3815   12.0911 C   0  0  0  0  0  0  0  0  0  0  0  0
    1.0410    7.6965   12.6545 C   0  0  0  0  0  0  0  0  0  0  0  0
    0.7950    7.6507   14.0205 O   0  0  0  0  0  0  0  0  0  0  0  0
    0.2235    7.0396   11.7457 C   0  0  0  0  0  0  0  0  0  0  0  0
    0.4486    7.0710   10.3883 C   0  0  0  0  0  0  0  0  0  0  0  0
    1.2385    6.8868   14.5382 H   0  0  0  0  0  0  0  0  0  0  0  0
    8.1564    4.8973    5.2739 C   0  0  0  0  0  0  0  0  0  0  0  0
    9.0396    5.0254    6.4063 C   0  0  0  0  0  0  0  0  0  0  0  0
    9.7729    4.0232    6.9977 C   0  0  0  0  0  0  0  0  0  0  0  0
   10.4860    4.5353    8.0179 N   0  0  0  0  0  0  0  0  0  0  0  0
   10.2043    5.8571    8.0721 C   0  0  0  0  0  0  0  0  0  0  0  0
    9.3279    6.1423    7.0917 N   0  0  0  0  0  0  0  0  0  0  0  0
    8.9072    7.0861    6.8627 H   0  0  0  0  0  0  0  0  0  0  0  0
    6.0610    3.5769    8.5869 C   0  0  0  0  0  0  0  0  0  0  0  0
    5.3003    4.1658    9.6971 C   0  0  0  0  0  0  0  0  0  0  0  0
    3.9231    4.1566    9.6817 C   0  0  0  0  0  0  0  0  0  0  0  0
    3.1844    4.7255   10.6930 C   0  0  0  0  0  0  0  0  0  0  0  0
    3.8040    5.3279   11.7624 C   0  0  0  0  0  0  0  0  0  0  0  0
    5.1846    5.3517   11.8037 C   0  0  0  0  0  0  0  0  0  0  0  0
    5.8929    4.7742   10.7773 C   0  0  0  0  0  0  0  0  0  0  0  0
 38 39  1  0  0  0
 39 40  1  0  0  0
 39  1  1  0  0  0
  1  2  1  0  0  0
  2  3  1  0  0  0
  3  4  2  0  0  0
  3  5  1  0  0  0
  5 41  1  0  0  0
 41 42  1  0  0  0
 42 43  2  0  0  0
 43 44  1  0  0  0
 44 45  2  0  0  0
 45 46  1  0  0  0
 46 47  2  0  0  0
  5  6  1  0  0  0
  6  7  1  0  0  0
  7  8  2  0  0  0
  7  9  1  0  0  0
  9 48  1  0  0  0
 48 49  1  0  0  0
 49 50  2  0  0  0
 50 51  1  0  0  0
 51 52  1  0  0  0
 52 53  2  0  0  0
 53 54  1  0  0  0
 54 55  2  0  0  0
 55 56  1  0  0  0
 56 57  2  0  0  0
  9 10  1  0  0  0
 10 11  1  0  0  0
 11 12  2  0  0  0
 11 13  1  0  0  0
 13 59  1  0  0  0
 59 60  1  0  0  0
 60 61  2  0  0  0
 61 62  1  0  0  0
 62 63  2  0  0  0
 63 64  1  0  0  0
 63 65  1  0  0  0
 65 66  2  0  0  0
 13 14  1  0  0  0
 14 15  1  0  0  0
 15 16  2  0  0  0
 15 17  1  0  0  0
 17 18  1  0  0  0
 18 19  1  0  0  0
 19 20  1  0  0  0
 20 21  1  0  0  0
 21 22  1  0  0  0
 22 23  2  0  0  0
 22 24  1  0  0  0
 24 68  1  0  0  0
 68 69  1  0  0  0
 69 70  2  0  0  0
 70 71  1  0  0  0
 71 72  2  0  0  0
 72 73  1  0  0  0
 24 25  1  0  0  0
 25 26  1  0  0  0
 26 27  2  0  0  0
 26 28  1  0  0  0
 28 75  1  0  0  0
 75 76  1  0  0  0
 76 77  2  0  0  0
 77 78  1  0  0  0
 78 79  2  0  0  0
 79 80  1  0  0  0
 80 81  2  0  0  0
 28 29  1  0  0  0
 29 30  1  0  0  0
 30 31  2  0  0  0
 30  1  1  0  0  0
 47 42  1  0  0  0
 57 49  1  0  0  0
 66 60  1  0  0  0
 21 17  1  0  0  0
 73 69  1  0  0  0
 81 76  1  0  0  0
 57 52  1  0  0  0
  2 32  1  0  0  0
  6 33  1  0  0  0
 51 58  1  0  0  0
 10 34  1  0  0  0
 64 67  1  0  0  0
 14 35  1  0  0  0
 73 74  1  0  0  0
 25 36  1  0  0  0
 29 37  1  0  0  0
M  END
> <minimizedAffinity>
-5.99875

> <CNNscore>
0.1537594199

> <CNNaffinity>
6.9558577538

> <CNN_VS>
1.0695286989

> <CNNaffinity_variance>
1.5245345831

$$$$
[H]Oc1c([H])c([H])c(C([H])([H])[C@@]2([H])C(=O)N([H])[C@]([H])(C([H])([H])c3c([H])n([H])c4c([H])c([H])c([H])c([H])c34)C(=O)N([H])[C@@]([H])(C([H])([H])c3c([H])c([H])c([H])c([H])c3[H])C(=O)N([H])[C@@]([H])(C([H])(C([H])([H])[H])C([H])([H])[H])C(=O)N([H])[C@@]([H])(C([H])([H])c3c([H])c([H])c([H])c([H])c3[H])C(=O)N([H])[C@@]([H])(C([H])([H])c3c([H])nc([H])n3[H])C(=O)N3C([H])([H])C([H])([H])C([H])([H])[C@@]3([H])C(=O)N2[H])c([H])c1[H]


 81 88  0  0  0  0  0  0  0  0999 V2000
    6.4148    3.4842    7.7963 C   0  0  0  0  0  0  0  0  0  0  0  0
    5.6305    4.0637    6.7511 N   0  0  0  0  0  0  0  0  0  0  0  0
    5.3255    3.5186    5.4775 C   0  0  0  0  0  0  0  0  0  0  0  0
    5.7288    4.2389    4.4810 O   0  0  0  0  0  0  0  0  0  0  0  0
    4.6358    2.2879    5.1484 C   0  0  0  0  0  0  0  0  0  0  0  0
    3.5631    2.3857    4.1943 N   0  0  0  0  0  0  0  0  0  0  0  0
    2.7898    3.4531    3.7496 C   0  0  0  0  0  0  0  0  0  0  0  0
    2.8069    3.7226    2.4924 O   0  0  0  0  0  0  0  0  0  0  0  0
    1.9082    4.3680    4.5203 C   0  0  0  0  0  0  0  0  0  0  0  0
    0.5301    4.2548    4.0252 N   0  0  0  0  0  0  0  0  0  0  0  0
   -0.6227    3.9837    4.7504 C   0  0  0  0  0  0  0  0  0  0  0  0
   -1.6082    4.7886    4.5770 O   0  0  0  0  0  0  0  0  0  0  0  0
   -0.8886    2.8803    5.7111 C   0  0  0  0  0  0  0  0  0  0  0  0
   -0.8320    3.2526    7.0877 N   0  0  0  0  0  0  0  0  0  0  0  0
   -1.6852    3.3872    8.1697 C   0  0  0  0  0  0  0  0  0  0  0  0
   -1.7831    2.3242    8.9521 O   0  0  0  0  0  0  0  0  0  0  0  0
   -2.5324    4.4351    8.6937 C   0  0  0  0  0  0  0  0  0  0  0  0
   -3.1851    5.3873    7.7350 C   0  0  0  0  0  0  0  0  0  0  0  0
   -3.7710    6.4287    8.6737 C   0  0  0  0  0  0  0  0  0  0  0  0
   -3.1865    6.0877   10.0302 C   0  0  0  0  0  0  0  0  0  0  0  0
   -1.9497    5.3933    9.6103 N   0  0  0  0  0  0  0  0  0  0  0  0
   -0.6356    5.6436    9.9815 C   0  0  0  0  0  0  0  0  0  0  0  0
   -0.1772    6.8488    9.8219 O   0  0  0  0  0  0  0  0  0  0  0  0
    0.3964    4.7450   10.5563 C   0  0  0  0  0  0  0  0  0  0  0  0
    1.7044    5.1843   10.1441 N   0  0  0  0  0  0  0  0  0  0  0  0
    2.5106    4.7656    9.0851 C   0  0  0  0  0  0  0  0  0  0  0  0
    2.7332    5.5857    8.1163 O   0  0  0  0  0  0  0  0  0  0  0  0
    3.1878    3.4290    8.9114 C   0  0  0  0  0  0  0  0  0  0  0  0
    4.4716    3.5648    9.5384 N   0  0  0  0  0  0  0  0  0  0  0  0
    5.7499    3.2878    9.0959 C   0  0  0  0  0  0  0  0  0  0  0  0
    6.5262    2.7483    9.9982 O   0  0  0  0  0  0  0  0  0  0  0  0
    5.2564    5.0406    6.9646 H   0  0  0  0  0  0  0  0  0  0  0  0
    3.3245    1.4351    3.7395 H   0  0  0  0  0  0  0  0  0  0  0  0
    0.4394    4.4050    2.9694 H   0  0  0  0  0  0  0  0  0  0  0  0
    0.2130    3.4864    7.3729 H   0  0  0  0  0  0  0  0  0  0  0  0
    2.1002    5.9772   10.7457 H   0  0  0  0  0  0  0  0  0  0  0  0
    4.3980    3.9616   10.5452 H   0  0  0  0  0  0  0  0  0  0  0  0
    8.9033    3.8857    7.4906 C   0  0  0  0  0  0  0  0  0  0  0  0
    7.6124    4.4476    7.9631 C   0  0  0  0  0  0  0  0  0  0  0  0
    7.3145    5.8314    7.5068 C   0  0  0  0  0  0  0  0  0  0  0  0
    5.5775    1.1537    4.7604 C   0  0  0  0  0  0  0  0  0  0  0  0
    5.5620    0.0043    5.6457 C   0  0  0  0  0  0  0  0  0  0  0  0
    5.4046   -1.2709    5.0929 C   0  0  0  0  0  0  0  0  0  0  0  0
    5.3731   -2.4124    5.8822 C   0  0  0  0  0  0  0  0  0  0  0  0
    5.4970   -2.3261    7.2482 C   0  0  0  0  0  0  0  0  0  0  0  0
    5.6543   -1.0727    7.8193 C   0  0  0  0  0  0  0  0  0  0  0  0
    5.6822    0.0445    7.0156 C   0  0  0  0  0  0  0  0  0  0  0  0
    2.3944    5.7829    4.5197 C   0  0  0  0  0  0  0  0  0  0  0  0
    1.4453    6.8575    4.2351 C   0  0  0  0  0  0  0  0  0  0  0  0
    0.7031    7.0014    3.0531 C   0  0  0  0  0  0  0  0  0  0  0  0
   -0.0847    8.0848    3.1329 N   0  0  0  0  0  0  0  0  0  0  0  0
    0.0883    8.6887    4.3195 C   0  0  0  0  0  0  0  0  0  0  0  0
   -0.4881    9.8378    4.8401 C   0  0  0  0  0  0  0  0  0  0  0  0
   -0.1130   10.2522    6.0805 C   0  0  0  0  0  0  0  0  0  0  0  0
    0.8310    9.5249    6.7964 C   0  0  0  0  0  0  0  0  0  0  0  0
    1.3877    8.3878    6.2570 C   0  0  0  0  0  0  0  0  0  0  0  0
    1.0313    7.9413    5.0104 C   0  0  0  0  0  0  0  0  0  0  0  0
   -0.7550    8.4434    2.3928 H   0  0  0  0  0  0  0  0  0  0  0  0
   -1.8592    1.8572    5.2558 C   0  0  0  0  0  0  0  0  0  0  0  0
   -1.5804    0.4420    5.4388 C   0  0  0  0  0  0  0  0  0  0  0  0
   -1.8782   -0.1762    6.6232 C   0  0  0  0  0  0  0  0  0  0  0  0
   -1.6312   -1.5214    6.7729 C   0  0  0  0  0  0  0  0  0  0  0  0
   -1.0894   -2.3120    5.7851 C   0  0  0  0  0  0  0  0  0  0  0  0
   -0.8393   -3.6696    5.9358 O   0  0  0  0  0  0  0  0  0  0  0  0
   -0.8029   -1.6465    4.6014 C   0  0  0  0  0  0  0  0  0  0  0  0
   -1.0419   -0.3020    4.4302 C   0  0  0  0  0  0  0  0  0  0  0  0
    0.0845   -3.9259    6.2951 H   0  0  0  0  0  0  0  0  0  0  0  0
    0.2421    4.8231   12.0827 C   0  0  0  0  0  0  0  0  0  0  0  0
    0.9500    3.8178   12.8357 C   0  0  0  0  0  0  0  0  0  0  0  0
    2.0827    4.0009   13.5944 C   0  0  0  0  0  0  0  0  0  0  0  0
    2.4376    2.8300   14.1552 N   0  0  0  0  0  0  0  0  0  0  0  0
    1.5327    1.9089   13.7522 C   0  0  0  0  0  0  0  0  0  0  0  0
    0.6370    2.5184   12.9541 N   0  0  0  0  0  0  0  0  0  0  0  0
   -0.1981    2.0788   12.4750 H   0  0  0  0  0  0  0  0  0  0  0  0
    2.3841    2.3426    9.5590 C   0  0  0  0  0  0  0  0  0  0  0  0
    2.2283    1.1665    8.6927 C   0  0  0  0  0  0  0  0  0  0  0  0
    2.2429   -0.1020    9.2290 C   0  0  0  0  0  0  0  0  0  0  0  0
    2.1276   -1.2226    8.4397 C   0  0  0  0  0  0  0  0  0  0  0  0
    1.9932   -1.1106    7.0760 C   0  0  0  0  0  0  0  0  0  0  0  0
    1.9755    0.1498    6.5109 C   0  0  0  0  0  0  0  0  0  0  0  0
    2.0926    1.2489    7.3278 C   0  0  0  0  0  0  0  0  0  0  0  0
 38 39  1  0  0  0
 39 40  1  0  0  0
 39  1  1  0  0  0
  1  2  1  0  0  0
  2  3  1  0  0  0
  3  4  2  0  0  0
  3  5  1  0  0  0
  5 41  1  0  0  0
 41 42  1  0  0  0
 42 43  2  0  0  0
 43 44  1  0  0  0
 44 45  2  0  0  0
 45 46  1  0  0  0
 46 47  2  0  0  0
  5  6  1  0  0  0
  6  7  1  0  0  0
  7  8  2  0  0  0
  7  9  1  0  0  0
  9 48  1  0  0  0
 48 49  1  0  0  0
 49 50  2  0  0  0
 50 51  1  0  0  0
 51 52  1  0  0  0
 52 53  2  0  0  0
 53 54  1  0  0  0
 54 55  2  0  0  0
 55 56  1  0  0  0
 56 57  2  0  0  0
  9 10  1  0  0  0
 10 11  1  0  0  0
 11 12  2  0  0  0
 11 13  1  0  0  0
 13 59  1  0  0  0
 59 60  1  0  0  0
 60 61  2  0  0  0
 61 62  1  0  0  0
 62 63  2  0  0  0
 63 64  1  0  0  0
 63 65  1  0  0  0
 65 66  2  0  0  0
 13 14  1  0  0  0
 14 15  1  0  0  0
 15 16  2  0  0  0
 15 17  1  0  0  0
 17 18  1  0  0  0
 18 19  1  0  0  0
 19 20  1  0  0  0
 20 21  1  0  0  0
 21 22  1  0  0  0
 22 23  2  0  0  0
 22 24  1  0  0  0
 24 68  1  0  0  0
 68 69  1  0  0  0
 69 70  2  0  0  0
 70 71  1  0  0  0
 71 72  2  0  0  0
 72 73  1  0  0  0
 24 25  1  0  0  0
 25 26  1  0  0  0
 26 27  2  0  0  0
 26 28  1  0  0  0
 28 75  1  0  0  0
 75 76  1  0  0  0
 76 77  2  0  0  0
 77 78  1  0  0  0
 78 79  2  0  0  0
 79 80  1  0  0  0
 80 81  2  0  0  0
 28 29  1  0  0  0
 29 30  1  0  0  0
 30 31  2  0  0  0
 30  1  1  0  0  0
 47 42  1  0  0  0
 57 49  1  0  0  0
 66 60  1  0  0  0
 21 17  1  0  0  0
 73 69  1  0  0  0
 81 76  1  0  0  0
 57 52  1  0  0  0
  2 32  1  0  0  0
  6 33  1  0  0  0
 51 58  1  0  0  0
 10 34  1  0  0  0
 64 67  1  0  0  0
 14 35  1  0  0  0
 73 74  1  0  0  0
 25 36  1  0  0  0
 29 37  1  0  0  0
M  END
> <minimizedAffinity>
-5.71326

> <CNNscore>
0.1428754032

> <CNNaffinity>
6.9499449730

> <CNN_VS>
0.9929761887

> <CNNaffinity_variance>
1.7992283106

$$$$
[H]Oc1c([H])c([H])c(C([H])([H])[C@@]2([H])C(=O)N([H])[C@]([H])(C([H])([H])c3c([H])n([H])c4c([H])c([H])c([H])c([H])c34)C(=O)N([H])[C@@]([H])(C([H])([H])c3c([H])c([H])c([H])c([H])c3[H])C(=O)N([H])[C@@]([H])(C([H])(C([H])([H])[H])C([H])([H])[H])C(=O)N([H])[C@@]([H])(C([H])([H])c3c([H])c([H])c([H])c([H])c3[H])C(=O)N([H])[C@@]([H])(C([H])([H])c3c([H])nc([H])n3[H])C(=O)N3C([H])([H])C([H])([H])C([H])([H])[C@@]3([H])C(=O)N2[H])c([H])c1[H]


 81 88  0  0  0  0  0  0  0  0999 V2000
    7.5360    6.1333    4.8299 C   0  0  0  0  0  0  0  0  0  0  0  0
    6.1880    5.9461    4.3928 N   0  0  0  0  0  0  0  0  0  0  0  0
    5.6315    4.8299    3.7169 C   0  0  0  0  0  0  0  0  0  0  0  0
    5.1196    5.1095    2.5619 O   0  0  0  0  0  0  0  0  0  0  0  0
    5.5599    3.4456    4.1379 C   0  0  0  0  0  0  0  0  0  0  0  0
    4.2724    2.8097    4.0451 N   0  0  0  0  0  0  0  0  0  0  0  0
    2.9768    3.3090    3.9609 C   0  0  0  0  0  0  0  0  0  0  0  0
    2.2743    2.9826    2.9347 O   0  0  0  0  0  0  0  0  0  0  0  0
    2.2403    4.1911    4.9030 C   0  0  0  0  0  0  0  0  0  0  0  0
    1.0416    3.4966    5.3908 N   0  0  0  0  0  0  0  0  0  0  0  0
    0.6544    3.2736    6.7057 C   0  0  0  0  0  0  0  0  0  0  0  0
   -0.5458    3.6122    7.0122 O   0  0  0  0  0  0  0  0  0  0  0  0
    1.4363    2.6892    7.8273 C   0  0  0  0  0  0  0  0  0  0  0  0
    1.9398    3.6361    8.7691 N   0  0  0  0  0  0  0  0  0  0  0  0
    1.7454    3.9999   10.0907 C   0  0  0  0  0  0  0  0  0  0  0  0
    2.5496    3.4163   10.9651 O   0  0  0  0  0  0  0  0  0  0  0  0
    0.8554    4.8946   10.7962 C   0  0  0  0  0  0  0  0  0  0  0  0
   -0.5345    5.0996   10.2688 C   0  0  0  0  0  0  0  0  0  0  0  0
   -1.0344    6.2454   11.1326 C   0  0  0  0  0  0  0  0  0  0  0  0
    0.1954    6.7199   11.8813 C   0  0  0  0  0  0  0  0  0  0  0  0
    1.2525    6.2795   10.9451 N   0  0  0  0  0  0  0  0  0  0  0  0
    2.2798    7.0181   10.3738 C   0  0  0  0  0  0  0  0  0  0  0  0
    1.9647    8.0993    9.7260 O   0  0  0  0  0  0  0  0  0  0  0  0
    3.7466    6.7914   10.3648 C   0  0  0  0  0  0  0  0  0  0  0  0
    4.3136    7.3399    9.1601 N   0  0  0  0  0  0  0  0  0  0  0  0
    4.6208    6.7313    7.9427 C   0  0  0  0  0  0  0  0  0  0  0  0
    3.9395    7.0588    6.8989 O   0  0  0  0  0  0  0  0  0  0  0  0
    5.6870    5.7004    7.6677 C   0  0  0  0  0  0  0  0  0  0  0  0
    6.8661    6.4472    7.3339 N   0  0  0  0  0  0  0  0  0  0  0  0
    7.7424    6.3637    6.2700 C   0  0  0  0  0  0  0  0  0  0  0  0
    8.9987    6.5191    6.5946 O   0  0  0  0  0  0  0  0  0  0  0  0
    5.5387    6.7713    4.5859 H   0  0  0  0  0  0  0  0  0  0  0  0
    4.3419    1.7314    4.0370 H   0  0  0  0  0  0  0  0  0  0  0  0
    0.4104    3.1287    4.6088 H   0  0  0  0  0  0  0  0  0  0  0  0
    2.7353    4.2486    8.3001 H   0  0  0  0  0  0  0  0  0  0  0  0
    4.5051    8.3922    9.2162 H   0  0  0  0  0  0  0  0  0  0  0  0
    7.0888    7.2143    8.0676 H   0  0  0  0  0  0  0  0  0  0  0  0
    8.7419    7.0002    2.7704 C   0  0  0  0  0  0  0  0  0  0  0  0
    8.0380    7.3564    4.0285 C   0  0  0  0  0  0  0  0  0  0  0  0
    7.0168    8.4308    3.9053 C   0  0  0  0  0  0  0  0  0  0  0  0
    6.6249    2.5639    3.4962 C   0  0  0  0  0  0  0  0  0  0  0  0
    7.9236    2.5896    4.1428 C   0  0  0  0  0  0  0  0  0  0  0  0
    9.0712    2.4369    3.3578 C   0  0  0  0  0  0  0  0  0  0  0  0
   10.3438    2.4440    3.9120 C   0  0  0  0  0  0  0  0  0  0  0  0
   10.5201    2.6031    5.2657 C   0  0  0  0  0  0  0  0  0  0  0  0
    9.3975    2.7565    6.0645 C   0  0  0  0  0  0  0  0  0  0  0  0
    8.1458    2.7458    5.4914 C   0  0  0  0  0  0  0  0  0  0  0  0
    1.9185    5.5296    4.3171 C   0  0  0  0  0  0  0  0  0  0  0  0
    0.5433    6.0203    4.3853 C   0  0  0  0  0  0  0  0  0  0  0  0
   -0.4065    5.9377    3.3559 C   0  0  0  0  0  0  0  0  0  0  0  0
   -1.5717    6.4660    3.7610 N   0  0  0  0  0  0  0  0  0  0  0  0
   -1.4584    6.9076    5.0238 C   0  0  0  0  0  0  0  0  0  0  0  0
   -2.3810    7.5368    5.8463 C   0  0  0  0  0  0  0  0  0  0  0  0
   -1.9945    7.9087    7.0966 C   0  0  0  0  0  0  0  0  0  0  0  0
   -0.6960    7.6545    7.5232 C   0  0  0  0  0  0  0  0  0  0  0  0
    0.2002    7.0284    6.6873 C   0  0  0  0  0  0  0  0  0  0  0  0
   -0.1566    6.6391    5.4218 C   0  0  0  0  0  0  0  0  0  0  0  0
   -2.4683    6.5427    3.1988 H   0  0  0  0  0  0  0  0  0  0  0  0
    0.9974    1.3486    8.2815 C   0  0  0  0  0  0  0  0  0  0  0  0
    1.9367    0.2395    8.3244 C   0  0  0  0  0  0  0  0  0  0  0  0
    2.6547   -0.0178    9.4610 C   0  0  0  0  0  0  0  0  0  0  0  0
    3.5216   -1.0857    9.4946 C   0  0  0  0  0  0  0  0  0  0  0  0
    3.7228   -1.9384    8.4331 C   0  0  0  0  0  0  0  0  0  0  0  0
    4.5980   -3.0160    8.4662 O   0  0  0  0  0  0  0  0  0  0  0  0
    2.9757   -1.6424    7.3016 C   0  0  0  0  0  0  0  0  0  0  0  0
    2.1031   -0.5796    7.2464 C   0  0  0  0  0  0  0  0  0  0  0  0
    5.5610   -2.8305    8.1717 H   0  0  0  0  0  0  0  0  0  0  0  0
    4.3051    7.4967   11.6100 C   0  0  0  0  0  0  0  0  0  0  0  0
    3.9983    6.8728   12.8731 C   0  0  0  0  0  0  0  0  0  0  0  0
    3.6797    7.5081   14.0509 C   0  0  0  0  0  0  0  0  0  0  0  0
    3.4457    6.5877   15.0046 N   0  0  0  0  0  0  0  0  0  0  0  0
    3.6163    5.3740   14.4323 C   0  0  0  0  0  0  0  0  0  0  0  0
    3.9504    5.5591   13.1420 N   0  0  0  0  0  0  0  0  0  0  0  0
    4.1519    4.8131   12.4188 H   0  0  0  0  0  0  0  0  0  0  0  0
    5.9159    4.8436    8.8756 C   0  0  0  0  0  0  0  0  0  0  0  0
    5.9787    3.4133    8.5463 C   0  0  0  0  0  0  0  0  0  0  0  0
    6.9123    2.5990    9.1481 C   0  0  0  0  0  0  0  0  0  0  0  0
    7.0134    1.2626    8.8389 C   0  0  0  0  0  0  0  0  0  0  0  0
    6.1769    0.6914    7.9091 C   0  0  0  0  0  0  0  0  0  0  0  0
    5.2308    1.4848    7.2897 C   0  0  0  0  0  0  0  0  0  0  0  0
    5.1561    2.8164    7.6216 C   0  0  0  0  0  0  0  0  0  0  0  0
 38 39  1  0  0  0
 39 40  1  0  0  0
 39  1  1  0  0  0
  1  2  1  0  0  0
  2  3  1  0  0  0
  3  4  2  0  0  0
  3  5  1  0  0  0
  5 41  1  0  0  0
 41 42  1  0  0  0
 42 43  2  0  0  0
 43 44  1  0  0  0
 44 45  2  0  0  0
 45 46  1  0  0  0
 46 47  2  0  0  0
  5  6  1  0  0  0
  6  7  1  0  0  0
  7  8  2  0  0  0
  7  9  1  0  0  0
  9 48  1  0  0  0
 48 49  1  0  0  0
 49 50  2  0  0  0
 50 51  1  0  0  0
 51 52  1  0  0  0
 52 53  2  0  0  0
 53 54  1  0  0  0
 54 55  2  0  0  0
 55 56  1  0  0  0
 56 57  2  0  0  0
  9 10  1  0  0  0
 10 11  1  0  0  0
 11 12  2  0  0  0
 11 13  1  0  0  0
 13 59  1  0  0  0
 59 60  1  0  0  0
 60 61  2  0  0  0
 61 62  1  0  0  0
 62 63  2  0  0  0
 63 64  1  0  0  0
 63 65  1  0  0  0
 65 66  2  0  0  0
 13 14  1  0  0  0
 14 15  1  0  0  0
 15 16  2  0  0  0
 15 17  1  0  0  0
 17 18  1  0  0  0
 18 19  1  0  0  0
 19 20  1  0  0  0
 20 21  1  0  0  0
 21 22  1  0  0  0
 22 23  2  0  0  0
 22 24  1  0  0  0
 24 68  1  0  0  0
 68 69  1  0  0  0
 69 70  2  0  0  0
 70 71  1  0  0  0
 71 72  2  0  0  0
 72 73  1  0  0  0
 24 25  1  0  0  0
 25 26  1  0  0  0
 26 27  2  0  0  0
 26 28  1  0  0  0
 28 75  1  0  0  0
 75 76  1  0  0  0
 76 77  2  0  0  0
 77 78  1  0  0  0
 78 79  2  0  0  0
 79 80  1  0  0  0
 80 81  2  0  0  0
 28 29  1  0  0  0
 29 30  1  0  0  0
 30 31  2  0  0  0
 30  1  1  0  0  0
 47 42  1  0  0  0
 57 49  1  0  0  0
 66 60  1  0  0  0
 21 17  1  0  0  0
 73 69  1  0  0  0
 81 76  1  0  0  0
 57 52  1  0  0  0
  2 32  1  0  0  0
  6 33  1  0  0  0
 51 58  1  0  0  0
 10 34  1  0  0  0
 64 67  1  0  0  0
 14 35  1  0  0  0
 73 74  1  0  0  0
 25 36  1  0  0  0
 29 37  1  0  0  0
M  END
> <minimizedAffinity>
-6.81099

> <CNNscore>
0.1278617084

> <CNNaffinity>
6.8963956833

> <CNN_VS>
0.8817849159

> <CNNaffinity_variance>
1.9520050287

$$$$
[H]Oc1c([H])c([H])c(C([H])([H])[C@@]2([H])C(=O)N([H])[C@]([H])(C([H])([H])c3c([H])n([H])c4c([H])c([H])c([H])c([H])c34)C(=O)N([H])[C@@]([H])(C([H])([H])c3c([H])c([H])c([H])c([H])c3[H])C(=O)N([H])[C@@]([H])(C([H])(C([H])([H])[H])C([H])([H])[H])C(=O)N([H])[C@@]([H])(C([H])([H])c3c([H])c([H])c([H])c([H])c3[H])C(=O)N([H])[C@@]([H])(C([H])([H])c3c([H])nc([H])n3[H])C(=O)N3C([H])([H])C([H])([H])C([H])([H])[C@@]3([H])C(=O)N2[H])c([H])c1[H]


 81 88  0  0  0  0  0  0  0  0999 V2000
    0.5936    5.3955   12.2924 C   0  0  0  0  0  0  0  0  0  0  0  0
    0.8966    6.2117   11.1587 N   0  0  0  0  0  0  0  0  0  0  0  0
    2.1616    6.4527   10.5638 C   0  0  0  0  0  0  0  0  0  0  0  0
    2.5119    7.6982   10.5463 O   0  0  0  0  0  0  0  0  0  0  0  0
    3.0962    5.5100    9.9835 C   0  0  0  0  0  0  0  0  0  0  0  0
    3.5964    5.8235    8.6712 N   0  0  0  0  0  0  0  0  0  0  0  0
    3.1358    6.6615    7.6608 C   0  0  0  0  0  0  0  0  0  0  0  0
    3.9145    7.6041    7.2627 O   0  0  0  0  0  0  0  0  0  0  0  0
    1.8399    6.6427    6.9339 C   0  0  0  0  0  0  0  0  0  0  0  0
    2.0840    6.4384    5.5001 N   0  0  0  0  0  0  0  0  0  0  0  0
    1.5412    5.4691    4.6669 C   0  0  0  0  0  0  0  0  0  0  0  0
    1.0128    5.8874    3.5737 O   0  0  0  0  0  0  0  0  0  0  0  0
    1.4832    3.9953    4.8560 C   0  0  0  0  0  0  0  0  0  0  0  0
    0.2146    3.4901    5.2712 N   0  0  0  0  0  0  0  0  0  0  0  0
   -0.8129    2.7080    4.7719 C   0  0  0  0  0  0  0  0  0  0  0  0
   -0.7376    1.4185    5.0606 O   0  0  0  0  0  0  0  0  0  0  0  0
   -2.0027    2.9439    3.9851 C   0  0  0  0  0  0  0  0  0  0  0  0
   -1.9841    4.0305    2.9503 C   0  0  0  0  0  0  0  0  0  0  0  0
   -3.4444    4.0968    2.5355 C   0  0  0  0  0  0  0  0  0  0  0  0
   -4.1641    3.2201    3.5412 C   0  0  0  0  0  0  0  0  0  0  0  0
   -3.2218    3.3060    4.6782 N   0  0  0  0  0  0  0  0  0  0  0  0
   -3.4695    3.6674    5.9956 C   0  0  0  0  0  0  0  0  0  0  0  0
   -4.0529    4.8075    6.2145 O   0  0  0  0  0  0  0  0  0  0  0  0
   -3.1772    2.9577    7.2659 C   0  0  0  0  0  0  0  0  0  0  0  0
   -2.9556    3.9174    8.3164 N   0  0  0  0  0  0  0  0  0  0  0  0
   -1.7706    4.4573    8.8173 C   0  0  0  0  0  0  0  0  0  0  0  0
   -1.5315    5.7088    8.6239 O   0  0  0  0  0  0  0  0  0  0  0  0
   -0.6853    3.7484    9.5886 C   0  0  0  0  0  0  0  0  0  0  0  0
   -1.0572    3.8649   10.9697 N   0  0  0  0  0  0  0  0  0  0  0  0
   -0.3588    4.2917   12.0818 C   0  0  0  0  0  0  0  0  0  0  0  0
   -0.5808    3.5868   13.1596 O   0  0  0  0  0  0  0  0  0  0  0  0
    0.0559    6.7152   10.7352 H   0  0  0  0  0  0  0  0  0  0  0  0
    4.5127    5.2995    8.4403 H   0  0  0  0  0  0  0  0  0  0  0  0
    2.7712    7.1413    5.0771 H   0  0  0  0  0  0  0  0  0  0  0  0
    0.0030    3.8097    6.3110 H   0  0  0  0  0  0  0  0  0  0  0  0
   -3.8587    4.2829    8.7613 H   0  0  0  0  0  0  0  0  0  0  0  0
   -2.0814    3.5555   11.1477 H   0  0  0  0  0  0  0  0  0  0  0  0
    1.0145    7.3830   13.8155 C   0  0  0  0  0  0  0  0  0  0  0  0
    0.0269    6.3809   13.3403 C   0  0  0  0  0  0  0  0  0  0  0  0
   -1.3051    6.9266   12.9660 C   0  0  0  0  0  0  0  0  0  0  0  0
    4.2525    5.1574   10.9121 C   0  0  0  0  0  0  0  0  0  0  0  0
    3.9034    4.3270   12.0496 C   0  0  0  0  0  0  0  0  0  0  0  0
    3.2471    3.1129   11.8223 C   0  0  0  0  0  0  0  0  0  0  0  0
    2.8774    2.2740   12.8646 C   0  0  0  0  0  0  0  0  0  0  0  0
    3.1473    2.6126   14.1690 C   0  0  0  0  0  0  0  0  0  0  0  0
    3.7974    3.8112   14.4193 C   0  0  0  0  0  0  0  0  0  0  0  0
    4.1537    4.6263   13.3688 C   0  0  0  0  0  0  0  0  0  0  0  0
    1.0065    7.8568    7.1978 C   0  0  0  0  0  0  0  0  0  0  0  0
    0.4162    8.5700    6.0666 C   0  0  0  0  0  0  0  0  0  0  0  0
    0.9353    9.7288    5.4695 C   0  0  0  0  0  0  0  0  0  0  0  0
    0.1560   10.1074    4.4448 N   0  0  0  0  0  0  0  0  0  0  0  0
   -0.8749    9.2570    4.3166 C   0  0  0  0  0  0  0  0  0  0  0  0
   -1.9361    9.2528    3.4234 C   0  0  0  0  0  0  0  0  0  0  0  0
   -2.8736    8.2725    3.5276 C   0  0  0  0  0  0  0  0  0  0  0  0
   -2.7532    7.3030    4.5166 C   0  0  0  0  0  0  0  0  0  0  0  0
   -1.6903    7.3296    5.3904 C   0  0  0  0  0  0  0  0  0  0  0  0
   -0.7270    8.3024    5.3125 C   0  0  0  0  0  0  0  0  0  0  0  0
    0.2981   10.9453    3.8095 H   0  0  0  0  0  0  0  0  0  0  0  0
    2.3390    3.2002    3.9441 C   0  0  0  0  0  0  0  0  0  0  0  0
    3.1836    2.1370    4.4640 C   0  0  0  0  0  0  0  0  0  0  0  0
    4.5059    2.3692    4.7308 C   0  0  0  0  0  0  0  0  0  0  0  0
    5.2867    1.3600    5.2455 C   0  0  0  0  0  0  0  0  0  0  0  0
    4.8163    0.0958    5.5189 C   0  0  0  0  0  0  0  0  0  0  0  0
    5.6040   -0.9233    6.0379 O   0  0  0  0  0  0  0  0  0  0  0  0
    3.4717   -0.0969    5.2346 C   0  0  0  0  0  0  0  0  0  0  0  0
    2.6727    0.8983    4.7196 C   0  0  0  0  0  0  0  0  0  0  0  0
    6.0801   -1.5229    5.3580 H   0  0  0  0  0  0  0  0  0  0  0  0
   -4.4016    2.0801    7.5675 C   0  0  0  0  0  0  0  0  0  0  0  0
   -4.1532    0.6616    7.6363 C   0  0  0  0  0  0  0  0  0  0  0  0
   -4.4434   -0.2742    6.6708 C   0  0  0  0  0  0  0  0  0  0  0  0
   -4.0509   -1.4895    7.0958 N   0  0  0  0  0  0  0  0  0  0  0  0
   -3.5145   -1.3232    8.3264 C   0  0  0  0  0  0  0  0  0  0  0  0
   -3.5818   -0.0170    8.6429 N   0  0  0  0  0  0  0  0  0  0  0  0
   -3.2478    0.4442    9.5351 H   0  0  0  0  0  0  0  0  0  0  0  0
   -0.5967    2.3111    9.1738 C   0  0  0  0  0  0  0  0  0  0  0  0
    0.7914    1.8526    9.0287 C   0  0  0  0  0  0  0  0  0  0  0  0
    1.2052    0.6813    9.6234 C   0  0  0  0  0  0  0  0  0  0  0  0
    2.5051    0.2417    9.5286 C   0  0  0  0  0  0  0  0  0  0  0  0
    3.4424    0.9654    8.8300 C   0  0  0  0  0  0  0  0  0  0  0  0
    3.0549    2.1445    8.2232 C   0  0  0  0  0  0  0  0  0  0  0  0
    1.7484    2.5554    8.3371 C   0  0  0  0  0  0  0  0  0  0  0  0
 38 39  1  0  0  0
 39 40  1  0  0  0
 39  1  1  0  0  0
  1  2  1  0  0  0
  2  3  1  0  0  0
  3  4  2  0  0  0
  3  5  1  0  0  0
  5 41  1  0  0  0
 41 42  1  0  0  0
 42 43  2  0  0  0
 43 44  1  0  0  0
 44 45  2  0  0  0
 45 46  1  0  0  0
 46 47  2  0  0  0
  5  6  1  0  0  0
  6  7  1  0  0  0
  7  8  2  0  0  0
  7  9  1  0  0  0
  9 48  1  0  0  0
 48 49  1  0  0  0
 49 50  2  0  0  0
 50 51  1  0  0  0
 51 52  1  0  0  0
 52 53  2  0  0  0
 53 54  1  0  0  0
 54 55  2  0  0  0
 55 56  1  0  0  0
 56 57  2  0  0  0
  9 10  1  0  0  0
 10 11  1  0  0  0
 11 12  2  0  0  0
 11 13  1  0  0  0
 13 59  1  0  0  0
 59 60  1  0  0  0
 60 61  2  0  0  0
 61 62  1  0  0  0
 62 63  2  0  0  0
 63 64  1  0  0  0
 63 65  1  0  0  0
 65 66  2  0  0  0
 13 14  1  0  0  0
 14 15  1  0  0  0
 15 16  2  0  0  0
 15 17  1  0  0  0
 17 18  1  0  0  0
 18 19  1  0  0  0
 19 20  1  0  0  0
 20 21  1  0  0  0
 21 22  1  0  0  0
 22 23  2  0  0  0
 22 24  1  0  0  0
 24 68  1  0  0  0
 68 69  1  0  0  0
 69 70  2  0  0  0
 70 71  1  0  0  0
 71 72  2  0  0  0
 72 73  1  0  0  0
 24 25  1  0  0  0
 25 26  1  0  0  0
 26 27  2  0  0  0
 26 28  1  0  0  0
 28 75  1  0  0  0
 75 76  1  0  0  0
 76 77  2  0  0  0
 77 78  1  0  0  0
 78 79  2  0  0  0
 79 80  1  0  0  0
 80 81  2  0  0  0
 28 29  1  0  0  0
 29 30  1  0  0  0
 30 31  2  0  0  0
 30  1  1  0  0  0
 47 42  1  0  0  0
 57 49  1  0  0  0
 66 60  1  0  0  0
 21 17  1  0  0  0
 73 69  1  0  0  0
 81 76  1  0  0  0
 57 52  1  0  0  0
  2 32  1  0  0  0
  6 33  1  0  0  0
 51 58  1  0  0  0
 10 34  1  0  0  0
 64 67  1  0  0  0
 14 35  1  0  0  0
 73 74  1  0  0  0
 25 36  1  0  0  0
 29 37  1  0  0  0
M  END
> <minimizedAffinity>
-6.13248

> <CNNscore>
0.1102615744

> <CNNaffinity>
7.0318269730

> <CNN_VS>
0.7753403187

> <CNNaffinity_variance>
1.7770572901

$$$$
[H]c1c([H])c(N([H])C(=O)c2c(C([H])([H])[H])c(C(=O)C(=O)N([H])C3(C#N)C([H])([H])C(F)(F)C3([H])[H])c3n2C([H])([H])C([H])([H])C3([H])[H])c([H])c(Cl)c1F


 35 38  0  0  0  0  0  0  0  0999 V2000
    4.3734    5.2645   16.1065 C   0  0  0  0  0  0  0  0  0  0  0  0
    4.2809    6.5451   16.8935 C   0  0  0  0  0  0  0  0  0  0  0  0
    4.3739    7.8144   16.3134 C   0  0  0  0  0  0  0  0  0  0  0  0
    4.2567    8.7269   17.3183 C   0  0  0  0  0  0  0  0  0  0  0  0
    4.2467   10.2194   17.5837 C   0  0  0  0  0  0  0  0  0  0  0  0
    4.7562   10.2035   19.0326 C   0  0  0  0  0  0  0  0  0  0  0  0
    3.9661    9.0283   19.5605 C   0  0  0  0  0  0  0  0  0  0  0  0
    4.0991    8.0609   18.4602 N   0  0  0  0  0  0  0  0  0  0  0  0
    4.1102    6.7052   18.2253 C   0  0  0  0  0  0  0  0  0  0  0  0
    3.9466    5.7177   19.2782 C   0  0  0  0  0  0  0  0  0  0  0  0
    2.7554    5.5363   19.7319 O   0  0  0  0  0  0  0  0  0  0  0  0
    4.9371    4.9356   19.8591 N   0  0  0  0  0  0  0  0  0  0  0  0
    5.9276    5.0201   19.5497 H   0  0  0  0  0  0  0  0  0  0  0  0
    4.7073    3.9738   20.8840 C   0  0  0  0  0  0  0  0  0  0  0  0
    4.8421    4.3759   22.2322 C   0  0  0  0  0  0  0  0  0  0  0  0
    4.6697    3.5204   23.2886 C   0  0  0  0  0  0  0  0  0  0  0  0
    4.3486    2.1976   23.0558 C   0  0  0  0  0  0  0  0  0  0  0  0
    4.1818    1.3678   24.1149 F   0  0  0  0  0  0  0  0  0  0  0  0
    4.2102    1.7707   21.7694 C   0  0  0  0  0  0  0  0  0  0  0  0
    3.8037    0.0956   21.4736 Cl  0  0  0  0  0  0  0  0  0  0  0  0
    4.3916    2.6619   20.7105 C   0  0  0  0  0  0  0  0  0  0  0  0
    4.5600    8.1043   14.9071 C   0  0  0  0  0  0  0  0  0  0  0  0
    5.6594    8.6774   14.6068 O   0  0  0  0  0  0  0  0  0  0  0  0
    3.5818    7.7779   13.8840 C   0  0  0  0  0  0  0  0  0  0  0  0
    2.3670    7.7690   14.1836 O   0  0  0  0  0  0  0  0  0  0  0  0
    3.9945    7.4785   12.5841 N   0  0  0  0  0  0  0  0  0  0  0  0
    5.0256    7.4943   12.3622 H   0  0  0  0  0  0  0  0  0  0  0  0
    3.1007    7.1423   11.4990 C   0  0  0  0  0  0  0  0  0  0  0  0
    3.7113    7.3974   10.1400 C   0  0  0  0  0  0  0  0  0  0  0  0
    2.3607    7.9508    9.7070 C   0  0  0  0  0  0  0  0  0  0  0  0
    1.5677    6.9629    9.1404 F   0  0  0  0  0  0  0  0  0  0  0  0
    2.4383    9.0976    8.9482 F   0  0  0  0  0  0  0  0  0  0  0  0
    2.0660    8.1902   11.1784 C   0  0  0  0  0  0  0  0  0  0  0  0
    2.5673    5.7783   11.5546 C   0  0  0  0  0  0  0  0  0  0  0  0
    2.1643    4.6976   11.6057 N   0  0  0  0  0  0  0  0  0  0  0  0
  1  2  1  0  0  0
  2  3  1  0  0  0
  3 22  1  0  0  0
 22 23  2  0  0  0
 22 24  1  0  0  0
 24 25  2  0  0  0
 24 26  1  0  0  0
 26 28  1  0  0  0
 28 29  1  0  0  0
 29 30  1  0  0  0
 30 31  1  0  0  0
 30 32  1  0  0  0
 30 33  1  0  0  0
 28 34  1  0  0  0
 34 35  3  0  0  0
  3  4  2  0  0  0
  4  5  1  0  0  0
  5  6  1  0  0  0
  6  7  1  0  0  0
  7  8  1  0  0  0
  8  9  1  0  0  0
  9 10  1  0  0  0
 10 11  2  0  0  0
 10 12  1  0  0  0
 12 14  1  0  0  0
 14 15  2  0  0  0
 15 16  1  0  0  0
 16 17  2  0  0  0
 17 18  1  0  0  0
 17 19  1  0  0  0
 19 20  1  0  0  0
 19 21  2  0  0  0
  9  2  2  0  0  0
 21 14  1  0  0  0
 33 28  1  0  0  0
  8  4  1  0  0  0
 26 27  1  0  0  0
 12 13  1  0  0  0
M  END
> <minimizedAffinity>
-7.72018

> <CNNscore>
0.2443586588

> <CNNaffinity>
6.1427311897

> <CNN_VS>
1.5010296106

> <CNNaffinity_variance>
0.5632768273

$$$$
[H]c1c([H])c(N([H])C(=O)c2c(C([H])([H])[H])c(C(=O)C(=O)N([H])C3(C#N)C([H])([H])C(F)(F)C3([H])[H])c3n2C([H])([H])C([H])([H])C3([H])[H])c([H])c(Cl)c1F


 35 38  0  0  0  0  0  0  0  0999 V2000
    3.1900    2.9772   15.4942 C   0  0  0  0  0  0  0  0  0  0  0  0
    3.4637    4.4580   15.5030 C   0  0  0  0  0  0  0  0  0  0  0  0
    4.3546    5.0717   16.3896 C   0  0  0  0  0  0  0  0  0  0  0  0
    4.3413    6.4062   16.1159 C   0  0  0  0  0  0  0  0  0  0  0  0
    4.9510    7.7232   16.5538 C   0  0  0  0  0  0  0  0  0  0  0  0
    3.8093    8.6613   16.1346 C   0  0  0  0  0  0  0  0  0  0  0  0
    3.4617    8.0470   14.7982 C   0  0  0  0  0  0  0  0  0  0  0  0
    3.4891    6.6105   15.1139 N   0  0  0  0  0  0  0  0  0  0  0  0
    2.9305    5.4182   14.7142 C   0  0  0  0  0  0  0  0  0  0  0  0
    1.9698    5.3180   13.6290 C   0  0  0  0  0  0  0  0  0  0  0  0
    2.2424    4.4931   12.6789 O   0  0  0  0  0  0  0  0  0  0  0  0
    0.7760    6.0161   13.4955 N   0  0  0  0  0  0  0  0  0  0  0  0
    0.4806    6.7028   14.2201 H   0  0  0  0  0  0  0  0  0  0  0  0
   -0.1302    5.8626   12.4077 C   0  0  0  0  0  0  0  0  0  0  0  0
    0.1994    6.4480   11.1643 C   0  0  0  0  0  0  0  0  0  0  0  0
   -0.6173    6.3809   10.0661 C   0  0  0  0  0  0  0  0  0  0  0  0
   -1.8252    5.7166   10.1481 C   0  0  0  0  0  0  0  0  0  0  0  0
   -2.6184    5.6613    9.0498 F   0  0  0  0  0  0  0  0  0  0  0  0
   -2.1795    5.1390   11.3301 C   0  0  0  0  0  0  0  0  0  0  0  0
   -3.7092    4.2976   11.4349 Cl  0  0  0  0  0  0  0  0  0  0  0  0
   -1.3301    5.2219   12.4346 C   0  0  0  0  0  0  0  0  0  0  0  0
    5.1437    4.4114   17.4083 C   0  0  0  0  0  0  0  0  0  0  0  0
    6.4053    4.4270   17.2197 O   0  0  0  0  0  0  0  0  0  0  0  0
    4.5691    3.7664   18.5762 C   0  0  0  0  0  0  0  0  0  0  0  0
    3.4094    4.0728   18.9324 O   0  0  0  0  0  0  0  0  0  0  0  0
    5.3035    2.8173   19.2902 N   0  0  0  0  0  0  0  0  0  0  0  0
    6.2785    2.5800   18.9652 H   0  0  0  0  0  0  0  0  0  0  0  0
    4.8212    2.1220   20.4620 C   0  0  0  0  0  0  0  0  0  0  0  0
    4.2865    3.0612   21.5187 C   0  0  0  0  0  0  0  0  0  0  0  0
    4.9766    2.1861   22.5558 C   0  0  0  0  0  0  0  0  0  0  0  0
    4.1245    1.2002   23.0330 F   0  0  0  0  0  0  0  0  0  0  0  0
    5.6168    2.8901   23.5515 F   0  0  0  0  0  0  0  0  0  0  0  0
    5.8896    1.7055   21.4401 C   0  0  0  0  0  0  0  0  0  0  0  0
    3.8326    1.0769   20.1816 C   0  0  0  0  0  0  0  0  0  0  0  0
    3.0464    0.2561   19.9788 N   0  0  0  0  0  0  0  0  0  0  0  0
  1  2  1  0  0  0
  2  3  1  0  0  0
  3 22  1  0  0  0
 22 23  2  0  0  0
 22 24  1  0  0  0
 24 25  2  0  0  0
 24 26  1  0  0  0
 26 28  1  0  0  0
 28 29  1  0  0  0
 29 30  1  0  0  0
 30 31  1  0  0  0
 30 32  1  0  0  0
 30 33  1  0  0  0
 28 34  1  0  0  0
 34 35  3  0  0  0
  3  4  2  0  0  0
  4  5  1  0  0  0
  5  6  1  0  0  0
  6  7  1  0  0  0
  7  8  1  0  0  0
  8  9  1  0  0  0
  9 10  1  0  0  0
 10 11  2  0  0  0
 10 12  1  0  0  0
 12 14  1  0  0  0
 14 15  2  0  0  0
 15 16  1  0  0  0
 16 17  2  0  0  0
 17 18  1  0  0  0
 17 19  1  0  0  0
 19 20  1  0  0  0
 19 21  2  0  0  0
  9  2  2  0  0  0
 21 14  1  0  0  0
 33 28  1  0  0  0
  8  4  1  0  0  0
 26 27  1  0  0  0
 12 13  1  0  0  0
M  END
> <minimizedAffinity>
-7.73704

> <CNNscore>
0.2221906632

> <CNNaffinity>
6.3355364799

> <CNN_VS>
1.4076970816

> <CNNaffinity_variance>
0.5979647636

$$$$
[H]c1c([H])c(N([H])C(=O)c2c(C([H])([H])[H])c(C(=O)C(=O)N([H])C3(C#N)C([H])([H])C(F)(F)C3([H])[H])c3n2C([H])([H])C([H])([H])C3([H])[H])c([H])c(Cl)c1F


 35 38  0  0  0  0  0  0  0  0999 V2000
    5.8416    5.0636   19.0478 C   0  0  0  0  0  0  0  0  0  0  0  0
    5.1719    3.8200   19.5702 C   0  0  0  0  0  0  0  0  0  0  0  0
    5.1439    3.4707   20.9242 C   0  0  0  0  0  0  0  0  0  0  0  0
    4.4672    2.2924   21.0231 C   0  0  0  0  0  0  0  0  0  0  0  0
    3.9998    1.2625   22.0325 C   0  0  0  0  0  0  0  0  0  0  0  0
    3.9661    0.0319   21.1138 C   0  0  0  0  0  0  0  0  0  0  0  0
    3.3573    0.6595   19.8810 C   0  0  0  0  0  0  0  0  0  0  0  0
    4.0947    1.9296   19.7976 N   0  0  0  0  0  0  0  0  0  0  0  0
    4.5190    2.8600   18.8768 C   0  0  0  0  0  0  0  0  0  0  0  0
    4.2508    2.7452   17.4537 C   0  0  0  0  0  0  0  0  0  0  0  0
    4.7521    1.7289   16.8427 O   0  0  0  0  0  0  0  0  0  0  0  0
    3.5063    3.6139   16.6654 N   0  0  0  0  0  0  0  0  0  0  0  0
    3.0660    4.4606   17.0815 H   0  0  0  0  0  0  0  0  0  0  0  0
    3.2711    3.4371   15.2719 C   0  0  0  0  0  0  0  0  0  0  0  0
    4.0200    4.2098   14.3556 C   0  0  0  0  0  0  0  0  0  0  0  0
    3.8489    4.1338   12.9982 C   0  0  0  0  0  0  0  0  0  0  0  0
    2.9082    3.2707   12.4718 C   0  0  0  0  0  0  0  0  0  0  0  0
    2.7551    3.2102   11.1260 F   0  0  0  0  0  0  0  0  0  0  0  0
    2.1654    2.5086   13.3226 C   0  0  0  0  0  0  0  0  0  0  0  0
    0.9737    1.4153   12.6567 Cl  0  0  0  0  0  0  0  0  0  0  0  0
    2.3584    2.6048   14.7017 C   0  0  0  0  0  0  0  0  0  0  0  0
    5.7258    4.2216   22.0169 C   0  0  0  0  0  0  0  0  0  0  0  0
    6.4284    3.5413   22.8360 O   0  0  0  0  0  0  0  0  0  0  0  0
    5.5414    5.6512   22.1962 C   0  0  0  0  0  0  0  0  0  0  0  0
    4.3892    6.0962   22.3969 O   0  0  0  0  0  0  0  0  0  0  0  0
    6.6371    6.5154   22.1448 N   0  0  0  0  0  0  0  0  0  0  0  0
    7.5958    6.1102   21.9741 H   0  0  0  0  0  0  0  0  0  0  0  0
    6.5568    7.9490   22.3107 C   0  0  0  0  0  0  0  0  0  0  0  0
    7.8807    8.6387   22.0733 C   0  0  0  0  0  0  0  0  0  0  0  0
    7.5635    9.5222   23.2719 C   0  0  0  0  0  0  0  0  0  0  0  0
    6.9137   10.6855   22.8846 F   0  0  0  0  0  0  0  0  0  0  0  0
    8.6347    9.7422   24.1093 F   0  0  0  0  0  0  0  0  0  0  0  0
    6.6164    8.4291   23.7381 C   0  0  0  0  0  0  0  0  0  0  0  0
    5.5117    8.5934   21.5104 C   0  0  0  0  0  0  0  0  0  0  0  0
    4.6862    9.1147   20.8941 N   0  0  0  0  0  0  0  0  0  0  0  0
  1  2  1  0  0  0
  2  3  1  0  0  0
  3 22  1  0  0  0
 22 23  2  0  0  0
 22 24  1  0  0  0
 24 25  2  0  0  0
 24 26  1  0  0  0
 26 28  1  0  0  0
 28 29  1  0  0  0
 29 30  1  0  0  0
 30 31  1  0  0  0
 30 32  1  0  0  0
 30 33  1  0  0  0
 28 34  1  0  0  0
 34 35  3  0  0  0
  3  4  2  0  0  0
  4  5  1  0  0  0
  5  6  1  0  0  0
  6  7  1  0  0  0
  7  8  1  0  0  0
  8  9  1  0  0  0
  9 10  1  0  0  0
 10 11  2  0  0  0
 10 12  1  0  0  0
 12 14  1  0  0  0
 14 15  2  0  0  0
 15 16  1  0  0  0
 16 17  2  0  0  0
 17 18  1  0  0  0
 17 19  1  0  0  0
 19 20  1  0  0  0
 19 21  2  0  0  0
  9  2  2  0  0  0
 21 14  1  0  0  0
 33 28  1  0  0  0
  8  4  1  0  0  0
 26 27  1  0  0  0
 12 13  1  0  0  0
M  END
> <minimizedAffinity>
-8.06946

> <CNNscore>
0.2199021578

> <CNNaffinity>
6.4178266525

> <CNN_VS>
1.4112939835

> <CNNaffinity_variance>
0.1741997898

$$$$
[H]c1c([H])c(N([H])C(=O)c2c(C([H])([H])[H])c(C(=O)C(=O)N([H])C3(C#N)C([H])([H])C(F)(F)C3([H])[H])c3n2C([H])([H])C([H])([H])C3([H])[H])c([H])c(Cl)c1F


 35 38  0  0  0  0  0  0  0  0999 V2000
    4.3003    5.5819   16.0383 C   0  0  0  0  0  0  0  0  0  0  0  0
    4.1714    6.8480   16.8436 C   0  0  0  0  0  0  0  0  0  0  0  0
    4.1207    8.1233   16.2715 C   0  0  0  0  0  0  0  0  0  0  0  0
    4.0125    9.0194   17.2919 C   0  0  0  0  0  0  0  0  0  0  0  0
    3.9085   10.5054   17.5730 C   0  0  0  0  0  0  0  0  0  0  0  0
    4.5296   10.5226   18.9778 C   0  0  0  0  0  0  0  0  0  0  0  0
    3.8761    9.2872   19.5530 C   0  0  0  0  0  0  0  0  0  0  0  0
    3.9966    8.3381   18.4356 N   0  0  0  0  0  0  0  0  0  0  0  0
    4.0936    6.9883   18.1862 C   0  0  0  0  0  0  0  0  0  0  0  0
    4.0894    5.9864   19.2382 C   0  0  0  0  0  0  0  0  0  0  0  0
    3.1968    5.0616   19.1635 O   0  0  0  0  0  0  0  0  0  0  0  0
    4.9473    5.9077   20.3282 N   0  0  0  0  0  0  0  0  0  0  0  0
    5.6980    6.6164   20.4632 H   0  0  0  0  0  0  0  0  0  0  0  0
    4.8966    4.8890   21.3221 C   0  0  0  0  0  0  0  0  0  0  0  0
    4.0459    5.0716   22.4359 C   0  0  0  0  0  0  0  0  0  0  0  0
    3.9469    4.1645   23.4580 C   0  0  0  0  0  0  0  0  0  0  0  0
    4.7014    3.0083   23.4257 C   0  0  0  0  0  0  0  0  0  0  0  0
    4.5883    2.1234   24.4467 F   0  0  0  0  0  0  0  0  0  0  0  0
    5.5344    2.7956   22.3687 C   0  0  0  0  0  0  0  0  0  0  0  0
    6.4904    1.3316   22.3270 Cl  0  0  0  0  0  0  0  0  0  0  0  0
    5.6176    3.7354   21.3400 C   0  0  0  0  0  0  0  0  0  0  0  0
    4.1732    8.4330   14.8581 C   0  0  0  0  0  0  0  0  0  0  0  0
    5.3169    8.7863   14.4169 O   0  0  0  0  0  0  0  0  0  0  0  0
    3.0214    8.3567   13.9763 C   0  0  0  0  0  0  0  0  0  0  0  0
    2.2649    9.3483   13.8753 O   0  0  0  0  0  0  0  0  0  0  0  0
    2.7641    7.1909   13.2520 N   0  0  0  0  0  0  0  0  0  0  0  0
    3.4201    6.3718   13.3581 H   0  0  0  0  0  0  0  0  0  0  0  0
    1.6471    7.0172   12.3511 C   0  0  0  0  0  0  0  0  0  0  0  0
    0.3132    7.2401   13.0261 C   0  0  0  0  0  0  0  0  0  0  0  0
   -0.2089    6.0389   12.2501 C   0  0  0  0  0  0  0  0  0  0  0  0
   -0.7796    6.4246   11.0454 F   0  0  0  0  0  0  0  0  0  0  0  0
   -1.0039    5.1918   12.9900 F   0  0  0  0  0  0  0  0  0  0  0  0
    1.2355    5.5866   12.1155 C   0  0  0  0  0  0  0  0  0  0  0  0
    1.7246    7.8221   11.1287 C   0  0  0  0  0  0  0  0  0  0  0  0
    1.8050    8.4582   10.1686 N   0  0  0  0  0  0  0  0  0  0  0  0
  1  2  1  0  0  0
  2  3  1  0  0  0
  3 22  1  0  0  0
 22 23  2  0  0  0
 22 24  1  0  0  0
 24 25  2  0  0  0
 24 26  1  0  0  0
 26 28  1  0  0  0
 28 29  1  0  0  0
 29 30  1  0  0  0
 30 31  1  0  0  0
 30 32  1  0  0  0
 30 33  1  0  0  0
 28 34  1  0  0  0
 34 35  3  0  0  0
  3  4  2  0  0  0
  4  5  1  0  0  0
  5  6  1  0  0  0
  6  7  1  0  0  0
  7  8  1  0  0  0
  8  9  1  0  0  0
  9 10  1  0  0  0
 10 11  2  0  0  0
 10 12  1  0  0  0
 12 14  1  0  0  0
 14 15  2  0  0  0
 15 16  1  0  0  0
 16 17  2  0  0  0
 17 18  1  0  0  0
 17 19  1  0  0  0
 19 20  1  0  0  0
 19 21  2  0  0  0
  9  2  2  0  0  0
 21 14  1  0  0  0
 33 28  1  0  0  0
  8  4  1  0  0  0
 26 27  1  0  0  0
 12 13  1  0  0  0
M  END
> <minimizedAffinity>
-8.62231

> <CNNscore>
0.2048589587

> <CNNaffinity>
5.8026862144

> <CNN_VS>
1.1887322664

> <CNNaffinity_variance>
0.1067213416

$$$$
[H]c1c([H])c(N([H])C(=O)c2c(C([H])([H])[H])c(C(=O)C(=O)N([H])C3(C#N)C([H])([H])C(F)(F)C3([H])[H])c3n2C([H])([H])C([H])([H])C3([H])[H])c([H])c(Cl)c1F


 35 38  0  0  0  0  0  0  0  0999 V2000
    4.0125    2.2307   16.6369 C   0  0  0  0  0  0  0  0  0  0  0  0
    4.0114    3.6615   16.1670 C   0  0  0  0  0  0  0  0  0  0  0  0
    4.5828    4.7115   16.8932 C   0  0  0  0  0  0  0  0  0  0  0  0
    4.3879    5.8522   16.1744 C   0  0  0  0  0  0  0  0  0  0  0  0
    4.6535    7.3445   16.2034 C   0  0  0  0  0  0  0  0  0  0  0  0
    3.4710    7.8101   15.3407 C   0  0  0  0  0  0  0  0  0  0  0  0
    3.5134    6.7471   14.2673 C   0  0  0  0  0  0  0  0  0  0  0  0
    3.7316    5.5288   15.0623 N   0  0  0  0  0  0  0  0  0  0  0  0
    3.4854    4.1753   15.0322 C   0  0  0  0  0  0  0  0  0  0  0  0
    2.7953    3.5201   13.9345 C   0  0  0  0  0  0  0  0  0  0  0  0
    1.7590    2.8158   14.2303 O   0  0  0  0  0  0  0  0  0  0  0  0
    3.1263    3.5660   12.5859 N   0  0  0  0  0  0  0  0  0  0  0  0
    3.9504    4.1135   12.2615 H   0  0  0  0  0  0  0  0  0  0  0  0
    2.3985    2.9071   11.5543 C   0  0  0  0  0  0  0  0  0  0  0  0
    1.2561    3.5441   11.0189 C   0  0  0  0  0  0  0  0  0  0  0  0
    0.4737    2.9815   10.0448 C   0  0  0  0  0  0  0  0  0  0  0  0
    0.7916    1.7347    9.5434 C   0  0  0  0  0  0  0  0  0  0  0  0
    0.0048    1.1961    8.5795 F   0  0  0  0  0  0  0  0  0  0  0  0
    1.8856    1.0876   10.0341 C   0  0  0  0  0  0  0  0  0  0  0  0
    2.2890   -0.4915    9.3997 Cl  0  0  0  0  0  0  0  0  0  0  0  0
    2.6663    1.6820   11.0268 C   0  0  0  0  0  0  0  0  0  0  0  0
    5.2560    4.6054   18.1706 C   0  0  0  0  0  0  0  0  0  0  0  0
    6.4196    5.1258   18.2215 O   0  0  0  0  0  0  0  0  0  0  0  0
    4.6741    3.9575   19.3333 C   0  0  0  0  0  0  0  0  0  0  0  0
    3.5928    4.3879   19.7928 O   0  0  0  0  0  0  0  0  0  0  0  0
    5.3151    2.8689   19.9283 N   0  0  0  0  0  0  0  0  0  0  0  0
    6.2254    2.5291   19.5179 H   0  0  0  0  0  0  0  0  0  0  0  0
    4.8177    2.1588   21.0848 C   0  0  0  0  0  0  0  0  0  0  0  0
    4.3966    3.0857   22.2019 C   0  0  0  0  0  0  0  0  0  0  0  0
    5.0480    2.1100   23.1721 C   0  0  0  0  0  0  0  0  0  0  0  0
    4.1354    1.1731   23.6359 F   0  0  0  0  0  0  0  0  0  0  0  0
    5.7762    2.7125   24.1739 F   0  0  0  0  0  0  0  0  0  0  0  0
    5.8810    1.6125   22.0026 C   0  0  0  0  0  0  0  0  0  0  0  0
    3.7388    1.2101   20.7947 C   0  0  0  0  0  0  0  0  0  0  0  0
    2.8867    0.4597   20.5856 N   0  0  0  0  0  0  0  0  0  0  0  0
  1  2  1  0  0  0
  2  3  1  0  0  0
  3 22  1  0  0  0
 22 23  2  0  0  0
 22 24  1  0  0  0
 24 25  2  0  0  0
 24 26  1  0  0  0
 26 28  1  0  0  0
 28 29  1  0  0  0
 29 30  1  0  0  0
 30 31  1  0  0  0
 30 32  1  0  0  0
 30 33  1  0  0  0
 28 34  1  0  0  0
 34 35  3  0  0  0
  3  4  2  0  0  0
  4  5  1  0  0  0
  5  6  1  0  0  0
  6  7  1  0  0  0
  7  8  1  0  0  0
  8  9  1  0  0  0
  9 10  1  0  0  0
 10 11  2  0  0  0
 10 12  1  0  0  0
 12 14  1  0  0  0
 14 15  2  0  0  0
 15 16  1  0  0  0
 16 17  2  0  0  0
 17 18  1  0  0  0
 17 19  1  0  0  0
 19 20  1  0  0  0
 19 21  2  0  0  0
  9  2  2  0  0  0
 21 14  1  0  0  0
 33 28  1  0  0  0
  8  4  1  0  0  0
 26 27  1  0  0  0
 12 13  1  0  0  0
M  END
> <minimizedAffinity>
-7.32427

> <CNNscore>
0.2026634216

> <CNNaffinity>
6.5304269791

> <CNN_VS>
1.3234786987

> <CNNaffinity_variance>
0.4312777519

$$$$
[H]c1c([H])c(N([H])C(=O)c2c(C([H])([H])[H])c(C(=O)C(=O)N([H])C3(C#N)C([H])([H])C(F)(F)C3([H])[H])c3n2C([H])([H])C([H])([H])C3([H])[H])c([H])c(Cl)c1F


 35 38  0  0  0  0  0  0  0  0999 V2000
    5.4291    3.8988   17.7403 C   0  0  0  0  0  0  0  0  0  0  0  0
    4.9579    3.0197   18.8687 C   0  0  0  0  0  0  0  0  0  0  0  0
    4.1585    1.8875   18.6811 C   0  0  0  0  0  0  0  0  0  0  0  0
    3.9238    1.3510   19.9112 C   0  0  0  0  0  0  0  0  0  0  0  0
    3.2074    0.2063   20.6001 C   0  0  0  0  0  0  0  0  0  0  0  0
    2.9684    0.8670   21.9660 C   0  0  0  0  0  0  0  0  0  0  0  0
    4.3067    1.5442   22.1515 C   0  0  0  0  0  0  0  0  0  0  0  0
    4.5436    2.1083   20.8137 N   0  0  0  0  0  0  0  0  0  0  0  0
    5.1934    3.1509   20.1938 C   0  0  0  0  0  0  0  0  0  0  0  0
    5.9706    4.1421   20.9175 C   0  0  0  0  0  0  0  0  0  0  0  0
    6.6842    3.7221   21.9034 O   0  0  0  0  0  0  0  0  0  0  0  0
    6.0355    5.5071   20.6666 N   0  0  0  0  0  0  0  0  0  0  0  0
    5.4889    5.9285   19.8870 H   0  0  0  0  0  0  0  0  0  0  0  0
    6.8292    6.4266   21.4100 C   0  0  0  0  0  0  0  0  0  0  0  0
    8.0900    6.8036   20.8945 C   0  0  0  0  0  0  0  0  0  0  0  0
    8.9390    7.6591   21.5462 C   0  0  0  0  0  0  0  0  0  0  0  0
    8.5727    8.1937   22.7656 C   0  0  0  0  0  0  0  0  0  0  0  0
    9.4270    9.0386   23.3938 F   0  0  0  0  0  0  0  0  0  0  0  0
    7.3647    7.8543   23.2966 C   0  0  0  0  0  0  0  0  0  0  0  0
    6.8999    8.5309   24.8410 Cl  0  0  0  0  0  0  0  0  0  0  0  0
    6.5179    6.9803   22.6131 C   0  0  0  0  0  0  0  0  0  0  0  0
    3.6715    1.3802   17.4155 C   0  0  0  0  0  0  0  0  0  0  0  0
    3.8973    0.1438   17.1975 O   0  0  0  0  0  0  0  0  0  0  0  0
    2.9707    2.1968   16.4397 C   0  0  0  0  0  0  0  0  0  0  0  0
    1.7371    2.3672   16.5616 O   0  0  0  0  0  0  0  0  0  0  0  0
    3.6669    2.7827   15.3805 N   0  0  0  0  0  0  0  0  0  0  0  0
    4.7064    2.6207   15.3046 H   0  0  0  0  0  0  0  0  0  0  0  0
    3.0613    3.6095   14.3612 C   0  0  0  0  0  0  0  0  0  0  0  0
    2.2857    2.8058   13.3428 C   0  0  0  0  0  0  0  0  0  0  0  0
    2.8697    3.7170   12.2722 C   0  0  0  0  0  0  0  0  0  0  0  0
    2.0373    4.7982   12.0195 F   0  0  0  0  0  0  0  0  0  0  0  0
    3.2790    3.0589   11.1336 F   0  0  0  0  0  0  0  0  0  0  0  0
    3.9883    4.0332   13.2510 C   0  0  0  0  0  0  0  0  0  0  0  0
    2.2222    4.6933   14.8806 C   0  0  0  0  0  0  0  0  0  0  0  0
    1.5453    5.5377   15.2828 N   0  0  0  0  0  0  0  0  0  0  0  0
  1  2  1  0  0  0
  2  3  1  0  0  0
  3 22  1  0  0  0
 22 23  2  0  0  0
 22 24  1  0  0  0
 24 25  2  0  0  0
 24 26  1  0  0  0
 26 28  1  0  0  0
 28 29  1  0  0  0
 29 30  1  0  0  0
 30 31  1  0  0  0
 30 32  1  0  0  0
 30 33  1  0  0  0
 28 34  1  0  0  0
 34 35  3  0  0  0
  3  4  2  0  0  0
  4  5  1  0  0  0
  5  6  1  0  0  0
  6  7  1  0  0  0
  7  8  1  0  0  0
  8  9  1  0  0  0
  9 10  1  0  0  0
 10 11  2  0  0  0
 10 12  1  0  0  0
 12 14  1  0  0  0
 14 15  2  0  0  0
 15 16  1  0  0  0
 16 17  2  0  0  0
 17 18  1  0  0  0
 17 19  1  0  0  0
 19 20  1  0  0  0
 19 21  2  0  0  0
  9  2  2  0  0  0
 21 14  1  0  0  0
 33 28  1  0  0  0
  8  4  1  0  0  0
 26 27  1  0  0  0
 12 13  1  0  0  0
M  END
> <minimizedAffinity>
-8.47491

> <CNNscore>
0.1910253912

> <CNNaffinity>
6.4852843285

> <CNN_VS>
1.2388539314

> <CNNaffinity_variance>
0.0847620815

$$$$
[H]c1c([H])c(N([H])C(=O)c2c(C([H])([H])[H])c(C(=O)C(=O)N([H])C3(C#N)C([H])([H])C(F)(F)C3([H])[H])c3n2C([H])([H])C([H])([H])C3([H])[H])c([H])c(Cl)c1F


 35 38  0  0  0  0  0  0  0  0999 V2000
    3.3365    2.4669   14.3062 C   0  0  0  0  0  0  0  0  0  0  0  0
    3.4857    3.9588   14.4469 C   0  0  0  0  0  0  0  0  0  0  0  0
    3.4802    4.8396   13.3604 C   0  0  0  0  0  0  0  0  0  0  0  0
    3.6453    6.0966   13.8591 C   0  0  0  0  0  0  0  0  0  0  0  0
    3.7547    7.5475   13.4336 C   0  0  0  0  0  0  0  0  0  0  0  0
    4.6020    8.0717   14.6028 C   0  0  0  0  0  0  0  0  0  0  0  0
    3.9226    7.3506   15.7441 C   0  0  0  0  0  0  0  0  0  0  0  0
    3.7475    6.0021   15.1831 N   0  0  0  0  0  0  0  0  0  0  0  0
    3.6516    4.6864   15.5746 C   0  0  0  0  0  0  0  0  0  0  0  0
    3.7143    4.2670   16.9640 C   0  0  0  0  0  0  0  0  0  0  0  0
    2.7152    4.5752   17.7153 O   0  0  0  0  0  0  0  0  0  0  0  0
    4.7386    3.5625   17.5845 N   0  0  0  0  0  0  0  0  0  0  0  0
    5.5831    3.2742   17.0481 H   0  0  0  0  0  0  0  0  0  0  0  0
    4.7333    3.1709   18.9537 C   0  0  0  0  0  0  0  0  0  0  0  0
    5.2506    4.0674   19.9161 C   0  0  0  0  0  0  0  0  0  0  0  0
    5.3155    3.7738   21.2530 C   0  0  0  0  0  0  0  0  0  0  0  0
    4.8617    2.5525   21.7107 C   0  0  0  0  0  0  0  0  0  0  0  0
    4.9344    2.2819   23.0373 F   0  0  0  0  0  0  0  0  0  0  0  0
    4.3561    1.6602   20.8138 C   0  0  0  0  0  0  0  0  0  0  0  0
    3.7812    0.1132   21.3927 Cl  0  0  0  0  0  0  0  0  0  0  0  0
    4.3012    1.9831   19.4570 C   0  0  0  0  0  0  0  0  0  0  0  0
    3.3275    4.4818   11.9658 C   0  0  0  0  0  0  0  0  0  0  0  0
    2.1242    4.3922   11.5519 O   0  0  0  0  0  0  0  0  0  0  0  0
    4.4467    4.2353   11.0731 C   0  0  0  0  0  0  0  0  0  0  0  0
    5.5290    4.8300   11.2748 O   0  0  0  0  0  0  0  0  0  0  0  0
    4.3137    3.3460   10.0048 N   0  0  0  0  0  0  0  0  0  0  0  0
    3.3888    2.8598    9.8608 H   0  0  0  0  0  0  0  0  0  0  0  0
    5.3658    3.0346    9.0638 C   0  0  0  0  0  0  0  0  0  0  0  0
    5.1729    1.6923    8.3963 C   0  0  0  0  0  0  0  0  0  0  0  0
    6.6696    1.4667    8.5599 C   0  0  0  0  0  0  0  0  0  0  0  0
    7.3707    1.8964    7.4421 F   0  0  0  0  0  0  0  0  0  0  0  0
    7.0070    0.1947    8.9664 F   0  0  0  0  0  0  0  0  0  0  0  0
    6.6310    2.4940    9.6790 C   0  0  0  0  0  0  0  0  0  0  0  0
    5.5931    4.0656    8.0471 C   0  0  0  0  0  0  0  0  0  0  0  0
    5.7896    4.8818    7.2546 N   0  0  0  0  0  0  0  0  0  0  0  0
  1  2  1  0  0  0
  2  3  1  0  0  0
  3 22  1  0  0  0
 22 23  2  0  0  0
 22 24  1  0  0  0
 24 25  2  0  0  0
 24 26  1  0  0  0
 26 28  1  0  0  0
 28 29  1  0  0  0
 29 30  1  0  0  0
 30 31  1  0  0  0
 30 32  1  0  0  0
 30 33  1  0  0  0
 28 34  1  0  0  0
 34 35  3  0  0  0
  3  4  2  0  0  0
  4  5  1  0  0  0
  5  6  1  0  0  0
  6  7  1  0  0  0
  7  8  1  0  0  0
  8  9  1  0  0  0
  9 10  1  0  0  0
 10 11  2  0  0  0
 10 12  1  0  0  0
 12 14  1  0  0  0
 14 15  2  0  0  0
 15 16  1  0  0  0
 16 17  2  0  0  0
 17 18  1  0  0  0
 17 19  1  0  0  0
 19 20  1  0  0  0
 19 21  2  0  0  0
  9  2  2  0  0  0
 21 14  1  0  0  0
 33 28  1  0  0  0
  8  4  1  0  0  0
 26 27  1  0  0  0
 12 13  1  0  0  0
M  END
> <minimizedAffinity>
-7.17422

> <CNNscore>
0.1768706888

> <CNNaffinity>
5.9504780769

> <CNN_VS>
1.0524652004

> <CNNaffinity_variance>
0.2996673286

$$$$
[H]c1c([H])c(N([H])C(=O)c2c(C([H])([H])[H])c(C(=O)C(=O)N([H])C3(C#N)C([H])([H])C(F)(F)C3([H])[H])c3n2C([H])([H])C([H])([H])C3([H])[H])c([H])c(Cl)c1F


 35 38  0  0  0  0  0  0  0  0999 V2000
    2.5485    4.2159   14.2520 C   0  0  0  0  0  0  0  0  0  0  0  0
    2.9834    5.6248   14.5580 C   0  0  0  0  0  0  0  0  0  0  0  0
    3.1195    6.6183   13.5829 C   0  0  0  0  0  0  0  0  0  0  0  0
    3.5339    7.7511   14.2161 C   0  0  0  0  0  0  0  0  0  0  0  0
    3.9080    9.1973   13.9576 C   0  0  0  0  0  0  0  0  0  0  0  0
    4.8684    9.4059   15.1381 C   0  0  0  0  0  0  0  0  0  0  0  0
    4.0921    8.6892   16.2188 C   0  0  0  0  0  0  0  0  0  0  0  0
    3.6488    7.4767   15.5137 N   0  0  0  0  0  0  0  0  0  0  0  0
    3.3130    6.1640   15.7535 C   0  0  0  0  0  0  0  0  0  0  0  0
    3.3288    5.5722   17.0802 C   0  0  0  0  0  0  0  0  0  0  0  0
    2.2160    5.1025   17.5259 O   0  0  0  0  0  0  0  0  0  0  0  0
    4.4179    5.4513   17.9343 N   0  0  0  0  0  0  0  0  0  0  0  0
    5.3549    5.8054   17.6505 H   0  0  0  0  0  0  0  0  0  0  0  0
    4.3684    4.8480   19.2233 C   0  0  0  0  0  0  0  0  0  0  0  0
    3.9462    5.6311   20.3215 C   0  0  0  0  0  0  0  0  0  0  0  0
    3.8907    5.1522   21.6042 C   0  0  0  0  0  0  0  0  0  0  0  0
    4.2584    3.8472   21.8666 C   0  0  0  0  0  0  0  0  0  0  0  0
    4.1957    3.3929   23.1425 F   0  0  0  0  0  0  0  0  0  0  0  0
    4.6718    3.0599   20.8343 C   0  0  0  0  0  0  0  0  0  0  0  0
    5.1377    1.4070   21.1658 Cl  0  0  0  0  0  0  0  0  0  0  0  0
    4.7199    3.5716   19.5366 C   0  0  0  0  0  0  0  0  0  0  0  0
    2.8668    6.4700   12.1650 C   0  0  0  0  0  0  0  0  0  0  0  0
    3.8818    6.1600   11.4572 O   0  0  0  0  0  0  0  0  0  0  0  0
    1.5596    6.6546   11.5590 C   0  0  0  0  0  0  0  0  0  0  0  0
    1.1312    7.8161   11.3771 O   0  0  0  0  0  0  0  0  0  0  0  0
    0.7932    5.5488   11.1854 N   0  0  0  0  0  0  0  0  0  0  0  0
    1.1815    4.5822   11.3516 H   0  0  0  0  0  0  0  0  0  0  0  0
   -0.5156    5.6283   10.5772 C   0  0  0  0  0  0  0  0  0  0  0  0
   -1.5929    6.0242   11.5607 C   0  0  0  0  0  0  0  0  0  0  0  0
   -2.4887    4.9848   10.9013 C   0  0  0  0  0  0  0  0  0  0  0  0
   -3.2459    5.5439    9.8815 F   0  0  0  0  0  0  0  0  0  0  0  0
   -3.2281    4.2336   11.7879 F   0  0  0  0  0  0  0  0  0  0  0  0
   -1.2210    4.3070   10.4088 C   0  0  0  0  0  0  0  0  0  0  0  0
   -0.5822    6.4920    9.3949 C   0  0  0  0  0  0  0  0  0  0  0  0
   -0.6239    7.1591    8.4536 N   0  0  0  0  0  0  0  0  0  0  0  0
  1  2  1  0  0  0
  2  3  1  0  0  0
  3 22  1  0  0  0
 22 23  2  0  0  0
 22 24  1  0  0  0
 24 25  2  0  0  0
 24 26  1  0  0  0
 26 28  1  0  0  0
 28 29  1  0  0  0
 29 30  1  0  0  0
 30 31  1  0  0  0
 30 32  1  0  0  0
 30 33  1  0  0  0
 28 34  1  0  0  0
 34 35  3  0  0  0
  3  4  2  0  0  0
  4  5  1  0  0  0
  5  6  1  0  0  0
  6  7  1  0  0  0
  7  8  1  0  0  0
  8  9  1  0  0  0
  9 10  1  0  0  0
 10 11  2  0  0  0
 10 12  1  0  0  0
 12 14  1  0  0  0
 14 15  2  0  0  0
 15 16  1  0  0  0
 16 17  2  0  0  0
 17 18  1  0  0  0
 17 19  1  0  0  0
 19 20  1  0  0  0
 19 21  2  0  0  0
  9  2  2  0  0  0
 21 14  1  0  0  0
 33 28  1  0  0  0
  8  4  1  0  0  0
 26 27  1  0  0  0
 12 13  1  0  0  0
M  END
> <minimizedAffinity>
-7.40674

> <CNNscore>
0.1747531295

> <CNNaffinity>
5.6608200073

> <CNN_VS>
0.9892460108

> <CNNaffinity_variance>
0.3197611868

$$$$
[H]c1c([H])c(N([H])C(=O)c2c(C([H])([H])[H])c(C(=O)C(=O)N([H])C3(C#N)C([H])([H])C(F)(F)C3([H])[H])c3n2C([H])([H])C([H])([H])C3([H])[H])c([H])c(Cl)c1F


 35 38  0  0  0  0  0  0  0  0999 V2000
    4.6093    4.7102   18.3943 C   0  0  0  0  0  0  0  0  0  0  0  0
    4.4517    3.7078   19.5071 C   0  0  0  0  0  0  0  0  0  0  0  0
    4.0580    2.3818   19.2997 C   0  0  0  0  0  0  0  0  0  0  0  0
    4.0146    1.7781   20.5202 C   0  0  0  0  0  0  0  0  0  0  0  0
    3.7080    0.4526   21.1888 C   0  0  0  0  0  0  0  0  0  0  0  0
    3.2761    0.9787   22.5658 C   0  0  0  0  0  0  0  0  0  0  0  0
    4.3265    2.0472   22.7636 C   0  0  0  0  0  0  0  0  0  0  0  0
    4.3625    2.6796   21.4359 N   0  0  0  0  0  0  0  0  0  0  0  0
    4.6393    3.8858   20.8344 C   0  0  0  0  0  0  0  0  0  0  0  0
    5.0601    5.0623   21.5755 C   0  0  0  0  0  0  0  0  0  0  0  0
    4.3731    5.3749   22.6186 O   0  0  0  0  0  0  0  0  0  0  0  0
    6.1310    5.8992   21.2876 N   0  0  0  0  0  0  0  0  0  0  0  0
    6.7379    5.7170   20.4615 H   0  0  0  0  0  0  0  0  0  0  0  0
    6.4981    7.0350   22.0645 C   0  0  0  0  0  0  0  0  0  0  0  0
    5.9124    8.2838   21.7564 C   0  0  0  0  0  0  0  0  0  0  0  0
    6.2198    9.4394   22.4254 C   0  0  0  0  0  0  0  0  0  0  0  0
    7.1415    9.4134   23.4535 C   0  0  0  0  0  0  0  0  0  0  0  0
    7.4311   10.5677   24.1031 F   0  0  0  0  0  0  0  0  0  0  0  0
    7.7289    8.2284   23.7807 C   0  0  0  0  0  0  0  0  0  0  0  0
    8.8963    8.1945   25.0826 Cl  0  0  0  0  0  0  0  0  0  0  0  0
    7.3990    7.0650   23.0835 C   0  0  0  0  0  0  0  0  0  0  0  0
    3.7535    1.7659   18.0252 C   0  0  0  0  0  0  0  0  0  0  0  0
    3.4999    0.5164   18.0674 O   0  0  0  0  0  0  0  0  0  0  0  0
    3.7302    2.4926   16.7676 C   0  0  0  0  0  0  0  0  0  0  0  0
    4.7962    2.6388   16.1288 O   0  0  0  0  0  0  0  0  0  0  0  0
    2.5327    3.0203   16.2804 N   0  0  0  0  0  0  0  0  0  0  0  0
    1.6506    2.8805   16.8416 H   0  0  0  0  0  0  0  0  0  0  0  0
    2.4067    3.7567   15.0430 C   0  0  0  0  0  0  0  0  0  0  0  0
    3.7396    4.2202   14.5018 C   0  0  0  0  0  0  0  0  0  0  0  0
    3.0669    5.5401   14.1509 C   0  0  0  0  0  0  0  0  0  0  0  0
    2.5710    5.5259   12.8549 F   0  0  0  0  0  0  0  0  0  0  0  0
    3.8251    6.6534   14.4385 F   0  0  0  0  0  0  0  0  0  0  0  0
    2.0203    5.2050   15.2005 C   0  0  0  0  0  0  0  0  0  0  0  0
    1.6628    3.0542   13.9936 C   0  0  0  0  0  0  0  0  0  0  0  0
    1.0911    2.4872   13.1662 N   0  0  0  0  0  0  0  0  0  0  0  0
  1  2  1  0  0  0
  2  3  1  0  0  0
  3 22  1  0  0  0
 22 23  2  0  0  0
 22 24  1  0  0  0
 24 25  2  0  0  0
 24 26  1  0  0  0
 26 28  1  0  0  0
 28 29  1  0  0  0
 29 30  1  0  0  0
 30 31  1  0  0  0
 30 32  1  0  0  0
 30 33  1  0  0  0
 28 34  1  0  0  0
 34 35  3  0  0  0
  3  4  2  0  0  0
  4  5  1  0  0  0
  5  6  1  0  0  0
  6  7  1  0  0  0
  7  8  1  0  0  0
  8  9  1  0  0  0
  9 10  1  0  0  0
 10 11  2  0  0  0
 10 12  1  0  0  0
 12 14  1  0  0  0
 14 15  2  0  0  0
 15 16  1  0  0  0
 16 17  2  0  0  0
 17 18  1  0  0  0
 17 19  1  0  0  0
 19 20  1  0  0  0
 19 21  2  0  0  0
  9  2  2  0  0  0
 21 14  1  0  0  0
 33 28  1  0  0  0
  8  4  1  0  0  0
 26 27  1  0  0  0
 12 13  1  0  0  0
M  END
> <minimizedAffinity>
-8.34454

> <CNNscore>
0.1626710743

> <CNNaffinity>
6.2783436775

> <CNN_VS>
1.0213049650

> <CNNaffinity_variance>
0.3233032823

$$$$
[H]c1nc([H])c(Cl)c(N([H])C(=O)N([H])c2c([H])c(-c3c([H])c([H])c([H])c(-c4c([H])c([H])c([H])c(C(=O)N([H])C([H])([H])C([H])([H])N5C([H])([H])C([H])([H])OC([H])([H])C5([H])[H])c4[H])c3[H])nn(C([H])([H])C([H])([H])[H])c2=O)c1Cl


 47 51  0  0  0  0  0  0  0  0999 V2000
    3.8905    2.4380   17.8274 C   0  0  0  0  0  0  0  0  0  0  0  0
    3.6847    1.0929   17.6846 C   0  0  0  0  0  0  0  0  0  0  0  0
    3.2489    0.5698   16.4629 C   0  0  0  0  0  0  0  0  0  0  0  0
    3.0229    1.4205   15.3847 C   0  0  0  0  0  0  0  0  0  0  0  0
    3.2239    2.7810   15.5046 C   0  0  0  0  0  0  0  0  0  0  0  0
    3.6524    3.2305   16.7339 C   0  0  0  0  0  0  0  0  0  0  0  0
    5.5923    2.7533   21.0356 N   0  0  0  0  0  0  0  0  0  0  0  0
    5.1253    2.3243   19.9018 N   0  0  0  0  0  0  0  0  0  0  0  0
    4.3693    3.0611   19.0792 C   0  0  0  0  0  0  0  0  0  0  0  0
    4.0542    4.3558   19.4349 C   0  0  0  0  0  0  0  0  0  0  0  0
    4.5289    4.8470   20.6276 C   0  0  0  0  0  0  0  0  0  0  0  0
    5.3178    3.9912   21.4238 C   0  0  0  0  0  0  0  0  0  0  0  0
    5.7901    4.3785   22.5374 O   0  0  0  0  0  0  0  0  0  0  0  0
    4.2728    6.1339   21.1078 N   0  0  0  0  0  0  0  0  0  0  0  0
    4.9848    7.3000   20.8541 C   0  0  0  0  0  0  0  0  0  0  0  0
    5.9923    7.3339   20.1299 O   0  0  0  0  0  0  0  0  0  0  0  0
    4.5304    8.5227   21.4587 N   0  0  0  0  0  0  0  0  0  0  0  0
    3.4094    6.2421   21.7605 H   0  0  0  0  0  0  0  0  0  0  0  0
    3.7065    8.5415   22.0621 H   0  0  0  0  0  0  0  0  0  0  0  0
    5.2493    9.7029   21.1984 C   0  0  0  0  0  0  0  0  0  0  0  0
    6.3170   10.0883   21.9920 C   0  0  0  0  0  0  0  0  0  0  0  0
    6.7911    9.0863   23.3571 Cl  0  0  0  0  0  0  0  0  0  0  0  0
    6.9685   11.2595   21.6694 C   0  0  0  0  0  0  0  0  0  0  0  0
    6.5803   12.0116   20.6121 N   0  0  0  0  0  0  0  0  0  0  0  0
    5.5378   11.6234   19.8474 C   0  0  0  0  0  0  0  0  0  0  0  0
    4.8380   10.4697   20.1039 C   0  0  0  0  0  0  0  0  0  0  0  0
    3.4781    9.9436   19.1242 Cl  0  0  0  0  0  0  0  0  0  0  0  0
    6.5976    0.5426   21.1964 C   0  0  0  0  0  0  0  0  0  0  0  0
    6.4092    1.8881   21.8803 C   0  0  0  0  0  0  0  0  0  0  0  0
    3.0043    3.6682   14.3732 C   0  0  0  0  0  0  0  0  0  0  0  0
    1.7504    4.2417   14.1758 C   0  0  0  0  0  0  0  0  0  0  0  0
    1.4886    5.0923   13.1359 C   0  0  0  0  0  0  0  0  0  0  0  0
    2.5030    5.4026   12.2377 C   0  0  0  0  0  0  0  0  0  0  0  0
    3.7545    4.8582   12.3962 C   0  0  0  0  0  0  0  0  0  0  0  0
    3.9876    3.9917   13.4706 C   0  0  0  0  0  0  0  0  0  0  0  0
    4.8533    5.1560   11.4938 C   0  0  0  0  0  0  0  0  0  0  0  0
    5.7581    4.2868   11.2584 O   0  0  0  0  0  0  0  0  0  0  0  0
    4.9271    6.4284   10.8643 N   0  0  0  0  0  0  0  0  0  0  0  0
    4.2096    7.1489   11.0382 H   0  0  0  0  0  0  0  0  0  0  0  0
    6.0269    6.7379    9.9581 C   0  0  0  0  0  0  0  0  0  0  0  0
    5.5797    6.4568    8.5559 C   0  0  0  0  0  0  0  0  0  0  0  0
    5.5431    7.5705    7.6998 N   0  0  0  0  0  0  0  0  0  0  0  0
    5.2373    8.8282    8.2668 C   0  0  0  0  0  0  0  0  0  0  0  0
    5.2121    9.9706    7.3051 C   0  0  0  0  0  0  0  0  0  0  0  0
    5.6786    9.7554    6.0687 O   0  0  0  0  0  0  0  0  0  0  0  0
    5.7273    8.5362    5.5338 C   0  0  0  0  0  0  0  0  0  0  0  0
    5.2150    7.3881    6.3422 C   0  0  0  0  0  0  0  0  0  0  0  0
 28 29  1  0  0  0
 29  7  1  0  0  0
  7  8  1  0  0  0
  8  9  2  0  0  0
  9 10  1  0  0  0
 10 11  2  0  0  0
 11 14  1  0  0  0
 14 15  1  0  0  0
 15 16  2  0  0  0
 15 17  1  0  0  0
 17 20  1  0  0  0
 20 21  2  0  0  0
 21 22  1  0  0  0
 21 23  1  0  0  0
 23 24  2  0  0  0
 24 25  1  0  0  0
 25 26  2  0  0  0
 26 27  1  0  0  0
 11 12  1  0  0  0
 12 13  2  0  0  0
  9  1  1  0  0  0
  1  2  2  0  0  0
  2  3  1  0  0  0
  3  4  2  0  0  0
  4  5  1  0  0  0
  5  6  2  0  0  0
  5 30  1  0  0  0
 30 31  2  0  0  0
 31 32  1  0  0  0
 32 33  2  0  0  0
 33 34  1  0  0  0
 34 35  2  0  0  0
 34 36  1  0  0  0
 36 37  2  0  0  0
 36 38  1  0  0  0
 38 40  1  0  0  0
 40 41  1  0  0  0
 41 42  1  0  0  0
 42 43  1  0  0  0
 43 44  1  0  0  0
 44 45  1  0  0  0
 45 46  1  0  0  0
 46 47  1  0  0  0
 12  7  1  0  0  0
  6  1  1  0  0  0
 35 30  1  0  0  0
 47 42  1  0  0  0
 26 20  1  0  0  0
 14 18  1  0  0  0
 17 19  1  0  0  0
 38 39  1  0  0  0
M  END
> <minimizedAffinity>
-10.50466

> <CNNscore>
0.2992476821

> <CNNaffinity>
6.6958608627

> <CNN_VS>
2.0037207603

> <CNNaffinity_variance>
0.3819510937

$$$$
[H]c1nc([H])c(Cl)c(N([H])C(=O)N([H])c2c([H])c(-c3c([H])c([H])c([H])c(-c4c([H])c([H])c([H])c(C(=O)N([H])C([H])([H])C([H])([H])N5C([H])([H])C([H])([H])OC([H])([H])C5([H])[H])c4[H])c3[H])nn(C([H])([H])C([H])([H])[H])c2=O)c1Cl


 47 51  0  0  0  0  0  0  0  0999 V2000
    3.7432    1.9869   18.1063 C   0  0  0  0  0  0  0  0  0  0  0  0
    3.3889    0.6659   18.0675 C   0  0  0  0  0  0  0  0  0  0  0  0
    2.8756    0.1056   16.8934 C   0  0  0  0  0  0  0  0  0  0  0  0
    2.7236    0.8943   15.7566 C   0  0  0  0  0  0  0  0  0  0  0  0
    3.0744    2.2293   15.7715 C   0  0  0  0  0  0  0  0  0  0  0  0
    3.5726    2.7181   16.9588 C   0  0  0  0  0  0  0  0  0  0  0  0
    5.7098    2.4036   21.1473 N   0  0  0  0  0  0  0  0  0  0  0  0
    5.1583    1.9428   20.0650 N   0  0  0  0  0  0  0  0  0  0  0  0
    4.3109    2.6439   19.3025 C   0  0  0  0  0  0  0  0  0  0  0  0
    3.9888    3.9343   19.6671 C   0  0  0  0  0  0  0  0  0  0  0  0
    4.5512    4.4584   20.8066 C   0  0  0  0  0  0  0  0  0  0  0  0
    5.4327    3.6390   21.5414 C   0  0  0  0  0  0  0  0  0  0  0  0
    5.9890    4.0579   22.6036 O   0  0  0  0  0  0  0  0  0  0  0  0
    4.2990    5.7448   21.2901 N   0  0  0  0  0  0  0  0  0  0  0  0
    4.9761    6.9206   20.9896 C   0  0  0  0  0  0  0  0  0  0  0  0
    5.9425    6.9653   20.2119 O   0  0  0  0  0  0  0  0  0  0  0  0
    4.5337    8.1405   21.6084 N   0  0  0  0  0  0  0  0  0  0  0  0
    3.4702    5.8440   21.9875 H   0  0  0  0  0  0  0  0  0  0  0  0
    3.7432    8.1506   22.2553 H   0  0  0  0  0  0  0  0  0  0  0  0
    5.2171    9.3304   21.3009 C   0  0  0  0  0  0  0  0  0  0  0  0
    6.2786    9.7739   22.0721 C   0  0  0  0  0  0  0  0  0  0  0  0
    6.7901    8.8351   23.4682 Cl  0  0  0  0  0  0  0  0  0  0  0  0
    6.8944   10.9507   21.7030 C   0  0  0  0  0  0  0  0  0  0  0  0
    6.4779   11.6533   20.6227 N   0  0  0  0  0  0  0  0  0  0  0  0
    5.4418   11.2087   19.8802 C   0  0  0  0  0  0  0  0  0  0  0  0
    4.7769   10.0457   20.1830 C   0  0  0  0  0  0  0  0  0  0  0  0
    3.4260    9.4468   19.2330 Cl  0  0  0  0  0  0  0  0  0  0  0  0
    6.9742    0.3239   21.1393 C   0  0  0  0  0  0  0  0  0  0  0  0
    6.6239    1.5763   21.9281 C   0  0  0  0  0  0  0  0  0  0  0  0
    2.9318    3.0495   14.5789 C   0  0  0  0  0  0  0  0  0  0  0  0
    3.9841    3.8648   14.1691 C   0  0  0  0  0  0  0  0  0  0  0  0
    3.9111    4.6489   13.0496 C   0  0  0  0  0  0  0  0  0  0  0  0
    2.7498    4.6396   12.2858 C   0  0  0  0  0  0  0  0  0  0  0  0
    1.6882    3.8496   12.6552 C   0  0  0  0  0  0  0  0  0  0  0  0
    1.7965    3.0602   13.8061 C   0  0  0  0  0  0  0  0  0  0  0  0
    0.4554    3.7936   11.8887 C   0  0  0  0  0  0  0  0  0  0  0  0
    0.4317    3.2603   10.7292 O   0  0  0  0  0  0  0  0  0  0  0  0
   -0.7404    4.3384   12.4309 N   0  0  0  0  0  0  0  0  0  0  0  0
   -0.7482    4.7759   13.3651 H   0  0  0  0  0  0  0  0  0  0  0  0
   -1.9828    4.2888   11.6691 C   0  0  0  0  0  0  0  0  0  0  0  0
   -2.2818    5.6657   11.1591 C   0  0  0  0  0  0  0  0  0  0  0  0
   -3.6086    5.8823   10.7500 N   0  0  0  0  0  0  0  0  0  0  0  0
   -4.6416    5.5191   11.6432 C   0  0  0  0  0  0  0  0  0  0  0  0
   -6.0282    5.7725   11.1493 C   0  0  0  0  0  0  0  0  0  0  0  0
   -6.1698    6.4977   10.0328 O   0  0  0  0  0  0  0  0  0  0  0  0
   -5.1946    6.6054    9.1315 C   0  0  0  0  0  0  0  0  0  0  0  0
   -3.9199    5.8643    9.3764 C   0  0  0  0  0  0  0  0  0  0  0  0
 28 29  1  0  0  0
 29  7  1  0  0  0
  7  8  1  0  0  0
  8  9  2  0  0  0
  9 10  1  0  0  0
 10 11  2  0  0  0
 11 14  1  0  0  0
 14 15  1  0  0  0
 15 16  2  0  0  0
 15 17  1  0  0  0
 17 20  1  0  0  0
 20 21  2  0  0  0
 21 22  1  0  0  0
 21 23  1  0  0  0
 23 24  2  0  0  0
 24 25  1  0  0  0
 25 26  2  0  0  0
 26 27  1  0  0  0
 11 12  1  0  0  0
 12 13  2  0  0  0
  9  1  1  0  0  0
  1  2  2  0  0  0
  2  3  1  0  0  0
  3  4  2  0  0  0
  4  5  1  0  0  0
  5  6  2  0  0  0
  5 30  1  0  0  0
 30 31  2  0  0  0
 31 32  1  0  0  0
 32 33  2  0  0  0
 33 34  1  0  0  0
 34 35  2  0  0  0
 34 36  1  0  0  0
 36 37  2  0  0  0
 36 38  1  0  0  0
 38 40  1  0  0  0
 40 41  1  0  0  0
 41 42  1  0  0  0
 42 43  1  0  0  0
 43 44  1  0  0  0
 44 45  1  0  0  0
 45 46  1  0  0  0
 46 47  1  0  0  0
 12  7  1  0  0  0
  6  1  1  0  0  0
 35 30  1  0  0  0
 47 42  1  0  0  0
 26 20  1  0  0  0
 14 18  1  0  0  0
 17 19  1  0  0  0
 38 39  1  0  0  0
M  END
> <minimizedAffinity>
-11.22594

> <CNNscore>
0.2656580806

> <CNNaffinity>
6.7365546227

> <CNN_VS>
1.7896201611

> <CNNaffinity_variance>
0.3266319633

$$$$
[H]c1nc([H])c(Cl)c(N([H])C(=O)N([H])c2c([H])c(-c3c([H])c([H])c([H])c(-c4c([H])c([H])c([H])c(C(=O)N([H])C([H])([H])C([H])([H])N5C([H])([H])C([H])([H])OC([H])([H])C5([H])[H])c4[H])c3[H])nn(C([H])([H])C([H])([H])[H])c2=O)c1Cl


 47 51  0  0  0  0  0  0  0  0999 V2000
    3.8008    2.3219   17.9606 C   0  0  0  0  0  0  0  0  0  0  0  0
    3.5611    0.9839   17.8052 C   0  0  0  0  0  0  0  0  0  0  0  0
    3.1242    0.4819   16.5750 C   0  0  0  0  0  0  0  0  0  0  0  0
    2.9316    1.3464   15.5014 C   0  0  0  0  0  0  0  0  0  0  0  0
    3.1672    2.7001   15.6340 C   0  0  0  0  0  0  0  0  0  0  0  0
    3.5948    3.1288   16.8710 C   0  0  0  0  0  0  0  0  0  0  0  0
    5.4758    2.5670   21.1890 N   0  0  0  0  0  0  0  0  0  0  0  0
    5.0093    2.1592   20.0471 N   0  0  0  0  0  0  0  0  0  0  0  0
    4.2831    2.9226   19.2220 C   0  0  0  0  0  0  0  0  0  0  0  0
    4.0002    4.2230   19.5838 C   0  0  0  0  0  0  0  0  0  0  0  0
    4.4754    4.6923   20.7852 C   0  0  0  0  0  0  0  0  0  0  0  0
    5.2315    3.8093   21.5834 C   0  0  0  0  0  0  0  0  0  0  0  0
    5.7023    4.1754   22.7048 O   0  0  0  0  0  0  0  0  0  0  0  0
    4.2498    5.9823   21.2721 N   0  0  0  0  0  0  0  0  0  0  0  0
    4.9156    7.1541   20.9332 C   0  0  0  0  0  0  0  0  0  0  0  0
    5.8448    7.1911   20.1110 O   0  0  0  0  0  0  0  0  0  0  0  0
    4.5062    8.3792   21.5646 N   0  0  0  0  0  0  0  0  0  0  0  0
    3.4547    6.0884   22.0068 H   0  0  0  0  0  0  0  0  0  0  0  0
    3.7467    8.3956   22.2475 H   0  0  0  0  0  0  0  0  0  0  0  0
    5.1779    9.5650   21.2183 C   0  0  0  0  0  0  0  0  0  0  0  0
    4.8029   10.3115   20.1136 C   0  0  0  0  0  0  0  0  0  0  0  0
    3.4587    9.7725   19.1163 Cl  0  0  0  0  0  0  0  0  0  0  0  0
    5.5137   11.4612   19.8428 C   0  0  0  0  0  0  0  0  0  0  0  0
    6.5454   11.8514   20.6285 N   0  0  0  0  0  0  0  0  0  0  0  0
    6.8997   11.1137   21.7021 C   0  0  0  0  0  0  0  0  0  0  0  0
    6.2410    9.9562   22.0381 C   0  0  0  0  0  0  0  0  0  0  0  0
    6.6831    8.9789   23.4293 Cl  0  0  0  0  0  0  0  0  0  0  0  0
    6.7403    0.4876   21.2139 C   0  0  0  0  0  0  0  0  0  0  0  0
    6.2591    1.6734   22.0359 C   0  0  0  0  0  0  0  0  0  0  0  0
    2.9826    3.6014   14.5075 C   0  0  0  0  0  0  0  0  0  0  0  0
    4.0308    3.8208   13.6170 C   0  0  0  0  0  0  0  0  0  0  0  0
    3.9115    4.6487   12.5336 C   0  0  0  0  0  0  0  0  0  0  0  0
    2.7051    5.2997   12.3033 C   0  0  0  0  0  0  0  0  0  0  0  0
    1.6459    5.1110   13.1576 C   0  0  0  0  0  0  0  0  0  0  0  0
    1.8025    4.2575   14.2562 C   0  0  0  0  0  0  0  0  0  0  0  0
    0.3603    5.7576   12.9590 C   0  0  0  0  0  0  0  0  0  0  0  0
    0.1979    6.9899   13.2500 O   0  0  0  0  0  0  0  0  0  0  0  0
   -0.7327    5.0140   12.4364 N   0  0  0  0  0  0  0  0  0  0  0  0
   -0.6284    4.0167   12.1942 H   0  0  0  0  0  0  0  0  0  0  0  0
   -2.0278    5.6532   12.2348 C   0  0  0  0  0  0  0  0  0  0  0  0
   -2.8250    4.8188   11.2790 C   0  0  0  0  0  0  0  0  0  0  0  0
   -3.9644    5.4407   10.7411 N   0  0  0  0  0  0  0  0  0  0  0  0
   -3.8817    5.9416    9.4223 C   0  0  0  0  0  0  0  0  0  0  0  0
   -5.1244    6.5924    8.9097 C   0  0  0  0  0  0  0  0  0  0  0  0
   -6.2426    6.4590    9.6338 O   0  0  0  0  0  0  0  0  0  0  0  0
   -6.2120    6.1941   10.9391 C   0  0  0  0  0  0  0  0  0  0  0  0
   -4.8795    6.0731   11.6054 C   0  0  0  0  0  0  0  0  0  0  0  0
 28 29  1  0  0  0
 29  7  1  0  0  0
  7  8  1  0  0  0
  8  9  2  0  0  0
  9 10  1  0  0  0
 10 11  2  0  0  0
 11 14  1  0  0  0
 14 15  1  0  0  0
 15 16  2  0  0  0
 15 17  1  0  0  0
 17 20  1  0  0  0
 20 21  2  0  0  0
 21 22  1  0  0  0
 21 23  1  0  0  0
 23 24  2  0  0  0
 24 25  1  0  0  0
 25 26  2  0  0  0
 26 27  1  0  0  0
 11 12  1  0  0  0
 12 13  2  0  0  0
  9  1  1  0  0  0
  1  2  2  0  0  0
  2  3  1  0  0  0
  3  4  2  0  0  0
  4  5  1  0  0  0
  5  6  2  0  0  0
  5 30  1  0  0  0
 30 31  2  0  0  0
 31 32  1  0  0  0
 32 33  2  0  0  0
 33 34  1  0  0  0
 34 35  2  0  0  0
 34 36  1  0  0  0
 36 37  2  0  0  0
 36 38  1  0  0  0
 38 40  1  0  0  0
 40 41  1  0  0  0
 41 42  1  0  0  0
 42 43  1  0  0  0
 43 44  1  0  0  0
 44 45  1  0  0  0
 45 46  1  0  0  0
 46 47  1  0  0  0
 12  7  1  0  0  0
  6  1  1  0  0  0
 35 30  1  0  0  0
 47 42  1  0  0  0
 26 20  1  0  0  0
 14 18  1  0  0  0
 17 19  1  0  0  0
 38 39  1  0  0  0
M  END
> <minimizedAffinity>
-11.26248

> <CNNscore>
0.2473925948

> <CNNaffinity>
6.7104988098

> <CNN_VS>
1.6601277590

> <CNNaffinity_variance>
0.2945015132

$$$$
[H]c1nc([H])c(Cl)c(N([H])C(=O)N([H])c2c([H])c(-c3c([H])c([H])c([H])c(-c4c([H])c([H])c([H])c(C(=O)N([H])C([H])([H])C([H])([H])N5C([H])([H])C([H])([H])OC([H])([H])C5([H])[H])c4[H])c3[H])nn(C([H])([H])C([H])([H])[H])c2=O)c1Cl


 47 51  0  0  0  0  0  0  0  0999 V2000
    3.6361    1.7370   18.5624 C   0  0  0  0  0  0  0  0  0  0  0  0
    3.2998    0.4201   18.7187 C   0  0  0  0  0  0  0  0  0  0  0  0
    2.7251   -0.2933   17.6618 C   0  0  0  0  0  0  0  0  0  0  0  0
    2.4932    0.3379   16.4432 C   0  0  0  0  0  0  0  0  0  0  0  0
    2.8243    1.6657   16.2617 C   0  0  0  0  0  0  0  0  0  0  0  0
    3.3858    2.3098   17.3418 C   0  0  0  0  0  0  0  0  0  0  0  0
    5.8403    2.5888   21.3380 N   0  0  0  0  0  0  0  0  0  0  0  0
    5.2246    1.9842   20.3669 N   0  0  0  0  0  0  0  0  0  0  0  0
    4.2649    2.5496   19.6249 C   0  0  0  0  0  0  0  0  0  0  0  0
    3.8904    3.8505   19.8881 C   0  0  0  0  0  0  0  0  0  0  0  0
    4.5179    4.5247   20.9084 C   0  0  0  0  0  0  0  0  0  0  0  0
    5.5169    3.8409   21.6316 C   0  0  0  0  0  0  0  0  0  0  0  0
    6.1384    4.4022   22.5865 O   0  0  0  0  0  0  0  0  0  0  0  0
    4.2240    5.8383   21.2828 N   0  0  0  0  0  0  0  0  0  0  0  0
    4.8854    7.0029   20.9118 C   0  0  0  0  0  0  0  0  0  0  0  0
    5.8743    7.0100   20.1617 O   0  0  0  0  0  0  0  0  0  0  0  0
    4.3986    8.2563   21.4207 N   0  0  0  0  0  0  0  0  0  0  0  0
    3.3721    5.9717   21.9458 H   0  0  0  0  0  0  0  0  0  0  0  0
    3.5884    8.2978   22.0413 H   0  0  0  0  0  0  0  0  0  0  0  0
    5.0662    9.4345   21.0418 C   0  0  0  0  0  0  0  0  0  0  0  0
    4.6642   10.1698   19.9391 C   0  0  0  0  0  0  0  0  0  0  0  0
    3.2901    9.6259   18.9860 Cl  0  0  0  0  0  0  0  0  0  0  0  0
    5.3726   11.3126   19.6349 C   0  0  0  0  0  0  0  0  0  0  0  0
    6.4277   11.7067   20.3870 N   0  0  0  0  0  0  0  0  0  0  0  0
    6.8081   10.9799   21.4592 C   0  0  0  0  0  0  0  0  0  0  0  0
    6.1535    9.8299   21.8270 C   0  0  0  0  0  0  0  0  0  0  0  0
    6.6294    8.8668   23.2170 Cl  0  0  0  0  0  0  0  0  0  0  0  0
    7.1679    0.5532   21.4691 C   0  0  0  0  0  0  0  0  0  0  0  0
    6.8763    1.9041   22.1043 C   0  0  0  0  0  0  0  0  0  0  0  0
    2.5979    2.3209   14.9830 C   0  0  0  0  0  0  0  0  0  0  0  0
    2.9593    1.6778   13.8016 C   0  0  0  0  0  0  0  0  0  0  0  0
    2.7600    2.2404   12.5699 C   0  0  0  0  0  0  0  0  0  0  0  0
    2.1765    3.4990   12.4822 C   0  0  0  0  0  0  0  0  0  0  0  0
    1.8054    4.1678   13.6234 C   0  0  0  0  0  0  0  0  0  0  0  0
    2.0240    3.5632   14.8670 C   0  0  0  0  0  0  0  0  0  0  0  0
    1.1828    5.4798   13.5896 C   0  0  0  0  0  0  0  0  0  0  0  0
    0.7938    6.0454   14.6659 O   0  0  0  0  0  0  0  0  0  0  0  0
    1.0011    6.1452   12.3466 N   0  0  0  0  0  0  0  0  0  0  0  0
    1.3055    5.7098   11.4623 H   0  0  0  0  0  0  0  0  0  0  0  0
    0.3757    7.4617   12.3015 C   0  0  0  0  0  0  0  0  0  0  0  0
    1.4552    8.4969   12.2104 C   0  0  0  0  0  0  0  0  0  0  0  0
    2.7299    8.0108   11.8739 N   0  0  0  0  0  0  0  0  0  0  0  0
    3.7929    8.2739   12.7671 C   0  0  0  0  0  0  0  0  0  0  0  0
    5.1217    7.7329   12.3519 C   0  0  0  0  0  0  0  0  0  0  0  0
    5.1541    6.8865   11.3150 O   0  0  0  0  0  0  0  0  0  0  0  0
    4.1939    6.8626   10.3918 C   0  0  0  0  0  0  0  0  0  0  0  0
    3.0673    7.8368   10.5174 C   0  0  0  0  0  0  0  0  0  0  0  0
 28 29  1  0  0  0
 29  7  1  0  0  0
  7  8  1  0  0  0
  8  9  2  0  0  0
  9 10  1  0  0  0
 10 11  2  0  0  0
 11 14  1  0  0  0
 14 15  1  0  0  0
 15 16  2  0  0  0
 15 17  1  0  0  0
 17 20  1  0  0  0
 20 21  2  0  0  0
 21 22  1  0  0  0
 21 23  1  0  0  0
 23 24  2  0  0  0
 24 25  1  0  0  0
 25 26  2  0  0  0
 26 27  1  0  0  0
 11 12  1  0  0  0
 12 13  2  0  0  0
  9  1  1  0  0  0
  1  2  2  0  0  0
  2  3  1  0  0  0
  3  4  2  0  0  0
  4  5  1  0  0  0
  5  6  2  0  0  0
  5 30  1  0  0  0
 30 31  2  0  0  0
 31 32  1  0  0  0
 32 33  2  0  0  0
 33 34  1  0  0  0
 34 35  2  0  0  0
 34 36  1  0  0  0
 36 37  2  0  0  0
 36 38  1  0  0  0
 38 40  1  0  0  0
 40 41  1  0  0  0
 41 42  1  0  0  0
 42 43  1  0  0  0
 43 44  1  0  0  0
 44 45  1  0  0  0
 45 46  1  0  0  0
 46 47  1  0  0  0
 12  7  1  0  0  0
  6  1  1  0  0  0
 35 30  1  0  0  0
 47 42  1  0  0  0
 26 20  1  0  0  0
 14 18  1  0  0  0
 17 19  1  0  0  0
 38 39  1  0  0  0
M  END
> <minimizedAffinity>
-10.17274

> <CNNscore>
0.2390568554

> <CNNaffinity>
6.9885511398

> <CNN_VS>
1.6706610918

> <CNNaffinity_variance>
0.3078239560

$$$$
[H]c1nc([H])c(Cl)c(N([H])C(=O)N([H])c2c([H])c(-c3c([H])c([H])c([H])c(-c4c([H])c([H])c([H])c(C(=O)N([H])C([H])([H])C([H])([H])N5C([H])([H])C([H])([H])OC([H])([H])C5([H])[H])c4[H])c3[H])nn(C([H])([H])C([H])([H])[H])c2=O)c1Cl


 47 51  0  0  0  0  0  0  0  0999 V2000
    3.6567    2.8557   16.8933 C   0  0  0  0  0  0  0  0  0  0  0  0
    3.1686    1.6240   16.5521 C   0  0  0  0  0  0  0  0  0  0  0  0
    2.8871    1.3201   15.2161 C   0  0  0  0  0  0  0  0  0  0  0  0
    3.1042    2.2745   14.2266 C   0  0  0  0  0  0  0  0  0  0  0  0
    3.5962    3.5239   14.5466 C   0  0  0  0  0  0  0  0  0  0  0  0
    3.8515    3.7583   15.8795 C   0  0  0  0  0  0  0  0  0  0  0  0
    4.8031    2.5129   20.3367 N   0  0  0  0  0  0  0  0  0  0  0  0
    4.4824    2.3006   19.0958 N   0  0  0  0  0  0  0  0  0  0  0  0
    3.9967    3.2427   18.2787 C   0  0  0  0  0  0  0  0  0  0  0  0
    3.8172    4.5225   18.7601 C   0  0  0  0  0  0  0  0  0  0  0  0
    4.1442    4.7877   20.0686 C   0  0  0  0  0  0  0  0  0  0  0  0
    4.6492    3.7266   20.8481 C   0  0  0  0  0  0  0  0  0  0  0  0
    4.9724    3.8995   22.0642 O   0  0  0  0  0  0  0  0  0  0  0  0
    3.9994    6.0358   20.6797 N   0  0  0  0  0  0  0  0  0  0  0  0
    4.7219    7.1976   20.4360 C   0  0  0  0  0  0  0  0  0  0  0  0
    5.6356    7.2632   19.5984 O   0  0  0  0  0  0  0  0  0  0  0  0
    4.3928    8.3771   21.1893 N   0  0  0  0  0  0  0  0  0  0  0  0
    3.2257    6.1135   21.4403 H   0  0  0  0  0  0  0  0  0  0  0  0
    3.6488    8.3688   21.8891 H   0  0  0  0  0  0  0  0  0  0  0  0
    5.1219    9.5532   20.9393 C   0  0  0  0  0  0  0  0  0  0  0  0
    4.7625   10.4240   19.9241 C   0  0  0  0  0  0  0  0  0  0  0  0
    3.3655   10.0592   18.9204 Cl  0  0  0  0  0  0  0  0  0  0  0  0
    5.5304   11.5548   19.7446 C   0  0  0  0  0  0  0  0  0  0  0  0
    6.6018   11.8093   20.5328 N   0  0  0  0  0  0  0  0  0  0  0  0
    6.9402   10.9514   21.5187 C   0  0  0  0  0  0  0  0  0  0  0  0
    6.2255    9.8038   21.7606 C   0  0  0  0  0  0  0  0  0  0  0  0
    6.6460    8.6718   23.0365 Cl  0  0  0  0  0  0  0  0  0  0  0  0
    4.2261    0.4135   21.4244 C   0  0  0  0  0  0  0  0  0  0  0  0
    5.3256    1.4323   21.1666 C   0  0  0  0  0  0  0  0  0  0  0  0
    3.8393    4.5156   13.5107 C   0  0  0  0  0  0  0  0  0  0  0  0
    3.5207    5.8515   13.7423 C   0  0  0  0  0  0  0  0  0  0  0  0
    3.7376    6.8294   12.8096 C   0  0  0  0  0  0  0  0  0  0  0  0
    4.2958    6.4891   11.5829 C   0  0  0  0  0  0  0  0  0  0  0  0
    4.6245    5.1826   11.3139 C   0  0  0  0  0  0  0  0  0  0  0  0
    4.3889    4.2076   12.2904 C   0  0  0  0  0  0  0  0  0  0  0  0
    5.2193    4.7728   10.0535 C   0  0  0  0  0  0  0  0  0  0  0  0
    5.6801    3.5919    9.9029 O   0  0  0  0  0  0  0  0  0  0  0  0
    5.2927    5.6937    8.9731 N   0  0  0  0  0  0  0  0  0  0  0  0
    4.9288    6.6542    9.0689 H   0  0  0  0  0  0  0  0  0  0  0  0
    5.8894    5.2930    7.7043 C   0  0  0  0  0  0  0  0  0  0  0  0
    6.6379    6.4628    7.1416 C   0  0  0  0  0  0  0  0  0  0  0  0
    5.9097    7.2754    6.2563 N   0  0  0  0  0  0  0  0  0  0  0  0
    6.1091    7.0843    4.8704 C   0  0  0  0  0  0  0  0  0  0  0  0
    5.3080    7.9795    3.9829 C   0  0  0  0  0  0  0  0  0  0  0  0
    4.3398    8.7126    4.5466 O   0  0  0  0  0  0  0  0  0  0  0  0
    4.3535    9.0259    5.8414 C   0  0  0  0  0  0  0  0  0  0  0  0
    5.5073    8.5603    6.6698 C   0  0  0  0  0  0  0  0  0  0  0  0
 28 29  1  0  0  0
 29  7  1  0  0  0
  7  8  1  0  0  0
  8  9  2  0  0  0
  9 10  1  0  0  0
 10 11  2  0  0  0
 11 14  1  0  0  0
 14 15  1  0  0  0
 15 16  2  0  0  0
 15 17  1  0  0  0
 17 20  1  0  0  0
 20 21  2  0  0  0
 21 22  1  0  0  0
 21 23  1  0  0  0
 23 24  2  0  0  0
 24 25  1  0  0  0
 25 26  2  0  0  0
 26 27  1  0  0  0
 11 12  1  0  0  0
 12 13  2  0  0  0
  9  1  1  0  0  0
  1  2  2  0  0  0
  2  3  1  0  0  0
  3  4  2  0  0  0
  4  5  1  0  0  0
  5  6  2  0  0  0
  5 30  1  0  0  0
 30 31  2  0  0  0
 31 32  1  0  0  0
 32 33  2  0  0  0
 33 34  1  0  0  0
 34 35  2  0  0  0
 34 36  1  0  0  0
 36 37  2  0  0  0
 36 38  1  0  0  0
 38 40  1  0  0  0
 40 41  1  0  0  0
 41 42  1  0  0  0
 42 43  1  0  0  0
 43 44  1  0  0  0
 44 45  1  0  0  0
 45 46  1  0  0  0
 46 47  1  0  0  0
 12  7  1  0  0  0
  6  1  1  0  0  0
 35 30  1  0  0  0
 47 42  1  0  0  0
 26 20  1  0  0  0
 14 18  1  0  0  0
 17 19  1  0  0  0
 38 39  1  0  0  0
M  END
> <minimizedAffinity>
-9.83622

> <CNNscore>
0.1979087740

> <CNNaffinity>
6.5868101120

> <CNN_VS>
1.3035875559

> <CNNaffinity_variance>
0.4386942387

$$$$
[H]c1nc([H])c(Cl)c(N([H])C(=O)N([H])c2c([H])c(-c3c([H])c([H])c([H])c(-c4c([H])c([H])c([H])c(C(=O)N([H])C([H])([H])C([H])([H])N5C([H])([H])C([H])([H])OC([H])([H])C5([H])[H])c4[H])c3[H])nn(C([H])([H])C([H])([H])[H])c2=O)c1Cl


 47 51  0  0  0  0  0  0  0  0999 V2000
    3.8181    1.9513   18.1511 C   0  0  0  0  0  0  0  0  0  0  0  0
    3.3617    0.6616   18.1638 C   0  0  0  0  0  0  0  0  0  0  0  0
    2.8652    0.0755   16.9949 C   0  0  0  0  0  0  0  0  0  0  0  0
    2.8343    0.8066   15.8110 C   0  0  0  0  0  0  0  0  0  0  0  0
    3.2895    2.1093   15.7735 C   0  0  0  0  0  0  0  0  0  0  0  0
    3.7646    2.6260   16.9584 C   0  0  0  0  0  0  0  0  0  0  0  0
    5.7659    2.4281   21.1953 N   0  0  0  0  0  0  0  0  0  0  0  0
    5.2229    1.9470   20.1176 N   0  0  0  0  0  0  0  0  0  0  0  0
    4.3754    2.6307   19.3397 C   0  0  0  0  0  0  0  0  0  0  0  0
    4.0435    3.9247   19.6821 C   0  0  0  0  0  0  0  0  0  0  0  0
    4.5966    4.4701   20.8160 C   0  0  0  0  0  0  0  0  0  0  0  0
    5.4792    3.6679   21.5684 C   0  0  0  0  0  0  0  0  0  0  0  0
    6.0272    4.1070   22.6268 O   0  0  0  0  0  0  0  0  0  0  0  0
    4.3340    5.7624   21.2778 N   0  0  0  0  0  0  0  0  0  0  0  0
    4.9696    6.9453   20.9199 C   0  0  0  0  0  0  0  0  0  0  0  0
    5.9014    6.9921   20.1012 O   0  0  0  0  0  0  0  0  0  0  0  0
    4.5243    8.1703   21.5265 N   0  0  0  0  0  0  0  0  0  0  0  0
    3.5329    5.8606   22.0069 H   0  0  0  0  0  0  0  0  0  0  0  0
    3.7615    8.1789   22.2057 H   0  0  0  0  0  0  0  0  0  0  0  0
    5.1656    9.3673   21.1610 C   0  0  0  0  0  0  0  0  0  0  0  0
    4.7424   10.1099   20.0712 C   0  0  0  0  0  0  0  0  0  0  0  0
    3.3743    9.5517   19.1178 Cl  0  0  0  0  0  0  0  0  0  0  0  0
    5.4256   11.2712   19.7797 C   0  0  0  0  0  0  0  0  0  0  0  0
    6.4767   11.6760   20.5317 N   0  0  0  0  0  0  0  0  0  0  0  0
    6.8780   10.9419   21.5912 C   0  0  0  0  0  0  0  0  0  0  0  0
    6.2490    9.7735   21.9459 C   0  0  0  0  0  0  0  0  0  0  0  0
    6.7525    8.8007   23.3193 Cl  0  0  0  0  0  0  0  0  0  0  0  0
    7.0479    0.3596   21.2243 C   0  0  0  0  0  0  0  0  0  0  0  0
    6.6807    1.6190   21.9939 C   0  0  0  0  0  0  0  0  0  0  0  0
    3.2733    2.8678   14.5326 C   0  0  0  0  0  0  0  0  0  0  0  0
    3.8056    4.1544   14.5003 C   0  0  0  0  0  0  0  0  0  0  0  0
    3.8281    4.9102   13.3594 C   0  0  0  0  0  0  0  0  0  0  0  0
    3.3035    4.3853   12.1840 C   0  0  0  0  0  0  0  0  0  0  0  0
    2.7687    3.1199   12.1727 C   0  0  0  0  0  0  0  0  0  0  0  0
    2.7616    2.3744   13.3575 C   0  0  0  0  0  0  0  0  0  0  0  0
    2.2166    2.5185   10.9710 C   0  0  0  0  0  0  0  0  0  0  0  0
    2.4297    1.2895   10.6995 O   0  0  0  0  0  0  0  0  0  0  0  0
    1.4309    3.3033   10.0837 N   0  0  0  0  0  0  0  0  0  0  0  0
    1.2447    4.2989   10.2791 H   0  0  0  0  0  0  0  0  0  0  0  0
    0.8736    2.7097    8.8739 C   0  0  0  0  0  0  0  0  0  0  0  0
   -0.5981    2.5136    9.0763 C   0  0  0  0  0  0  0  0  0  0  0  0
   -1.3651    3.6907    9.1045 N   0  0  0  0  0  0  0  0  0  0  0  0
   -2.6522    3.6253    9.6841 C   0  0  0  0  0  0  0  0  0  0  0  0
   -3.4171    4.9081    9.6816 C   0  0  0  0  0  0  0  0  0  0  0  0
   -2.7612    6.0247    9.3413 O   0  0  0  0  0  0  0  0  0  0  0  0
   -1.6560    5.9965    8.5979 C   0  0  0  0  0  0  0  0  0  0  0  0
   -1.1627    4.6712    8.1137 C   0  0  0  0  0  0  0  0  0  0  0  0
 28 29  1  0  0  0
 29  7  1  0  0  0
  7  8  1  0  0  0
  8  9  2  0  0  0
  9 10  1  0  0  0
 10 11  2  0  0  0
 11 14  1  0  0  0
 14 15  1  0  0  0
 15 16  2  0  0  0
 15 17  1  0  0  0
 17 20  1  0  0  0
 20 21  2  0  0  0
 21 22  1  0  0  0
 21 23  1  0  0  0
 23 24  2  0  0  0
 24 25  1  0  0  0
 25 26  2  0  0  0
 26 27  1  0  0  0
 11 12  1  0  0  0
 12 13  2  0  0  0
  9  1  1  0  0  0
  1  2  2  0  0  0
  2  3  1  0  0  0
  3  4  2  0  0  0
  4  5  1  0  0  0
  5  6  2  0  0  0
  5 30  1  0  0  0
 30 31  2  0  0  0
 31 32  1  0  0  0
 32 33  2  0  0  0
 33 34  1  0  0  0
 34 35  2  0  0  0
 34 36  1  0  0  0
 36 37  2  0  0  0
 36 38  1  0  0  0
 38 40  1  0  0  0
 40 41  1  0  0  0
 41 42  1  0  0  0
 42 43  1  0  0  0
 43 44  1  0  0  0
 44 45  1  0  0  0
 45 46  1  0  0  0
 46 47  1  0  0  0
 12  7  1  0  0  0
  6  1  1  0  0  0
 35 30  1  0  0  0
 47 42  1  0  0  0
 26 20  1  0  0  0
 14 18  1  0  0  0
 17 19  1  0  0  0
 38 39  1  0  0  0
M  END
> <minimizedAffinity>
-10.47411

> <CNNscore>
0.1885989755

> <CNNaffinity>
6.6793532372

> <CNN_VS>
1.2597191334

> <CNNaffinity_variance>
0.2806223333

$$$$
[H]c1nc([H])c(Cl)c(N([H])C(=O)N([H])c2c([H])c(-c3c([H])c([H])c([H])c(-c4c([H])c([H])c([H])c(C(=O)N([H])C([H])([H])C([H])([H])N5C([H])([H])C([H])([H])OC([H])([H])C5([H])[H])c4[H])c3[H])nn(C([H])([H])C([H])([H])[H])c2=O)c1Cl


 47 51  0  0  0  0  0  0  0  0999 V2000
    3.7993    1.9751   18.0862 C   0  0  0  0  0  0  0  0  0  0  0  0
    3.2913    0.7049   18.0661 C   0  0  0  0  0  0  0  0  0  0  0  0
    2.7898    0.1625   16.8785 C   0  0  0  0  0  0  0  0  0  0  0  0
    2.8067    0.9172   15.7092 C   0  0  0  0  0  0  0  0  0  0  0  0
    3.3144    2.2009   15.7047 C   0  0  0  0  0  0  0  0  0  0  0  0
    3.7915    2.6747   16.9067 C   0  0  0  0  0  0  0  0  0  0  0  0
    5.7531    2.3273   21.1435 N   0  0  0  0  0  0  0  0  0  0  0  0
    5.2043    1.8887   20.0507 N   0  0  0  0  0  0  0  0  0  0  0  0
    4.3649    2.6079   19.2963 C   0  0  0  0  0  0  0  0  0  0  0  0
    4.0487    3.8938   19.6816 C   0  0  0  0  0  0  0  0  0  0  0  0
    4.6086    4.3947   20.8327 C   0  0  0  0  0  0  0  0  0  0  0  0
    5.4815    3.5574   21.5576 C   0  0  0  0  0  0  0  0  0  0  0  0
    6.0349    3.9545   22.6296 O   0  0  0  0  0  0  0  0  0  0  0  0
    4.3617    5.6741   21.3371 N   0  0  0  0  0  0  0  0  0  0  0  0
    4.9774    6.8682   20.9818 C   0  0  0  0  0  0  0  0  0  0  0  0
    5.8730    6.9393   20.1253 O   0  0  0  0  0  0  0  0  0  0  0  0
    4.5544    8.0759   21.6370 N   0  0  0  0  0  0  0  0  0  0  0  0
    3.5922    5.7507   22.1020 H   0  0  0  0  0  0  0  0  0  0  0  0
    3.8213    8.0644   22.3483 H   0  0  0  0  0  0  0  0  0  0  0  0
    5.1753    9.2843   21.2741 C   0  0  0  0  0  0  0  0  0  0  0  0
    4.7481   10.0154   20.1781 C   0  0  0  0  0  0  0  0  0  0  0  0
    3.4006    9.4276   19.2133 Cl  0  0  0  0  0  0  0  0  0  0  0  0
    5.4110   11.1892   19.8898 C   0  0  0  0  0  0  0  0  0  0  0  0
    6.4466   11.6168   20.6507 N   0  0  0  0  0  0  0  0  0  0  0  0
    6.8520   10.8938   21.7161 C   0  0  0  0  0  0  0  0  0  0  0  0
    6.2429    9.7142   22.0683 C   0  0  0  0  0  0  0  0  0  0  0  0
    6.7522    8.7552   23.4493 Cl  0  0  0  0  0  0  0  0  0  0  0  0
    7.0054    0.2407   21.1056 C   0  0  0  0  0  0  0  0  0  0  0  0
    6.6582    1.4812   21.9144 C   0  0  0  0  0  0  0  0  0  0  0  0
    3.3480    2.9836   14.4793 C   0  0  0  0  0  0  0  0  0  0  0  0
    3.6805    4.3352   14.5296 C   0  0  0  0  0  0  0  0  0  0  0  0
    3.7391    5.1181   13.4084 C   0  0  0  0  0  0  0  0  0  0  0  0
    3.4589    4.5550   12.1688 C   0  0  0  0  0  0  0  0  0  0  0  0
    3.1265    3.2252   12.0751 C   0  0  0  0  0  0  0  0  0  0  0  0
    3.0755    2.4535   13.2420 C   0  0  0  0  0  0  0  0  0  0  0  0
    2.8342    2.5831   10.8052 C   0  0  0  0  0  0  0  0  0  0  0  0
    3.2466    3.0890    9.7081 O   0  0  0  0  0  0  0  0  0  0  0  0
    2.0799    1.3786   10.7783 N   0  0  0  0  0  0  0  0  0  0  0  0
    1.7338    0.9496   11.6503 H   0  0  0  0  0  0  0  0  0  0  0  0
    1.7795    0.7270    9.5088 C   0  0  0  0  0  0  0  0  0  0  0  0
    2.7342   -0.4129    9.3230 C   0  0  0  0  0  0  0  0  0  0  0  0
    3.8854   -0.1192    8.5727 N   0  0  0  0  0  0  0  0  0  0  0  0
    3.8578   -0.3959    7.1872 C   0  0  0  0  0  0  0  0  0  0  0  0
    5.1116   -0.0635    6.4468 C   0  0  0  0  0  0  0  0  0  0  0  0
    6.0467    0.6462    7.0908 O   0  0  0  0  0  0  0  0  0  0  0  0
    6.1236    0.6716    8.4206 C   0  0  0  0  0  0  0  0  0  0  0  0
    5.1455   -0.1453    9.2016 C   0  0  0  0  0  0  0  0  0  0  0  0
 28 29  1  0  0  0
 29  7  1  0  0  0
  7  8  1  0  0  0
  8  9  2  0  0  0
  9 10  1  0  0  0
 10 11  2  0  0  0
 11 14  1  0  0  0
 14 15  1  0  0  0
 15 16  2  0  0  0
 15 17  1  0  0  0
 17 20  1  0  0  0
 20 21  2  0  0  0
 21 22  1  0  0  0
 21 23  1  0  0  0
 23 24  2  0  0  0
 24 25  1  0  0  0
 25 26  2  0  0  0
 26 27  1  0  0  0
 11 12  1  0  0  0
 12 13  2  0  0  0
  9  1  1  0  0  0
  1  2  2  0  0  0
  2  3  1  0  0  0
  3  4  2  0  0  0
  4  5  1  0  0  0
  5  6  2  0  0  0
  5 30  1  0  0  0
 30 31  2  0  0  0
 31 32  1  0  0  0
 32 33  2  0  0  0
 33 34  1  0  0  0
 34 35  2  0  0  0
 34 36  1  0  0  0
 36 37  2  0  0  0
 36 38  1  0  0  0
 38 40  1  0  0  0
 40 41  1  0  0  0
 41 42  1  0  0  0
 42 43  1  0  0  0
 43 44  1  0  0  0
 44 45  1  0  0  0
 45 46  1  0  0  0
 46 47  1  0  0  0
 12  7  1  0  0  0
  6  1  1  0  0  0
 35 30  1  0  0  0
 47 42  1  0  0  0
 26 20  1  0  0  0
 14 18  1  0  0  0
 17 19  1  0  0  0
 38 39  1  0  0  0
M  END
> <minimizedAffinity>
-10.52410

> <CNNscore>
0.1841341108

> <CNNaffinity>
6.6666617393

> <CNN_VS>
1.2275598049

> <CNNaffinity_variance>
0.3785739541

$$$$
[H]c1nc([H])c(Cl)c(N([H])C(=O)N([H])c2c([H])c(-c3c([H])c([H])c([H])c(-c4c([H])c([H])c([H])c(C(=O)N([H])C([H])([H])C([H])([H])N5C([H])([H])C([H])([H])OC([H])([H])C5([H])[H])c4[H])c3[H])nn(C([H])([H])C([H])([H])[H])c2=O)c1Cl


 47 51  0  0  0  0  0  0  0  0999 V2000
    3.8784    2.8708   18.1711 C   0  0  0  0  0  0  0  0  0  0  0  0
    3.8112    1.5417   17.8537 C   0  0  0  0  0  0  0  0  0  0  0  0
    3.7038    1.1378   16.5190 C   0  0  0  0  0  0  0  0  0  0  0  0
    3.6650    2.0917   15.5061 C   0  0  0  0  0  0  0  0  0  0  0  0
    3.7315    3.4385   15.8018 C   0  0  0  0  0  0  0  0  0  0  0  0
    3.8356    3.7681   17.1350 C   0  0  0  0  0  0  0  0  0  0  0  0
    4.2645    2.7933   21.7951 N   0  0  0  0  0  0  0  0  0  0  0  0
    4.1528    2.4777   20.5398 N   0  0  0  0  0  0  0  0  0  0  0  0
    4.0133    3.3728   19.5548 C   0  0  0  0  0  0  0  0  0  0  0  0
    3.9837    4.7160   19.8662 C   0  0  0  0  0  0  0  0  0  0  0  0
    4.0984    5.0909   21.1836 C   0  0  0  0  0  0  0  0  0  0  0  0
    4.2417    4.0715   22.1473 C   0  0  0  0  0  0  0  0  0  0  0  0
    4.3534    4.3449   23.3826 O   0  0  0  0  0  0  0  0  0  0  0  0
    4.0717    6.4141   21.6315 N   0  0  0  0  0  0  0  0  0  0  0  0
    4.9886    7.4252   21.3705 C   0  0  0  0  0  0  0  0  0  0  0  0
    5.9988    7.2582   20.6688 O   0  0  0  0  0  0  0  0  0  0  0  0
    4.7530    8.7243   21.9395 N   0  0  0  0  0  0  0  0  0  0  0  0
    3.2304    6.6930   22.2620 H   0  0  0  0  0  0  0  0  0  0  0  0
    3.9351    8.9069   22.5235 H   0  0  0  0  0  0  0  0  0  0  0  0
    5.6794    9.7479   21.6717 C   0  0  0  0  0  0  0  0  0  0  0  0
    5.5599   10.5558   20.5531 C   0  0  0  0  0  0  0  0  0  0  0  0
    4.2241   10.3037   19.4377 Cl  0  0  0  0  0  0  0  0  0  0  0  0
    6.5105   11.5360   20.3631 C   0  0  0  0  0  0  0  0  0  0  0  0
    7.5293   11.7064   21.2390 N   0  0  0  0  0  0  0  0  0  0  0  0
    7.6329   10.9114   22.3250 C   0  0  0  0  0  0  0  0  0  0  0  0
    6.7260    9.9129   22.5841 C   0  0  0  0  0  0  0  0  0  0  0  0
    6.8394    8.8652   23.9896 Cl  0  0  0  0  0  0  0  0  0  0  0  0
    3.1804    0.8653   22.8105 C   0  0  0  0  0  0  0  0  0  0  0  0
    4.4115    1.7584   22.8134 C   0  0  0  0  0  0  0  0  0  0  0  0
    3.7083    4.4349   14.7425 C   0  0  0  0  0  0  0  0  0  0  0  0
    3.5896    5.7849   15.0640 C   0  0  0  0  0  0  0  0  0  0  0  0
    3.5737    6.7670   14.1108 C   0  0  0  0  0  0  0  0  0  0  0  0
    3.6791    6.4166   12.7698 C   0  0  0  0  0  0  0  0  0  0  0  0
    3.7977    5.0961   12.4096 C   0  0  0  0  0  0  0  0  0  0  0  0
    3.8103    4.1172   13.4103 C   0  0  0  0  0  0  0  0  0  0  0  0
    3.9213    4.6745   11.0250 C   0  0  0  0  0  0  0  0  0  0  0  0
    2.9759    4.8824   10.1928 O   0  0  0  0  0  0  0  0  0  0  0  0
    5.1056    4.0216   10.5870 N   0  0  0  0  0  0  0  0  0  0  0  0
    5.8839    3.8405   11.2394 H   0  0  0  0  0  0  0  0  0  0  0  0
    5.2391    3.5929    9.1996 C   0  0  0  0  0  0  0  0  0  0  0  0
    5.8376    4.7177    8.4110 C   0  0  0  0  0  0  0  0  0  0  0  0
    7.2283    4.6486    8.2222 N   0  0  0  0  0  0  0  0  0  0  0  0
    7.7839    3.3997    7.8636 C   0  0  0  0  0  0  0  0  0  0  0  0
    9.2660    3.3918    7.6797 C   0  0  0  0  0  0  0  0  0  0  0  0
    9.8979    4.5720    7.6560 O   0  0  0  0  0  0  0  0  0  0  0  0
    9.3801    5.6624    8.2199 C   0  0  0  0  0  0  0  0  0  0  0  0
    8.0656    5.5402    8.9208 C   0  0  0  0  0  0  0  0  0  0  0  0
 28 29  1  0  0  0
 29  7  1  0  0  0
  7  8  1  0  0  0
  8  9  2  0  0  0
  9 10  1  0  0  0
 10 11  2  0  0  0
 11 14  1  0  0  0
 14 15  1  0  0  0
 15 16  2  0  0  0
 15 17  1  0  0  0
 17 20  1  0  0  0
 20 21  2  0  0  0
 21 22  1  0  0  0
 21 23  1  0  0  0
 23 24  2  0  0  0
 24 25  1  0  0  0
 25 26  2  0  0  0
 26 27  1  0  0  0
 11 12  1  0  0  0
 12 13  2  0  0  0
  9  1  1  0  0  0
  1  2  2  0  0  0
  2  3  1  0  0  0
  3  4  2  0  0  0
  4  5  1  0  0  0
  5  6  2  0  0  0
  5 30  1  0  0  0
 30 31  2  0  0  0
 31 32  1  0  0  0
 32 33  2  0  0  0
 33 34  1  0  0  0
 34 35  2  0  0  0
 34 36  1  0  0  0
 36 37  2  0  0  0
 36 38  1  0  0  0
 38 40  1  0  0  0
 40 41  1  0  0  0
 41 42  1  0  0  0
 42 43  1  0  0  0
 43 44  1  0  0  0
 44 45  1  0  0  0
 45 46  1  0  0  0
 46 47  1  0  0  0
 12  7  1  0  0  0
  6  1  1  0  0  0
 35 30  1  0  0  0
 47 42  1  0  0  0
 26 20  1  0  0  0
 14 18  1  0  0  0
 17 19  1  0  0  0
 38 39  1  0  0  0
M  END
> <minimizedAffinity>
-9.71180

> <CNNscore>
0.1339662224

> <CNNaffinity>
6.4729108810

> <CNN_VS>
0.8671514392

> <CNNaffinity_variance>
0.3576924801

$$$$
[H]c1nc([H])c(Cl)c(N([H])C(=O)N([H])c2c([H])c(-c3c([H])c([H])c([H])c(-c4c([H])c([H])c([H])c(C(=O)N([H])C([H])([H])C([H])([H])N5C([H])([H])C([H])([H])OC([H])([H])C5([H])[H])c4[H])c3[H])nn(C([H])([H])C([H])([H])[H])c2=O)c1Cl


 47 51  0  0  0  0  0  0  0  0999 V2000
    3.7682    2.0830   18.1126 C   0  0  0  0  0  0  0  0  0  0  0  0
    3.3308    0.7886   18.1847 C   0  0  0  0  0  0  0  0  0  0  0  0
    2.8573    0.1373   17.0411 C   0  0  0  0  0  0  0  0  0  0  0  0
    2.8301    0.8077   15.8217 C   0  0  0  0  0  0  0  0  0  0  0  0
    3.2663    2.1138   15.7241 C   0  0  0  0  0  0  0  0  0  0  0  0
    3.7193    2.6964   16.8870 C   0  0  0  0  0  0  0  0  0  0  0  0
    5.6682    2.7400   21.1534 N   0  0  0  0  0  0  0  0  0  0  0  0
    5.1460    2.1974   20.0948 N   0  0  0  0  0  0  0  0  0  0  0  0
    4.3008    2.8294   19.2718 C   0  0  0  0  0  0  0  0  0  0  0  0
    3.9485    4.1348   19.5430 C   0  0  0  0  0  0  0  0  0  0  0  0
    4.4794    4.7447   20.6546 C   0  0  0  0  0  0  0  0  0  0  0  0
    5.3613    3.9934   21.4586 C   0  0  0  0  0  0  0  0  0  0  0  0
    5.8894    4.4931   22.5001 O   0  0  0  0  0  0  0  0  0  0  0  0
    4.1947    6.0554   21.0459 N   0  0  0  0  0  0  0  0  0  0  0  0
    4.8531    7.2218   20.6755 C   0  0  0  0  0  0  0  0  0  0  0  0
    5.8302    7.2336   19.9100 O   0  0  0  0  0  0  0  0  0  0  0  0
    4.3776    8.4715   21.2038 N   0  0  0  0  0  0  0  0  0  0  0  0
    3.3537    6.1846   21.7235 H   0  0  0  0  0  0  0  0  0  0  0  0
    3.5773    8.5091   21.8374 H   0  0  0  0  0  0  0  0  0  0  0  0
    5.0421    9.6517   20.8255 C   0  0  0  0  0  0  0  0  0  0  0  0
    4.6359   10.3885   19.7253 C   0  0  0  0  0  0  0  0  0  0  0  0
    3.2603    9.8442   18.7747 Cl  0  0  0  0  0  0  0  0  0  0  0  0
    5.3416   11.5332   19.4216 C   0  0  0  0  0  0  0  0  0  0  0  0
    6.3979   11.9276   20.1717 N   0  0  0  0  0  0  0  0  0  0  0  0
    6.7824   11.1993   21.2414 C   0  0  0  0  0  0  0  0  0  0  0  0
    6.1308   10.0474   21.6086 C   0  0  0  0  0  0  0  0  0  0  0  0
    6.6121    9.0824   22.9954 Cl  0  0  0  0  0  0  0  0  0  0  0  0
    6.9082    0.6544   21.3431 C   0  0  0  0  0  0  0  0  0  0  0  0
    6.5818    1.9847   22.0043 C   0  0  0  0  0  0  0  0  0  0  0  0
    3.2540    2.8090   14.4466 C   0  0  0  0  0  0  0  0  0  0  0  0
    3.8132    4.0805   14.3446 C   0  0  0  0  0  0  0  0  0  0  0  0
    3.8405    4.7772   13.1668 C   0  0  0  0  0  0  0  0  0  0  0  0
    3.2933    4.2053   12.0241 C   0  0  0  0  0  0  0  0  0  0  0  0
    2.7316    2.9528   12.0815 C   0  0  0  0  0  0  0  0  0  0  0  0
    2.7204    2.2683   13.3025 C   0  0  0  0  0  0  0  0  0  0  0  0
    2.1551    2.3038   10.9167 C   0  0  0  0  0  0  0  0  0  0  0  0
    2.8425    2.1410    9.8534 O   0  0  0  0  0  0  0  0  0  0  0  0
    0.8105    1.8441   10.9557 N   0  0  0  0  0  0  0  0  0  0  0  0
    0.2330    1.9643   11.8020 H   0  0  0  0  0  0  0  0  0  0  0  0
    0.2218    1.1929    9.7914 C   0  0  0  0  0  0  0  0  0  0  0  0
    0.5166   -0.2742    9.8687 C   0  0  0  0  0  0  0  0  0  0  0  0
   -0.4691   -1.1167    9.3274 N   0  0  0  0  0  0  0  0  0  0  0  0
   -0.1562   -2.4866    9.1780 C   0  0  0  0  0  0  0  0  0  0  0  0
   -1.2442   -3.3281    8.5957 C   0  0  0  0  0  0  0  0  0  0  0  0
   -2.4586   -2.7784    8.4705 O   0  0  0  0  0  0  0  0  0  0  0  0
   -2.6338   -1.4594    8.4028 C   0  0  0  0  0  0  0  0  0  0  0  0
   -1.4242   -0.5821    8.4408 C   0  0  0  0  0  0  0  0  0  0  0  0
 28 29  1  0  0  0
 29  7  1  0  0  0
  7  8  1  0  0  0
  8  9  2  0  0  0
  9 10  1  0  0  0
 10 11  2  0  0  0
 11 14  1  0  0  0
 14 15  1  0  0  0
 15 16  2  0  0  0
 15 17  1  0  0  0
 17 20  1  0  0  0
 20 21  2  0  0  0
 21 22  1  0  0  0
 21 23  1  0  0  0
 23 24  2  0  0  0
 24 25  1  0  0  0
 25 26  2  0  0  0
 26 27  1  0  0  0
 11 12  1  0  0  0
 12 13  2  0  0  0
  9  1  1  0  0  0
  1  2  2  0  0  0
  2  3  1  0  0  0
  3  4  2  0  0  0
  4  5  1  0  0  0
  5  6  2  0  0  0
  5 30  1  0  0  0
 30 31  2  0  0  0
 31 32  1  0  0  0
 32 33  2  0  0  0
 33 34  1  0  0  0
 34 35  2  0  0  0
 34 36  1  0  0  0
 36 37  2  0  0  0
 36 38  1  0  0  0
 38 40  1  0  0  0
 40 41  1  0  0  0
 41 42  1  0  0  0
 42 43  1  0  0  0
 43 44  1  0  0  0
 44 45  1  0  0  0
 45 46  1  0  0  0
 46 47  1  0  0  0
 12  7  1  0  0  0
  6  1  1  0  0  0
 35 30  1  0  0  0
 47 42  1  0  0  0
 26 20  1  0  0  0
 14 18  1  0  0  0
 17 19  1  0  0  0
 38 39  1  0  0  0
M  END
> <minimizedAffinity>
-10.65995

> <CNNscore>
0.1271158457

> <CNNaffinity>
6.4599633217

> <CNN_VS>
0.8211637139

> <CNNaffinity_variance>
0.4686747193

$$$$
[H]c1nc(N([H])C(=O)c2c([H])c([H])c(C3([H])C([H])([H])C([H])([H])N(C([H])(C([H])([H])[H])C([H])([H])[H])C([H])([H])C3([H])[H])c([H])c2[H])c([H])c(Oc2c(OC([H])([H])[H])c([H])c3c(c2[H])c([H])c([H])n3C(=O)N([H])C([H])([H])[H])c1[H]


 42 46  0  0  0  0  0  0  0  0999 V2000
    4.3340    1.7316   20.3059 C   0  0  0  0  0  0  0  0  0  0  0  0
    3.6428    1.2083   21.3781 C   0  0  0  0  0  0  0  0  0  0  0  0
    3.4436    1.9529   22.5387 C   0  0  0  0  0  0  0  0  0  0  0  0
    3.9385    3.2000   22.6000 N   0  0  0  0  0  0  0  0  0  0  0  0
    4.6198    3.7410   21.5662 C   0  0  0  0  0  0  0  0  0  0  0  0
    4.8341    3.0319   20.4065 C   0  0  0  0  0  0  0  0  0  0  0  0
    5.1460    5.0559   21.6382 N   0  0  0  0  0  0  0  0  0  0  0  0
    6.4825    5.2230   22.1055 C   0  0  0  0  0  0  0  0  0  0  0  0
    7.1866    4.2488   22.4386 O   0  0  0  0  0  0  0  0  0  0  0  0
    4.5543    5.8690   21.3577 H   0  0  0  0  0  0  0  0  0  0  0  0
    7.0825    6.5706   22.2094 C   0  0  0  0  0  0  0  0  0  0  0  0
    6.4629    7.6891   21.6957 C   0  0  0  0  0  0  0  0  0  0  0  0
    7.0803    8.9222   21.8150 C   0  0  0  0  0  0  0  0  0  0  0  0
    8.2976    9.1031   22.4270 C   0  0  0  0  0  0  0  0  0  0  0  0
    8.8949    7.9592   22.9335 C   0  0  0  0  0  0  0  0  0  0  0  0
    8.3121    6.7196   22.8334 C   0  0  0  0  0  0  0  0  0  0  0  0
    8.8688   10.4549   22.5090 C   0  0  0  0  0  0  0  0  0  0  0  0
   10.1800   10.4751   23.2732 C   0  0  0  0  0  0  0  0  0  0  0  0
   10.0379   11.0959   24.6416 C   0  0  0  0  0  0  0  0  0  0  0  0
    9.7192   12.4834   24.5153 N   0  0  0  0  0  0  0  0  0  0  0  0
    8.7429   12.7074   23.4502 C   0  0  0  0  0  0  0  0  0  0  0  0
    7.9532   11.4509   23.1461 C   0  0  0  0  0  0  0  0  0  0  0  0
   10.8648   13.3057   24.1924 C   0  0  0  0  0  0  0  0  0  0  0  0
   10.5589   14.1487   22.9766 C   0  0  0  0  0  0  0  0  0  0  0  0
   11.3565   14.1499   25.3169 C   0  0  0  0  0  0  0  0  0  0  0  0
    4.5530    1.0266   19.1368 O   0  0  0  0  0  0  0  0  0  0  0  0
    0.8587    1.9329   11.6165 C   0  0  0  0  0  0  0  0  0  0  0  0
    1.5939    1.9401   12.9205 N   0  0  0  0  0  0  0  0  0  0  0  0
    2.3523    3.0512   13.2190 C   0  0  0  0  0  0  0  0  0  0  0  0
    2.3281    3.9791   12.2956 O   0  0  0  0  0  0  0  0  0  0  0  0
    3.1377    3.3402   14.3453 N   0  0  0  0  0  0  0  0  0  0  0  0
    3.8476    4.5188   14.4952 C   0  0  0  0  0  0  0  0  0  0  0  0
    4.4999    4.4978   15.6911 C   0  0  0  0  0  0  0  0  0  0  0  0
    4.2062    3.3034   16.3068 C   0  0  0  0  0  0  0  0  0  0  0  0
    4.5907    2.7715   17.5149 C   0  0  0  0  0  0  0  0  0  0  0  0
    4.1549    1.5297   17.9239 C   0  0  0  0  0  0  0  0  0  0  0  0
    3.3195    0.8429   17.0748 C   0  0  0  0  0  0  0  0  0  0  0  0
    2.9246    1.3606   15.8615 C   0  0  0  0  0  0  0  0  0  0  0  0
    3.3516    2.6003   15.4395 C   0  0  0  0  0  0  0  0  0  0  0  0
    1.4475    1.0908   13.4656 H   0  0  0  0  0  0  0  0  0  0  0  0
    2.8692   -0.4046   17.4663 O   0  0  0  0  0  0  0  0  0  0  0  0
    1.9542   -0.5751   18.5365 C   0  0  0  0  0  0  0  0  0  0  0  0
 27 28  1  0  0  0
 28 29  1  0  0  0
 29 30  2  0  0  0
 29 31  1  0  0  0
 31 32  1  0  0  0
 32 33  2  0  0  0
 33 34  1  0  0  0
 34 35  2  0  0  0
 35 36  1  0  0  0
 36 26  1  0  0  0
 26  1  1  0  0  0
  1  2  2  0  0  0
  2  3  1  0  0  0
  3  4  2  0  0  0
  4  5  1  0  0  0
  5  7  1  0  0  0
  7  8  1  0  0  0
  8  9  2  0  0  0
  8 11  1  0  0  0
 11 12  2  0  0  0
 12 13  1  0  0  0
 13 14  2  0  0  0
 14 15  1  0  0  0
 15 16  2  0  0  0
 14 17  1  0  0  0
 17 18  1  0  0  0
 18 19  1  0  0  0
 19 20  1  0  0  0
 20 21  1  0  0  0
 21 22  1  0  0  0
 20 23  1  0  0  0
 23 24  1  0  0  0
 23 25  1  0  0  0
  5  6  2  0  0  0
 36 37  2  0  0  0
 37 41  1  0  0  0
 41 42  1  0  0  0
 37 38  1  0  0  0
 38 39  2  0  0  0
 39 31  1  0  0  0
 39 34  1  0  0  0
  6  1  1  0  0  0
 16 11  1  0  0  0
 22 17  1  0  0  0
 28 40  1  0  0  0
  7 10  1  0  0  0
M  END
> <minimizedAffinity>
-8.50035

> <CNNscore>
0.3205432296

> <CNNaffinity>
6.8020601273

> <CNN_VS>
2.1803543568

> <CNNaffinity_variance>
0.3089118600

$$$$
[H]c1nc(N([H])C(=O)c2c([H])c([H])c(C3([H])C([H])([H])C([H])([H])N(C([H])(C([H])([H])[H])C([H])([H])[H])C([H])([H])C3([H])[H])c([H])c2[H])c([H])c(Oc2c(OC([H])([H])[H])c([H])c3c(c2[H])c([H])c([H])n3C(=O)N([H])C([H])([H])[H])c1[H]


 42 46  0  0  0  0  0  0  0  0999 V2000
    2.8121    7.5577   14.2956 C   0  0  0  0  0  0  0  0  0  0  0  0
    2.6783    8.7346   13.5899 C   0  0  0  0  0  0  0  0  0  0  0  0
    3.2099    9.9283   14.0733 C   0  0  0  0  0  0  0  0  0  0  0  0
    3.8614    9.9173   15.2479 N   0  0  0  0  0  0  0  0  0  0  0  0
    4.0094    8.7803   15.9627 C   0  0  0  0  0  0  0  0  0  0  0  0
    3.4959    7.5854   15.5133 C   0  0  0  0  0  0  0  0  0  0  0  0
    4.6926    8.7751   17.2055 N   0  0  0  0  0  0  0  0  0  0  0  0
    4.1105    9.4822   18.2981 C   0  0  0  0  0  0  0  0  0  0  0  0
    3.0262   10.0879   18.1833 O   0  0  0  0  0  0  0  0  0  0  0  0
    5.5995    8.2664   17.2983 H   0  0  0  0  0  0  0  0  0  0  0  0
    4.7806    9.5187   19.6158 C   0  0  0  0  0  0  0  0  0  0  0  0
    5.5589   10.5846   20.0119 C   0  0  0  0  0  0  0  0  0  0  0  0
    6.1691   10.5552   21.2539 C   0  0  0  0  0  0  0  0  0  0  0  0
    6.0436    9.5071   22.1342 C   0  0  0  0  0  0  0  0  0  0  0  0
    5.2544    8.4506   21.7068 C   0  0  0  0  0  0  0  0  0  0  0  0
    4.6338    8.4451   20.4815 C   0  0  0  0  0  0  0  0  0  0  0  0
    6.7268    9.5722   23.4339 C   0  0  0  0  0  0  0  0  0  0  0  0
    7.8672   10.5737   23.4298 C   0  0  0  0  0  0  0  0  0  0  0  0
    9.2198    9.9041   23.4219 C   0  0  0  0  0  0  0  0  0  0  0  0
    9.4192    9.1966   24.6477 N   0  0  0  0  0  0  0  0  0  0  0  0
    8.2030    8.4967   25.0587 C   0  0  0  0  0  0  0  0  0  0  0  0
    7.2758    8.2564   23.8851 C   0  0  0  0  0  0  0  0  0  0  0  0
    9.7823   10.0577   25.7519 C   0  0  0  0  0  0  0  0  0  0  0  0
    9.8098    9.2573   27.0329 C   0  0  0  0  0  0  0  0  0  0  0  0
   11.0578   10.8031   25.5611 C   0  0  0  0  0  0  0  0  0  0  0  0
    2.3002    6.3527   13.8510 O   0  0  0  0  0  0  0  0  0  0  0  0
   -4.3928    4.6201    9.0317 C   0  0  0  0  0  0  0  0  0  0  0  0
   -3.3251    5.0120   10.0051 N   0  0  0  0  0  0  0  0  0  0  0  0
   -3.7167    5.6716   11.1499 C   0  0  0  0  0  0  0  0  0  0  0  0
   -5.0074    5.8736   11.2359 O   0  0  0  0  0  0  0  0  0  0  0  0
   -2.9566    6.1553   12.2257 N   0  0  0  0  0  0  0  0  0  0  0  0
   -3.5090    6.8043   13.3161 C   0  0  0  0  0  0  0  0  0  0  0  0
   -2.5153    7.1424   14.1847 C   0  0  0  0  0  0  0  0  0  0  0  0
   -1.3254    6.7085   13.6483 C   0  0  0  0  0  0  0  0  0  0  0  0
   -0.0295    6.7850   14.1009 C   0  0  0  0  0  0  0  0  0  0  0  0
    1.0176    6.2642   13.3717 C   0  0  0  0  0  0  0  0  0  0  0  0
    0.7144    5.6646   12.1720 C   0  0  0  0  0  0  0  0  0  0  0  0
   -0.5776    5.5794   11.7038 C   0  0  0  0  0  0  0  0  0  0  0  0
   -1.6343    6.0948   12.4216 C   0  0  0  0  0  0  0  0  0  0  0  0
   -2.3904    4.7375    9.7037 H   0  0  0  0  0  0  0  0  0  0  0  0
    1.7501    5.1342   11.4248 O   0  0  0  0  0  0  0  0  0  0  0  0
    2.3470    5.8438   10.3516 C   0  0  0  0  0  0  0  0  0  0  0  0
 27 28  1  0  0  0
 28 29  1  0  0  0
 29 30  2  0  0  0
 29 31  1  0  0  0
 31 32  1  0  0  0
 32 33  2  0  0  0
 33 34  1  0  0  0
 34 35  2  0  0  0
 35 36  1  0  0  0
 36 26  1  0  0  0
 26  1  1  0  0  0
  1  2  2  0  0  0
  2  3  1  0  0  0
  3  4  2  0  0  0
  4  5  1  0  0  0
  5  7  1  0  0  0
  7  8  1  0  0  0
  8  9  2  0  0  0
  8 11  1  0  0  0
 11 12  2  0  0  0
 12 13  1  0  0  0
 13 14  2  0  0  0
 14 15  1  0  0  0
 15 16  2  0  0  0
 14 17  1  0  0  0
 17 18  1  0  0  0
 18 19  1  0  0  0
 19 20  1  0  0  0
 20 21  1  0  0  0
 21 22  1  0  0  0
 20 23  1  0  0  0
 23 24  1  0  0  0
 23 25  1  0  0  0
  5  6  2  0  0  0
 36 37  2  0  0  0
 37 41  1  0  0  0
 41 42  1  0  0  0
 37 38  1  0  0  0
 38 39  2  0  0  0
 39 31  1  0  0  0
 39 34  1  0  0  0
  6  1  1  0  0  0
 16 11  1  0  0  0
 22 17  1  0  0  0
 28 40  1  0  0  0
  7 10  1  0  0  0
M  END
> <minimizedAffinity>
-8.54461

> <CNNscore>
0.2907228172

> <CNNaffinity>
5.8726086617

> <CNN_VS>
1.7073013783

> <CNNaffinity_variance>
0.1719943583

$$$$
[H]c1nc(N([H])C(=O)c2c([H])c([H])c(C3([H])C([H])([H])C([H])([H])N(C([H])(C([H])([H])[H])C([H])([H])[H])C([H])([H])C3([H])[H])c([H])c2[H])c([H])c(Oc2c(OC([H])([H])[H])c([H])c3c(c2[H])c([H])c([H])n3C(=O)N([H])C([H])([H])[H])c1[H]


 42 46  0  0  0  0  0  0  0  0999 V2000
    3.9978    6.8388   15.0590 C   0  0  0  0  0  0  0  0  0  0  0  0
    4.3467    8.1726   15.0418 C   0  0  0  0  0  0  0  0  0  0  0  0
    3.4020    9.1602   14.7711 C   0  0  0  0  0  0  0  0  0  0  0  0
    2.1340    8.7922   14.5248 N   0  0  0  0  0  0  0  0  0  0  0  0
    1.7609    7.4936   14.5347 C   0  0  0  0  0  0  0  0  0  0  0  0
    2.6695    6.4943   14.7980 C   0  0  0  0  0  0  0  0  0  0  0  0
    0.4221    7.1097   14.2677 N   0  0  0  0  0  0  0  0  0  0  0  0
    0.0301    6.9305   12.9088 C   0  0  0  0  0  0  0  0  0  0  0  0
    0.8326    7.0951   11.9682 O   0  0  0  0  0  0  0  0  0  0  0  0
   -0.2468    6.9718   15.0573 H   0  0  0  0  0  0  0  0  0  0  0  0
   -1.3545    6.5380   12.5685 C   0  0  0  0  0  0  0  0  0  0  0  0
   -2.4384    6.9673   13.3032 C   0  0  0  0  0  0  0  0  0  0  0  0
   -3.7097    6.5568   12.9409 C   0  0  0  0  0  0  0  0  0  0  0  0
   -3.9623    5.7309   11.8717 C   0  0  0  0  0  0  0  0  0  0  0  0
   -2.8517    5.3167   11.1529 C   0  0  0  0  0  0  0  0  0  0  0  0
   -1.5759    5.7036   11.4831 C   0  0  0  0  0  0  0  0  0  0  0  0
   -5.3495    5.3555   11.5635 C   0  0  0  0  0  0  0  0  0  0  0  0
   -5.4352    4.0110   10.8645 C   0  0  0  0  0  0  0  0  0  0  0  0
   -5.7734    4.1456    9.3997 C   0  0  0  0  0  0  0  0  0  0  0  0
   -7.0955    4.6683    9.2520 N   0  0  0  0  0  0  0  0  0  0  0  0
   -7.3523    5.7382   10.2150 C   0  0  0  0  0  0  0  0  0  0  0  0
   -6.0635    6.3583   10.7144 C   0  0  0  0  0  0  0  0  0  0  0  0
   -8.1284    3.6779    9.4639 C   0  0  0  0  0  0  0  0  0  0  0  0
   -7.6926    2.3555    8.8776 C   0  0  0  0  0  0  0  0  0  0  0  0
   -8.5505    3.5188   10.8836 C   0  0  0  0  0  0  0  0  0  0  0  0
    4.9040    5.8284   15.3235 O   0  0  0  0  0  0  0  0  0  0  0  0
    3.5194    0.5203   21.7212 C   0  0  0  0  0  0  0  0  0  0  0  0
    3.6973    1.3274   20.4730 N   0  0  0  0  0  0  0  0  0  0  0  0
    3.2867    0.7633   19.2847 C   0  0  0  0  0  0  0  0  0  0  0  0
    2.7816   -0.4381   19.4094 O   0  0  0  0  0  0  0  0  0  0  0  0
    3.3253    1.2696   17.9766 N   0  0  0  0  0  0  0  0  0  0  0  0
    2.8661    0.5677   16.8757 C   0  0  0  0  0  0  0  0  0  0  0  0
    3.0358    1.3290   15.7586 C   0  0  0  0  0  0  0  0  0  0  0  0
    3.6045    2.5198   16.1464 C   0  0  0  0  0  0  0  0  0  0  0  0
    3.9819    3.6344   15.4354 C   0  0  0  0  0  0  0  0  0  0  0  0
    4.5405    4.7289   16.0594 C   0  0  0  0  0  0  0  0  0  0  0  0
    4.7060    4.6617   17.4227 C   0  0  0  0  0  0  0  0  0  0  0  0
    4.3338    3.5535   18.1502 C   0  0  0  0  0  0  0  0  0  0  0  0
    3.7739    2.4525   17.5405 C   0  0  0  0  0  0  0  0  0  0  0  0
    4.1179    2.2403   20.6450 H   0  0  0  0  0  0  0  0  0  0  0  0
    5.2636    5.7497   18.0691 O   0  0  0  0  0  0  0  0  0  0  0  0
    4.4908    6.6298   18.8690 C   0  0  0  0  0  0  0  0  0  0  0  0
 27 28  1  0  0  0
 28 29  1  0  0  0
 29 30  2  0  0  0
 29 31  1  0  0  0
 31 32  1  0  0  0
 32 33  2  0  0  0
 33 34  1  0  0  0
 34 35  2  0  0  0
 35 36  1  0  0  0
 36 26  1  0  0  0
 26  1  1  0  0  0
  1  2  2  0  0  0
  2  3  1  0  0  0
  3  4  2  0  0  0
  4  5  1  0  0  0
  5  7  1  0  0  0
  7  8  1  0  0  0
  8  9  2  0  0  0
  8 11  1  0  0  0
 11 12  2  0  0  0
 12 13  1  0  0  0
 13 14  2  0  0  0
 14 15  1  0  0  0
 15 16  2  0  0  0
 14 17  1  0  0  0
 17 18  1  0  0  0
 18 19  1  0  0  0
 19 20  1  0  0  0
 20 21  1  0  0  0
 21 22  1  0  0  0
 20 23  1  0  0  0
 23 24  1  0  0  0
 23 25  1  0  0  0
  5  6  2  0  0  0
 36 37  2  0  0  0
 37 41  1  0  0  0
 41 42  1  0  0  0
 37 38  1  0  0  0
 38 39  2  0  0  0
 39 31  1  0  0  0
 39 34  1  0  0  0
  6  1  1  0  0  0
 16 11  1  0  0  0
 22 17  1  0  0  0
 28 40  1  0  0  0
  7 10  1  0  0  0
M  END
> <minimizedAffinity>
-9.10348

> <CNNscore>
0.2482618392

> <CNNaffinity>
6.4948377609

> <CNN_VS>
1.6124203205

> <CNNaffinity_variance>
0.0724847764

$$$$
[H]c1nc(N([H])C(=O)c2c([H])c([H])c(C3([H])C([H])([H])C([H])([H])N(C([H])(C([H])([H])[H])C([H])([H])[H])C([H])([H])C3([H])[H])c([H])c2[H])c([H])c(Oc2c(OC([H])([H])[H])c([H])c3c(c2[H])c([H])c([H])n3C(=O)N([H])C([H])([H])[H])c1[H]


 42 46  0  0  0  0  0  0  0  0999 V2000
    4.4020    1.4608   19.6953 C   0  0  0  0  0  0  0  0  0  0  0  0
    3.7324    0.7574   20.6741 C   0  0  0  0  0  0  0  0  0  0  0  0
    3.6836    1.2203   21.9873 C   0  0  0  0  0  0  0  0  0  0  0  0
    4.3036    2.3726   22.2904 N   0  0  0  0  0  0  0  0  0  0  0  0
    4.9676    3.0849   21.3537 C   0  0  0  0  0  0  0  0  0  0  0  0
    5.0348    2.6550   20.0482 C   0  0  0  0  0  0  0  0  0  0  0  0
    5.6260    4.2978   21.6801 N   0  0  0  0  0  0  0  0  0  0  0  0
    4.8826    5.5116   21.5995 C   0  0  0  0  0  0  0  0  0  0  0  0
    3.6824    5.5235   21.2603 O   0  0  0  0  0  0  0  0  0  0  0  0
    6.6304    4.2841   21.9645 H   0  0  0  0  0  0  0  0  0  0  0  0
    5.5178    6.8079   21.9205 C   0  0  0  0  0  0  0  0  0  0  0  0
    5.0048    8.0054   21.4714 C   0  0  0  0  0  0  0  0  0  0  0  0
    5.6511    9.1854   21.7967 C   0  0  0  0  0  0  0  0  0  0  0  0
    6.7959    9.2371   22.5555 C   0  0  0  0  0  0  0  0  0  0  0  0
    7.2867    8.0163   22.9921 C   0  0  0  0  0  0  0  0  0  0  0  0
    6.6723    6.8259   22.6889 C   0  0  0  0  0  0  0  0  0  0  0  0
    7.4053   10.5413   22.8522 C   0  0  0  0  0  0  0  0  0  0  0  0
    7.8401   11.2679   21.5927 C   0  0  0  0  0  0  0  0  0  0  0  0
    9.3397   11.2735   21.4214 C   0  0  0  0  0  0  0  0  0  0  0  0
    9.9450   12.0447   22.4614 N   0  0  0  0  0  0  0  0  0  0  0  0
    9.3066   11.7871   23.7514 C   0  0  0  0  0  0  0  0  0  0  0  0
    8.5898   10.4526   23.7607 C   0  0  0  0  0  0  0  0  0  0  0  0
    9.8519   13.4716   22.2427 C   0  0  0  0  0  0  0  0  0  0  0  0
    9.3760   14.1496   23.5061 C   0  0  0  0  0  0  0  0  0  0  0  0
   11.1032   14.1026   21.7375 C   0  0  0  0  0  0  0  0  0  0  0  0
    4.4738    1.0367   18.3812 O   0  0  0  0  0  0  0  0  0  0  0  0
    0.0887    3.7009   11.6957 C   0  0  0  0  0  0  0  0  0  0  0  0
    0.9503    3.3971   12.8816 N   0  0  0  0  0  0  0  0  0  0  0  0
    1.7821    4.3963   13.3383 C   0  0  0  0  0  0  0  0  0  0  0  0
    1.7060    5.5100   12.6543 O   0  0  0  0  0  0  0  0  0  0  0  0
    2.6881    4.4062   14.4098 N   0  0  0  0  0  0  0  0  0  0  0  0
    3.4598    5.5057   14.7429 C   0  0  0  0  0  0  0  0  0  0  0  0
    4.2269    5.2006   15.8267 C   0  0  0  0  0  0  0  0  0  0  0  0
    3.9448    3.9036   16.1871 C   0  0  0  0  0  0  0  0  0  0  0  0
    4.4247    3.1035   17.1969 C   0  0  0  0  0  0  0  0  0  0  0  0
    3.9786    1.8101   17.3617 C   0  0  0  0  0  0  0  0  0  0  0  0
    3.0334    1.3508   16.4749 C   0  0  0  0  0  0  0  0  0  0  0  0
    2.5420    2.1383   15.4580 C   0  0  0  0  0  0  0  0  0  0  0  0
    2.9780    3.4329   15.2811 C   0  0  0  0  0  0  0  0  0  0  0  0
    0.8224    2.4492   13.2351 H   0  0  0  0  0  0  0  0  0  0  0  0
    2.5709    0.0560   16.6230 O   0  0  0  0  0  0  0  0  0  0  0  0
    2.1415   -0.4535   17.8751 C   0  0  0  0  0  0  0  0  0  0  0  0
 27 28  1  0  0  0
 28 29  1  0  0  0
 29 30  2  0  0  0
 29 31  1  0  0  0
 31 32  1  0  0  0
 32 33  2  0  0  0
 33 34  1  0  0  0
 34 35  2  0  0  0
 35 36  1  0  0  0
 36 26  1  0  0  0
 26  1  1  0  0  0
  1  2  2  0  0  0
  2  3  1  0  0  0
  3  4  2  0  0  0
  4  5  1  0  0  0
  5  7  1  0  0  0
  7  8  1  0  0  0
  8  9  2  0  0  0
  8 11  1  0  0  0
 11 12  2  0  0  0
 12 13  1  0  0  0
 13 14  2  0  0  0
 14 15  1  0  0  0
 15 16  2  0  0  0
 14 17  1  0  0  0
 17 18  1  0  0  0
 18 19  1  0  0  0
 19 20  1  0  0  0
 20 21  1  0  0  0
 21 22  1  0  0  0
 20 23  1  0  0  0
 23 24  1  0  0  0
 23 25  1  0  0  0
  5  6  2  0  0  0
 36 37  2  0  0  0
 37 41  1  0  0  0
 41 42  1  0  0  0
 37 38  1  0  0  0
 38 39  2  0  0  0
 39 31  1  0  0  0
 39 34  1  0  0  0
  6  1  1  0  0  0
 16 11  1  0  0  0
 22 17  1  0  0  0
 28 40  1  0  0  0
  7 10  1  0  0  0
M  END
> <minimizedAffinity>
-8.88942

> <CNNscore>
0.2250479907

> <CNNaffinity>
6.6752901077

> <CNN_VS>
1.5022606850

> <CNNaffinity_variance>
0.3538889289

$$$$
[H]c1nc(N([H])C(=O)c2c([H])c([H])c(C3([H])C([H])([H])C([H])([H])N(C([H])(C([H])([H])[H])C([H])([H])[H])C([H])([H])C3([H])[H])c([H])c2[H])c([H])c(Oc2c(OC([H])([H])[H])c([H])c3c(c2[H])c([H])c([H])n3C(=O)N([H])C([H])([H])[H])c1[H]


 42 46  0  0  0  0  0  0  0  0999 V2000
    4.7321    1.6952   19.9353 C   0  0  0  0  0  0  0  0  0  0  0  0
    3.6281    1.2196   20.6106 C   0  0  0  0  0  0  0  0  0  0  0  0
    3.3546    1.6214   21.9163 C   0  0  0  0  0  0  0  0  0  0  0  0
    4.1891    2.4873   22.5147 N   0  0  0  0  0  0  0  0  0  0  0  0
    5.2789    2.9715   21.8794 C   0  0  0  0  0  0  0  0  0  0  0  0
    5.5771    2.5942   20.5902 C   0  0  0  0  0  0  0  0  0  0  0  0
    6.1604    3.8806   22.5179 N   0  0  0  0  0  0  0  0  0  0  0  0
    6.2933    5.1896   21.9688 C   0  0  0  0  0  0  0  0  0  0  0  0
    5.6529    5.5445   20.9590 O   0  0  0  0  0  0  0  0  0  0  0  0
    6.6942    3.5805   23.3634 H   0  0  0  0  0  0  0  0  0  0  0  0
    7.2031    6.1781   22.5868 C   0  0  0  0  0  0  0  0  0  0  0  0
    8.5554    5.9474   22.7163 C   0  0  0  0  0  0  0  0  0  0  0  0
    9.3538    6.9074   23.3137 C   0  0  0  0  0  0  0  0  0  0  0  0
    8.8707    8.1008   23.7951 C   0  0  0  0  0  0  0  0  0  0  0  0
    7.5070    8.3030   23.6498 C   0  0  0  0  0  0  0  0  0  0  0  0
    6.6843    7.3731   23.0626 C   0  0  0  0  0  0  0  0  0  0  0  0
    9.8007    9.0595   24.4084 C   0  0  0  0  0  0  0  0  0  0  0  0
    9.0819   10.0785   25.2735 C   0  0  0  0  0  0  0  0  0  0  0  0
    9.0329   11.4439   24.6323 C   0  0  0  0  0  0  0  0  0  0  0  0
   10.3532   11.9822   24.5333 N   0  0  0  0  0  0  0  0  0  0  0  0
   11.3124   10.9589   24.1204 C   0  0  0  0  0  0  0  0  0  0  0  0
   10.6277    9.8079   23.4123 C   0  0  0  0  0  0  0  0  0  0  0  0
   10.8471   12.5178   25.7829 C   0  0  0  0  0  0  0  0  0  0  0  0
   12.2267   13.0982   25.5774 C   0  0  0  0  0  0  0  0  0  0  0  0
    9.9429   13.5083   26.4315 C   0  0  0  0  0  0  0  0  0  0  0  0
    5.0387    1.3222   18.6397 O   0  0  0  0  0  0  0  0  0  0  0  0
    2.9593    6.9877   12.7573 C   0  0  0  0  0  0  0  0  0  0  0  0
    3.1996    5.8691   13.7228 N   0  0  0  0  0  0  0  0  0  0  0  0
    2.4787    4.7081   13.5461 C   0  0  0  0  0  0  0  0  0  0  0  0
    1.6560    4.7391   12.5281 O   0  0  0  0  0  0  0  0  0  0  0  0
    2.4885    3.5114   14.2786 N   0  0  0  0  0  0  0  0  0  0  0  0
    1.6933    2.4224   13.9668 C   0  0  0  0  0  0  0  0  0  0  0  0
    1.9384    1.4212   14.8577 C   0  0  0  0  0  0  0  0  0  0  0  0
    2.8923    1.8712   15.7406 C   0  0  0  0  0  0  0  0  0  0  0  0
    3.4990    1.2772   16.8219 C   0  0  0  0  0  0  0  0  0  0  0  0
    4.4479    1.9425   17.5678 C   0  0  0  0  0  0  0  0  0  0  0  0
    4.7639    3.2255   17.1873 C   0  0  0  0  0  0  0  0  0  0  0  0
    4.1660    3.8355   16.1074 C   0  0  0  0  0  0  0  0  0  0  0  0
    3.2165    3.1830   15.3523 C   0  0  0  0  0  0  0  0  0  0  0  0
    3.8964    6.0970   14.4316 H   0  0  0  0  0  0  0  0  0  0  0  0
    5.7146    3.9108   17.9213 O   0  0  0  0  0  0  0  0  0  0  0  0
    6.2125    5.1759   17.5172 C   0  0  0  0  0  0  0  0  0  0  0  0
 27 28  1  0  0  0
 28 29  1  0  0  0
 29 30  2  0  0  0
 29 31  1  0  0  0
 31 32  1  0  0  0
 32 33  2  0  0  0
 33 34  1  0  0  0
 34 35  2  0  0  0
 35 36  1  0  0  0
 36 26  1  0  0  0
 26  1  1  0  0  0
  1  2  2  0  0  0
  2  3  1  0  0  0
  3  4  2  0  0  0
  4  5  1  0  0  0
  5  7  1  0  0  0
  7  8  1  0  0  0
  8  9  2  0  0  0
  8 11  1  0  0  0
 11 12  2  0  0  0
 12 13  1  0  0  0
 13 14  2  0  0  0
 14 15  1  0  0  0
 15 16  2  0  0  0
 14 17  1  0  0  0
 17 18  1  0  0  0
 18 19  1  0  0  0
 19 20  1  0  0  0
 20 21  1  0  0  0
 21 22  1  0  0  0
 20 23  1  0  0  0
 23 24  1  0  0  0
 23 25  1  0  0  0
  5  6  2  0  0  0
 36 37  2  0  0  0
 37 41  1  0  0  0
 41 42  1  0  0  0
 37 38  1  0  0  0
 38 39  2  0  0  0
 39 31  1  0  0  0
 39 34  1  0  0  0
  6  1  1  0  0  0
 16 11  1  0  0  0
 22 17  1  0  0  0
 28 40  1  0  0  0
  7 10  1  0  0  0
M  END
> <minimizedAffinity>
-8.54442

> <CNNscore>
0.1661119014

> <CNNaffinity>
6.5272560120

> <CNN_VS>
1.0842548609

> <CNNaffinity_variance>
0.2148294151

$$$$
[H]c1nc(N([H])C(=O)c2c([H])c([H])c(C3([H])C([H])([H])C([H])([H])N(C([H])(C([H])([H])[H])C([H])([H])[H])C([H])([H])C3([H])[H])c([H])c2[H])c([H])c(Oc2c(OC([H])([H])[H])c([H])c3c(c2[H])c([H])c([H])n3C(=O)N([H])C([H])([H])[H])c1[H]


 42 46  0  0  0  0  0  0  0  0999 V2000
    4.4921    7.2934   15.9546 C   0  0  0  0  0  0  0  0  0  0  0  0
    5.3256    8.1424   15.2578 C   0  0  0  0  0  0  0  0  0  0  0  0
    4.8864    8.8024   14.1122 C   0  0  0  0  0  0  0  0  0  0  0  0
    3.6272    8.5990   13.6912 N   0  0  0  0  0  0  0  0  0  0  0  0
    2.7862    7.7736   14.3524 C   0  0  0  0  0  0  0  0  0  0  0  0
    3.1894    7.1067   15.4865 C   0  0  0  0  0  0  0  0  0  0  0  0
    1.4596    7.5572   13.9003 N   0  0  0  0  0  0  0  0  0  0  0  0
    1.1831    6.3670   13.1657 C   0  0  0  0  0  0  0  0  0  0  0  0
    2.0708    5.5244   12.9252 O   0  0  0  0  0  0  0  0  0  0  0  0
    0.7188    8.2639   14.1042 H   0  0  0  0  0  0  0  0  0  0  0  0
   -0.1796    6.0907   12.6622 C   0  0  0  0  0  0  0  0  0  0  0  0
   -0.4072    5.2693   11.5795 C   0  0  0  0  0  0  0  0  0  0  0  0
   -1.7056    5.0579   11.1488 C   0  0  0  0  0  0  0  0  0  0  0  0
   -2.8038    5.6283   11.7470 C   0  0  0  0  0  0  0  0  0  0  0  0
   -2.5418    6.4489   12.8332 C   0  0  0  0  0  0  0  0  0  0  0  0
   -1.2670    6.6817   13.2882 C   0  0  0  0  0  0  0  0  0  0  0  0
   -4.1441    5.3374   11.2188 C   0  0  0  0  0  0  0  0  0  0  0  0
   -4.1610    5.2848    9.7021 C   0  0  0  0  0  0  0  0  0  0  0  0
   -4.8320    6.4917    9.0928 C   0  0  0  0  0  0  0  0  0  0  0  0
   -6.2212    6.4968    9.4286 N   0  0  0  0  0  0  0  0  0  0  0  0
   -6.4304    6.1066   10.8221 C   0  0  0  0  0  0  0  0  0  0  0  0
   -5.1824    6.3220   11.6535 C   0  0  0  0  0  0  0  0  0  0  0  0
   -7.0054    5.5799    8.6305 C   0  0  0  0  0  0  0  0  0  0  0  0
   -7.9751    4.8350    9.5177 C   0  0  0  0  0  0  0  0  0  0  0  0
   -7.7110    6.2097    7.4797 C   0  0  0  0  0  0  0  0  0  0  0  0
    4.8885    6.6201   17.0954 O   0  0  0  0  0  0  0  0  0  0  0  0
    7.6094   11.8508   23.1171 C   0  0  0  0  0  0  0  0  0  0  0  0
    7.2950   10.8388   22.0597 N   0  0  0  0  0  0  0  0  0  0  0  0
    8.2595    9.8982   21.7702 C   0  0  0  0  0  0  0  0  0  0  0  0
    9.3539   10.0187   22.4787 O   0  0  0  0  0  0  0  0  0  0  0  0
    8.2521    8.8434   20.8448 N   0  0  0  0  0  0  0  0  0  0  0  0
    9.3156    7.9745   20.6736 C   0  0  0  0  0  0  0  0  0  0  0  0
    8.9976    7.0640   19.7113 C   0  0  0  0  0  0  0  0  0  0  0  0
    7.7282    7.3516   19.2667 C   0  0  0  0  0  0  0  0  0  0  0  0
    6.9283    6.7582   18.3188 C   0  0  0  0  0  0  0  0  0  0  0  0
    5.6650    7.2357   18.0446 C   0  0  0  0  0  0  0  0  0  0  0  0
    5.2357    8.3304   18.7572 C   0  0  0  0  0  0  0  0  0  0  0  0
    6.0236    8.9370   19.7096 C   0  0  0  0  0  0  0  0  0  0  0  0
    7.2880    8.4708   19.9949 C   0  0  0  0  0  0  0  0  0  0  0  0
    6.3671   10.9603   21.6547 H   0  0  0  0  0  0  0  0  0  0  0  0
    3.9705    8.8251   18.4987 O   0  0  0  0  0  0  0  0  0  0  0  0
    3.5900   10.1455   18.8500 C   0  0  0  0  0  0  0  0  0  0  0  0
 27 28  1  0  0  0
 28 29  1  0  0  0
 29 30  2  0  0  0
 29 31  1  0  0  0
 31 32  1  0  0  0
 32 33  2  0  0  0
 33 34  1  0  0  0
 34 35  2  0  0  0
 35 36  1  0  0  0
 36 26  1  0  0  0
 26  1  1  0  0  0
  1  2  2  0  0  0
  2  3  1  0  0  0
  3  4  2  0  0  0
  4  5  1  0  0  0
  5  7  1  0  0  0
  7  8  1  0  0  0
  8  9  2  0  0  0
  8 11  1  0  0  0
 11 12  2  0  0  0
 12 13  1  0  0  0
 13 14  2  0  0  0
 14 15  1  0  0  0
 15 16  2  0  0  0
 14 17  1  0  0  0
 17 18  1  0  0  0
 18 19  1  0  0  0
 19 20  1  0  0  0
 20 21  1  0  0  0
 21 22  1  0  0  0
 20 23  1  0  0  0
 23 24  1  0  0  0
 23 25  1  0  0  0
  5  6  2  0  0  0
 36 37  2  0  0  0
 37 41  1  0  0  0
 41 42  1  0  0  0
 37 38  1  0  0  0
 38 39  2  0  0  0
 39 31  1  0  0  0
 39 34  1  0  0  0
  6  1  1  0  0  0
 16 11  1  0  0  0
 22 17  1  0  0  0
 28 40  1  0  0  0
  7 10  1  0  0  0
M  END
> <minimizedAffinity>
-8.14747

> <CNNscore>
0.1512330174

> <CNNaffinity>
5.6911482811

> <CNN_VS>
0.8606895208

> <CNNaffinity_variance>
0.2093726844

$$$$
[H]c1nc(N([H])C(=O)c2c([H])c([H])c(C3([H])C([H])([H])C([H])([H])N(C([H])(C([H])([H])[H])C([H])([H])[H])C([H])([H])C3([H])[H])c([H])c2[H])c([H])c(Oc2c(OC([H])([H])[H])c([H])c3c(c2[H])c([H])c([H])n3C(=O)N([H])C([H])([H])[H])c1[H]


 42 46  0  0  0  0  0  0  0  0999 V2000
    4.2291    3.0551   20.6188 C   0  0  0  0  0  0  0  0  0  0  0  0
    4.1268    1.7417   21.0257 C   0  0  0  0  0  0  0  0  0  0  0  0
    4.1214    0.6999   20.1006 C   0  0  0  0  0  0  0  0  0  0  0  0
    4.2185    0.9949   18.7938 N   0  0  0  0  0  0  0  0  0  0  0  0
    4.3205    2.2717   18.3637 C   0  0  0  0  0  0  0  0  0  0  0  0
    4.3282    3.3230   19.2515 C   0  0  0  0  0  0  0  0  0  0  0  0
    4.4164    2.5783   16.9824 N   0  0  0  0  0  0  0  0  0  0  0  0
    3.2330    2.5023   16.1910 C   0  0  0  0  0  0  0  0  0  0  0  0
    2.1332    2.1839   16.6858 O   0  0  0  0  0  0  0  0  0  0  0  0
    5.3382    2.8453   16.5717 H   0  0  0  0  0  0  0  0  0  0  0  0
    3.2729    2.8033   14.7437 C   0  0  0  0  0  0  0  0  0  0  0  0
    3.9721    3.8778   14.2386 C   0  0  0  0  0  0  0  0  0  0  0  0
    3.9625    4.1136   12.8747 C   0  0  0  0  0  0  0  0  0  0  0  0
    3.2849    3.3257   11.9752 C   0  0  0  0  0  0  0  0  0  0  0  0
    2.5916    2.2530   12.5142 C   0  0  0  0  0  0  0  0  0  0  0  0
    2.5785    1.9885   13.8619 C   0  0  0  0  0  0  0  0  0  0  0  0
    3.3406    3.6552   10.5439 C   0  0  0  0  0  0  0  0  0  0  0  0
    3.8741    5.0551   10.3007 C   0  0  0  0  0  0  0  0  0  0  0  0
    2.7920    6.0159    9.8719 C   0  0  0  0  0  0  0  0  0  0  0  0
    2.2870    5.6383    8.5893 N   0  0  0  0  0  0  0  0  0  0  0  0
    2.1295    4.1881    8.4884 C   0  0  0  0  0  0  0  0  0  0  0  0
    2.0178    3.5443    9.8551 C   0  0  0  0  0  0  0  0  0  0  0  0
    3.1523    6.0274    7.4973 C   0  0  0  0  0  0  0  0  0  0  0  0
    3.3084    4.8724    6.5361 C   0  0  0  0  0  0  0  0  0  0  0  0
    2.7275    7.2631    6.7820 C   0  0  0  0  0  0  0  0  0  0  0  0
    4.2386    4.1174   21.5039 O   0  0  0  0  0  0  0  0  0  0  0  0
    8.7401   11.1278   20.2334 C   0  0  0  0  0  0  0  0  0  0  0  0
    8.0952    9.8123   20.5408 N   0  0  0  0  0  0  0  0  0  0  0  0
    8.8456    8.8774   21.2203 C   0  0  0  0  0  0  0  0  0  0  0  0
   10.0575    9.2758   21.5146 O   0  0  0  0  0  0  0  0  0  0  0  0
    8.5175    7.5796   21.6411 N   0  0  0  0  0  0  0  0  0  0  0  0
    9.3962    6.7564   22.3234 C   0  0  0  0  0  0  0  0  0  0  0  0
    8.7798    5.5718   22.5934 C   0  0  0  0  0  0  0  0  0  0  0  0
    7.5044    5.6381   22.0826 C   0  0  0  0  0  0  0  0  0  0  0  0
    6.4673    4.7355   22.0761 C   0  0  0  0  0  0  0  0  0  0  0  0
    5.2564    5.0375   21.4916 C   0  0  0  0  0  0  0  0  0  0  0  0
    5.1264    6.2787   20.9144 C   0  0  0  0  0  0  0  0  0  0  0  0
    6.1545    7.1945   20.9118 C   0  0  0  0  0  0  0  0  0  0  0  0
    7.3702    6.9071   21.4923 C   0  0  0  0  0  0  0  0  0  0  0  0
    7.1356    9.7497   20.2017 H   0  0  0  0  0  0  0  0  0  0  0  0
    3.9189    6.6029   20.3234 O   0  0  0  0  0  0  0  0  0  0  0  0
    3.8383    7.1158   19.0035 C   0  0  0  0  0  0  0  0  0  0  0  0
 27 28  1  0  0  0
 28 29  1  0  0  0
 29 30  2  0  0  0
 29 31  1  0  0  0
 31 32  1  0  0  0
 32 33  2  0  0  0
 33 34  1  0  0  0
 34 35  2  0  0  0
 35 36  1  0  0  0
 36 26  1  0  0  0
 26  1  1  0  0  0
  1  2  2  0  0  0
  2  3  1  0  0  0
  3  4  2  0  0  0
  4  5  1  0  0  0
  5  7  1  0  0  0
  7  8  1  0  0  0
  8  9  2  0  0  0
  8 11  1  0  0  0
 11 12  2  0  0  0
 12 13  1  0  0  0
 13 14  2  0  0  0
 14 15  1  0  0  0
 15 16  2  0  0  0
 14 17  1  0  0  0
 17 18  1  0  0  0
 18 19  1  0  0  0
 19 20  1  0  0  0
 20 21  1  0  0  0
 21 22  1  0  0  0
 20 23  1  0  0  0
 23 24  1  0  0  0
 23 25  1  0  0  0
  5  6  2  0  0  0
 36 37  2  0  0  0
 37 41  1  0  0  0
 41 42  1  0  0  0
 37 38  1  0  0  0
 38 39  2  0  0  0
 39 31  1  0  0  0
 39 34  1  0  0  0
  6  1  1  0  0  0
 16 11  1  0  0  0
 22 17  1  0  0  0
 28 40  1  0  0  0
  7 10  1  0  0  0
M  END
> <minimizedAffinity>
-8.41712

> <CNNscore>
0.1422953159

> <CNNaffinity>
6.1467485428

> <CNN_VS>
0.8746535182

> <CNNaffinity_variance>
0.3640264273

$$$$
[H]c1nc(N([H])C(=O)c2c([H])c([H])c(C3([H])C([H])([H])C([H])([H])N(C([H])(C([H])([H])[H])C([H])([H])[H])C([H])([H])C3([H])[H])c([H])c2[H])c([H])c(Oc2c(OC([H])([H])[H])c([H])c3c(c2[H])c([H])c([H])n3C(=O)N([H])C([H])([H])[H])c1[H]


 42 46  0  0  0  0  0  0  0  0999 V2000
    3.2907    5.3558   13.9986 C   0  0  0  0  0  0  0  0  0  0  0  0
    3.4720    6.6251   14.5054 C   0  0  0  0  0  0  0  0  0  0  0  0
    2.5653    7.6465   14.2301 C   0  0  0  0  0  0  0  0  0  0  0  0
    1.5011    7.3755   13.4567 N   0  0  0  0  0  0  0  0  0  0  0  0
    1.2955    6.1418   12.9454 C   0  0  0  0  0  0  0  0  0  0  0  0
    2.1723    5.1118   13.1981 C   0  0  0  0  0  0  0  0  0  0  0  0
    0.1737    5.8623   12.1241 N   0  0  0  0  0  0  0  0  0  0  0  0
   -1.1282    6.0638   12.6690 C   0  0  0  0  0  0  0  0  0  0  0  0
   -1.2939    6.4815   13.8325 O   0  0  0  0  0  0  0  0  0  0  0  0
    0.3160    5.5137   11.1504 H   0  0  0  0  0  0  0  0  0  0  0  0
   -2.3354    5.7822   11.8626 C   0  0  0  0  0  0  0  0  0  0  0  0
   -3.6068    5.9901   12.3514 C   0  0  0  0  0  0  0  0  0  0  0  0
   -4.6979    5.6972   11.5515 C   0  0  0  0  0  0  0  0  0  0  0  0
   -4.5887    5.2021   10.2740 C   0  0  0  0  0  0  0  0  0  0  0  0
   -3.2969    5.0042    9.8114 C   0  0  0  0  0  0  0  0  0  0  0  0
   -2.1911    5.2834   10.5766 C   0  0  0  0  0  0  0  0  0  0  0  0
   -5.8083    4.9279    9.5009 C   0  0  0  0  0  0  0  0  0  0  0  0
   -5.6168    5.1940    8.0191 C   0  0  0  0  0  0  0  0  0  0  0  0
   -6.3239    6.4476    7.5644 C   0  0  0  0  0  0  0  0  0  0  0  0
   -7.7382    6.2767    7.6790 N   0  0  0  0  0  0  0  0  0  0  0  0
   -8.0893    5.5878    8.9200 C   0  0  0  0  0  0  0  0  0  0  0  0
   -6.9933    5.7177    9.9576 C   0  0  0  0  0  0  0  0  0  0  0  0
   -8.3077    5.4912    6.6061 C   0  0  0  0  0  0  0  0  0  0  0  0
   -7.4444    5.6143    5.3724 C   0  0  0  0  0  0  0  0  0  0  0  0
   -8.5494    4.0615    6.9475 C   0  0  0  0  0  0  0  0  0  0  0  0
    4.1660    4.3149   14.2481 O   0  0  0  0  0  0  0  0  0  0  0  0
    4.5784    1.3796   22.1372 C   0  0  0  0  0  0  0  0  0  0  0  0
    4.4135    1.7416   20.6940 N   0  0  0  0  0  0  0  0  0  0  0  0
    3.7241    0.8600   19.8901 C   0  0  0  0  0  0  0  0  0  0  0  0
    3.2930   -0.2075   20.5135 O   0  0  0  0  0  0  0  0  0  0  0  0
    3.4156    0.9269   18.5228 N   0  0  0  0  0  0  0  0  0  0  0  0
    2.7044   -0.0546   17.8548 C   0  0  0  0  0  0  0  0  0  0  0  0
    2.5662    0.3055   16.5481 C   0  0  0  0  0  0  0  0  0  0  0  0
    3.1903    1.5198   16.3808 C   0  0  0  0  0  0  0  0  0  0  0  0
    3.3494    2.3291   15.2808 C   0  0  0  0  0  0  0  0  0  0  0  0
    4.0263    3.5268   15.3626 C   0  0  0  0  0  0  0  0  0  0  0  0
    4.5369    3.8805   16.5893 C   0  0  0  0  0  0  0  0  0  0  0  0
    4.3869    3.0821   17.7009 C   0  0  0  0  0  0  0  0  0  0  0  0
    3.7126    1.8827   17.6347 C   0  0  0  0  0  0  0  0  0  0  0  0
    4.8450    2.6340   20.4550 H   0  0  0  0  0  0  0  0  0  0  0  0
    5.2187    5.0791   16.6939 O   0  0  0  0  0  0  0  0  0  0  0  0
    6.1338    5.3375   17.7462 C   0  0  0  0  0  0  0  0  0  0  0  0
 27 28  1  0  0  0
 28 29  1  0  0  0
 29 30  2  0  0  0
 29 31  1  0  0  0
 31 32  1  0  0  0
 32 33  2  0  0  0
 33 34  1  0  0  0
 34 35  2  0  0  0
 35 36  1  0  0  0
 36 26  1  0  0  0
 26  1  1  0  0  0
  1  2  2  0  0  0
  2  3  1  0  0  0
  3  4  2  0  0  0
  4  5  1  0  0  0
  5  7  1  0  0  0
  7  8  1  0  0  0
  8  9  2  0  0  0
  8 11  1  0  0  0
 11 12  2  0  0  0
 12 13  1  0  0  0
 13 14  2  0  0  0
 14 15  1  0  0  0
 15 16  2  0  0  0
 14 17  1  0  0  0
 17 18  1  0  0  0
 18 19  1  0  0  0
 19 20  1  0  0  0
 20 21  1  0  0  0
 21 22  1  0  0  0
 20 23  1  0  0  0
 23 24  1  0  0  0
 23 25  1  0  0  0
  5  6  2  0  0  0
 36 37  2  0  0  0
 37 41  1  0  0  0
 41 42  1  0  0  0
 37 38  1  0  0  0
 38 39  2  0  0  0
 39 31  1  0  0  0
 39 34  1  0  0  0
  6  1  1  0  0  0
 16 11  1  0  0  0
 22 17  1  0  0  0
 28 40  1  0  0  0
  7 10  1  0  0  0
M  END
> <minimizedAffinity>
-9.00968

> <CNNscore>
0.1261990666

> <CNNaffinity>
6.0011940002

> <CNN_VS>
0.7573450804

> <CNNaffinity_variance>
0.0974472463

$$$$
[H]c1nc(N([H])C(=O)c2c([H])c([H])c(C3([H])C([H])([H])C([H])([H])N(C([H])(C([H])([H])[H])C([H])([H])[H])C([H])([H])C3([H])[H])c([H])c2[H])c([H])c(Oc2c(OC([H])([H])[H])c([H])c3c(c2[H])c([H])c([H])n3C(=O)N([H])C([H])([H])[H])c1[H]


 42 46  0  0  0  0  0  0  0  0999 V2000
    2.3473    2.6806   15.5631 C   0  0  0  0  0  0  0  0  0  0  0  0
    2.5800    1.3482   15.8308 C   0  0  0  0  0  0  0  0  0  0  0  0
    3.3126    0.9560   16.9491 C   0  0  0  0  0  0  0  0  0  0  0  0
    3.7939    1.9025   17.7716 N   0  0  0  0  0  0  0  0  0  0  0  0
    3.5825    3.2162   17.5367 C   0  0  0  0  0  0  0  0  0  0  0  0
    2.8637    3.6364   16.4411 C   0  0  0  0  0  0  0  0  0  0  0  0
    4.0982    4.2121   18.4047 N   0  0  0  0  0  0  0  0  0  0  0  0
    5.4117    4.7081   18.1572 C   0  0  0  0  0  0  0  0  0  0  0  0
    6.0994    4.2938   17.2026 O   0  0  0  0  0  0  0  0  0  0  0  0
    3.5196    4.5573   19.2021 H   0  0  0  0  0  0  0  0  0  0  0  0
    6.0054    5.7413   19.0329 C   0  0  0  0  0  0  0  0  0  0  0  0
    6.8649    6.7041   18.5502 C   0  0  0  0  0  0  0  0  0  0  0  0
    7.3966    7.6383   19.4222 C   0  0  0  0  0  0  0  0  0  0  0  0
    7.1140    7.6651   20.7671 C   0  0  0  0  0  0  0  0  0  0  0  0
    6.2464    6.6841   21.2216 C   0  0  0  0  0  0  0  0  0  0  0  0
    5.6998    5.7412   20.3858 C   0  0  0  0  0  0  0  0  0  0  0  0
    7.7246    8.7021   21.6109 C   0  0  0  0  0  0  0  0  0  0  0  0
    8.3799    8.1180   22.8489 C   0  0  0  0  0  0  0  0  0  0  0  0
    7.5908    8.4004   24.1042 C   0  0  0  0  0  0  0  0  0  0  0  0
    7.5915    9.8040   24.3734 N   0  0  0  0  0  0  0  0  0  0  0  0
    7.4116   10.5784   23.1463 C   0  0  0  0  0  0  0  0  0  0  0  0
    6.7580    9.7521   22.0578 C   0  0  0  0  0  0  0  0  0  0  0  0
    8.8245   10.2711   24.9685 C   0  0  0  0  0  0  0  0  0  0  0  0
    8.6738   11.7162   25.3822 C   0  0  0  0  0  0  0  0  0  0  0  0
    9.3174    9.4402   26.1024 C   0  0  0  0  0  0  0  0  0  0  0  0
    1.6255    3.1115   14.4653 O   0  0  0  0  0  0  0  0  0  0  0  0
    5.4186    5.9260    7.4858 C   0  0  0  0  0  0  0  0  0  0  0  0
    4.7415    5.2573    8.6414 N   0  0  0  0  0  0  0  0  0  0  0  0
    4.5008    3.9041    8.5436 C   0  0  0  0  0  0  0  0  0  0  0  0
    4.9078    3.3682    7.4205 O   0  0  0  0  0  0  0  0  0  0  0  0
    3.8941    3.0206    9.4494 N   0  0  0  0  0  0  0  0  0  0  0  0
    3.7261    1.6701    9.1978 C   0  0  0  0  0  0  0  0  0  0  0  0
    3.1140    1.0897   10.2676 C   0  0  0  0  0  0  0  0  0  0  0  0
    2.8904    2.0712   11.2049 C   0  0  0  0  0  0  0  0  0  0  0  0
    2.3142    2.0383   12.4527 C   0  0  0  0  0  0  0  0  0  0  0  0
    2.2024    3.1762   13.2221 C   0  0  0  0  0  0  0  0  0  0  0  0
    2.6905    4.3471   12.6916 C   0  0  0  0  0  0  0  0  0  0  0  0
    3.2704    4.3980   11.4438 C   0  0  0  0  0  0  0  0  0  0  0  0
    3.3895    3.2690   10.6636 C   0  0  0  0  0  0  0  0  0  0  0  0
    4.5249    5.9000    9.4029 H   0  0  0  0  0  0  0  0  0  0  0  0
    2.5897    5.5007   13.4475 O   0  0  0  0  0  0  0  0  0  0  0  0
    3.6796    6.3934   13.6113 C   0  0  0  0  0  0  0  0  0  0  0  0
 27 28  1  0  0  0
 28 29  1  0  0  0
 29 30  2  0  0  0
 29 31  1  0  0  0
 31 32  1  0  0  0
 32 33  2  0  0  0
 33 34  1  0  0  0
 34 35  2  0  0  0
 35 36  1  0  0  0
 36 26  1  0  0  0
 26  1  1  0  0  0
  1  2  2  0  0  0
  2  3  1  0  0  0
  3  4  2  0  0  0
  4  5  1  0  0  0
  5  7  1  0  0  0
  7  8  1  0  0  0
  8  9  2  0  0  0
  8 11  1  0  0  0
 11 12  2  0  0  0
 12 13  1  0  0  0
 13 14  2  0  0  0
 14 15  1  0  0  0
 15 16  2  0  0  0
 14 17  1  0  0  0
 17 18  1  0  0  0
 18 19  1  0  0  0
 19 20  1  0  0  0
 20 21  1  0  0  0
 21 22  1  0  0  0
 20 23  1  0  0  0
 23 24  1  0  0  0
 23 25  1  0  0  0
  5  6  2  0  0  0
 36 37  2  0  0  0
 37 41  1  0  0  0
 41 42  1  0  0  0
 37 38  1  0  0  0
 38 39  2  0  0  0
 39 31  1  0  0  0
 39 34  1  0  0  0
  6  1  1  0  0  0
 16 11  1  0  0  0
 22 17  1  0  0  0
 28 40  1  0  0  0
  7 10  1  0  0  0
M  END
> <minimizedAffinity>
-7.77488

> <CNNscore>
0.1250156164

> <CNNaffinity>
5.9700040817

> <CNN_VS>
0.7463437319

> <CNNaffinity_variance>
0.1863024235

$$$$
[H]c1nc(N2C([H])([H])[C@@]3([H])N(C([H])([H])[H])C([H])([H])[C@]2([H])C3([H])[H])c([H])nc1-c1c([H])nc([H])c([H])c1[H]


 20 23  0  0  0  0  0  0  0  0999 V2000
    4.5055    7.9549    8.5429 C   0  0  0  0  0  0  0  0  0  0  0  0
    4.9104    6.9726    7.6499 C   0  0  0  0  0  0  0  0  0  0  0  0
    5.5317    7.2882    6.5020 N   0  0  0  0  0  0  0  0  0  0  0  0
    5.7938    8.5789    6.1590 C   0  0  0  0  0  0  0  0  0  0  0  0
    5.3913    9.5417    7.0453 C   0  0  0  0  0  0  0  0  0  0  0  0
    4.7589    9.2290    8.2146 N   0  0  0  0  0  0  0  0  0  0  0  0
    2.2600    5.6169   12.9594 C   0  0  0  0  0  0  0  0  0  0  0  0
    2.3017    6.0957   11.5909 N   0  0  0  0  0  0  0  0  0  0  0  0
    3.5676    5.6459   11.0046 C   0  0  0  0  0  0  0  0  0  0  0  0
    4.4104    6.8942   10.8385 C   0  0  0  0  0  0  0  0  0  0  0  0
    3.8679    7.7076   12.0307 C   0  0  0  0  0  0  0  0  0  0  0  0
    2.3982    7.5326   11.6026 C   0  0  0  0  0  0  0  0  0  0  0  0
    2.4956    7.9938   10.1692 C   0  0  0  0  0  0  0  0  0  0  0  0
    3.8487    7.6398    9.7584 N   0  0  0  0  0  0  0  0  0  0  0  0
    6.4685    8.8999    4.9098 C   0  0  0  0  0  0  0  0  0  0  0  0
    5.8831    8.5127    3.6973 C   0  0  0  0  0  0  0  0  0  0  0  0
    6.4848    8.7946    2.4910 C   0  0  0  0  0  0  0  0  0  0  0  0
    7.6858    9.4684    2.4352 C   0  0  0  0  0  0  0  0  0  0  0  0
    8.2431    9.8374    3.5999 N   0  0  0  0  0  0  0  0  0  0  0  0
    7.6622    9.5673    4.8074 C   0  0  0  0  0  0  0  0  0  0  0  0
  7  8  1  0  0  0
  8  9  1  0  0  0
  9 10  1  0  0  0
 10 11  1  0  0  0
 11 12  1  0  0  0
 12 13  1  0  0  0
 13 14  1  0  0  0
 14  1  1  0  0  0
  1  2  2  0  0  0
  2  3  1  0  0  0
  3  4  2  0  0  0
  4  5  1  0  0  0
  5  6  2  0  0  0
  4 15  1  0  0  0
 15 16  2  0  0  0
 16 17  1  0  0  0
 17 18  2  0  0  0
 18 19  1  0  0  0
 19 20  2  0  0  0
 12  8  1  0  0  0
  6  1  1  0  0  0
 20 15  1  0  0  0
 14 10  1  0  0  0
M  END
> <minimizedAffinity>
-4.65400

> <CNNscore>
0.4486025572

> <CNNaffinity>
4.2663106918

> <CNN_VS>
1.9138778448

> <CNNaffinity_variance>
0.2496799976

$$$$
[H]c1nc(N2C([H])([H])[C@@]3([H])N(C([H])([H])[H])C([H])([H])[C@]2([H])C3([H])[H])c([H])nc1-c1c([H])nc([H])c([H])c1[H]


 20 23  0  0  0  0  0  0  0  0999 V2000
    4.1132    4.4745   11.0658 C   0  0  0  0  0  0  0  0  0  0  0  0
    3.7180    3.9173    9.8576 C   0  0  0  0  0  0  0  0  0  0  0  0
    4.6171    3.5821    8.9182 N   0  0  0  0  0  0  0  0  0  0  0  0
    5.9523    3.7708    9.1026 C   0  0  0  0  0  0  0  0  0  0  0  0
    6.3336    4.3208   10.2969 C   0  0  0  0  0  0  0  0  0  0  0  0
    5.4256    4.6645   11.2574 N   0  0  0  0  0  0  0  0  0  0  0  0
    0.0667    6.5866   14.0956 C   0  0  0  0  0  0  0  0  0  0  0  0
    1.3977    6.5223   13.5228 N   0  0  0  0  0  0  0  0  0  0  0  0
    1.2503    6.2091   12.0985 C   0  0  0  0  0  0  0  0  0  0  0  0
    1.7574    4.7906   11.9346 C   0  0  0  0  0  0  0  0  0  0  0  0
    1.3788    4.2408   13.3244 C   0  0  0  0  0  0  0  0  0  0  0  0
    2.0880    5.3849   14.0742 C   0  0  0  0  0  0  0  0  0  0  0  0
    3.4450    5.3143   13.4184 C   0  0  0  0  0  0  0  0  0  0  0  0
    3.1781    4.8343   12.0681 N   0  0  0  0  0  0  0  0  0  0  0  0
    6.9107    3.4005    8.0714 C   0  0  0  0  0  0  0  0  0  0  0  0
    6.4826    2.6232    6.9874 C   0  0  0  0  0  0  0  0  0  0  0  0
    7.3534    2.2488    5.9883 C   0  0  0  0  0  0  0  0  0  0  0  0
    8.6784    2.6267    6.0209 C   0  0  0  0  0  0  0  0  0  0  0  0
    9.0841    3.3716    7.0619 N   0  0  0  0  0  0  0  0  0  0  0  0
    8.2359    3.7536    8.0634 C   0  0  0  0  0  0  0  0  0  0  0  0
  7  8  1  0  0  0
  8  9  1  0  0  0
  9 10  1  0  0  0
 10 11  1  0  0  0
 11 12  1  0  0  0
 12 13  1  0  0  0
 13 14  1  0  0  0
 14  1  1  0  0  0
  1  2  2  0  0  0
  2  3  1  0  0  0
  3  4  2  0  0  0
  4  5  1  0  0  0
  5  6  2  0  0  0
  4 15  1  0  0  0
 15 16  2  0  0  0
 16 17  1  0  0  0
 17 18  2  0  0  0
 18 19  1  0  0  0
 19 20  2  0  0  0
 12  8  1  0  0  0
  6  1  1  0  0  0
 20 15  1  0  0  0
 14 10  1  0  0  0
M  END
> <minimizedAffinity>
-3.73620

> <CNNscore>
0.4448854625

> <CNNaffinity>
4.5328655243

> <CNN_VS>
2.0166060925

> <CNNaffinity_variance>
0.1525121629

$$$$
[H]c1nc(N2C([H])([H])[C@@]3([H])N(C([H])([H])[H])C([H])([H])[C@]2([H])C3([H])[H])c([H])nc1-c1c([H])nc([H])c([H])c1[H]


 20 23  0  0  0  0  0  0  0  0999 V2000
    3.4255    4.9969    9.7489 C   0  0  0  0  0  0  0  0  0  0  0  0
    4.4779    4.5557    8.9588 C   0  0  0  0  0  0  0  0  0  0  0  0
    5.1131    5.3872    8.1171 N   0  0  0  0  0  0  0  0  0  0  0  0
    4.7590    6.6958    7.9974 C   0  0  0  0  0  0  0  0  0  0  0  0
    3.7201    7.1230    8.7802 C   0  0  0  0  0  0  0  0  0  0  0  0
    3.0690    6.2838    9.6386 N   0  0  0  0  0  0  0  0  0  0  0  0
    1.6744    1.9465   13.9492 C   0  0  0  0  0  0  0  0  0  0  0  0
    2.4376    2.2368   12.7505 N   0  0  0  0  0  0  0  0  0  0  0  0
    3.0400    3.5621   12.9212 C   0  0  0  0  0  0  0  0  0  0  0  0
    2.3074    4.4741   11.9581 C   0  0  0  0  0  0  0  0  0  0  0  0
    0.9327    3.7760   11.9688 C   0  0  0  0  0  0  0  0  0  0  0  0
    1.5279    2.3921   11.6449 C   0  0  0  0  0  0  0  0  0  0  0  0
    2.3467    2.7473   10.4283 C   0  0  0  0  0  0  0  0  0  0  0  0
    2.7440    4.1334   10.6423 N   0  0  0  0  0  0  0  0  0  0  0  0
    5.4605    7.5807    7.0790 C   0  0  0  0  0  0  0  0  0  0  0  0
    5.2399    8.9620    7.1574 C   0  0  0  0  0  0  0  0  0  0  0  0
    5.8811    9.8375    6.3095 C   0  0  0  0  0  0  0  0  0  0  0  0
    6.7635    9.3839    5.3529 C   0  0  0  0  0  0  0  0  0  0  0  0
    6.9717    8.0592    5.2814 N   0  0  0  0  0  0  0  0  0  0  0  0
    6.3454    7.1738    6.1134 C   0  0  0  0  0  0  0  0  0  0  0  0
  7  8  1  0  0  0
  8  9  1  0  0  0
  9 10  1  0  0  0
 10 11  1  0  0  0
 11 12  1  0  0  0
 12 13  1  0  0  0
 13 14  1  0  0  0
 14  1  1  0  0  0
  1  2  2  0  0  0
  2  3  1  0  0  0
  3  4  2  0  0  0
  4  5  1  0  0  0
  5  6  2  0  0  0
  4 15  1  0  0  0
 15 16  2  0  0  0
 16 17  1  0  0  0
 17 18  2  0  0  0
 18 19  1  0  0  0
 19 20  2  0  0  0
 12  8  1  0  0  0
  6  1  1  0  0  0
 20 15  1  0  0  0
 14 10  1  0  0  0
M  END
> <minimizedAffinity>
-3.85817

> <CNNscore>
0.4091160297

> <CNNaffinity>
4.3867492676

> <CNN_VS>
1.7946894169

> <CNNaffinity_variance>
0.3675381541

$$$$
[H]c1nc(N2C([H])([H])[C@@]3([H])N(C([H])([H])[H])C([H])([H])[C@]2([H])C3([H])[H])c([H])nc1-c1c([H])nc([H])c([H])c1[H]


 20 23  0  0  0  0  0  0  0  0999 V2000
    3.1633    2.8429   16.0701 C   0  0  0  0  0  0  0  0  0  0  0  0
    3.2627    3.9963   16.8358 C   0  0  0  0  0  0  0  0  0  0  0  0
    3.8291    3.9772   18.0532 N   0  0  0  0  0  0  0  0  0  0  0  0
    4.3307    2.8334   18.5938 C   0  0  0  0  0  0  0  0  0  0  0  0
    4.2287    1.7003   17.8321 C   0  0  0  0  0  0  0  0  0  0  0  0
    3.6542    1.7113   16.5932 N   0  0  0  0  0  0  0  0  0  0  0  0
    0.5001    3.9407   11.4100 C   0  0  0  0  0  0  0  0  0  0  0  0
    0.6433    3.4712   12.7749 N   0  0  0  0  0  0  0  0  0  0  0  0
    1.4198    4.4754   13.5076 C   0  0  0  0  0  0  0  0  0  0  0  0
    2.7676    3.8372   13.7769 C   0  0  0  0  0  0  0  0  0  0  0  0
    2.8561    2.9341   12.5303 C   0  0  0  0  0  0  0  0  0  0  0  0
    1.4758    2.2960   12.7786 C   0  0  0  0  0  0  0  0  0  0  0  0
    1.6502    1.8665   14.2145 C   0  0  0  0  0  0  0  0  0  0  0  0
    2.5688    2.8448   14.7837 N   0  0  0  0  0  0  0  0  0  0  0  0
    4.9408    2.8342   19.9154 C   0  0  0  0  0  0  0  0  0  0  0  0
    5.3555    1.6200   20.4779 C   0  0  0  0  0  0  0  0  0  0  0  0
    5.9375    1.5719   21.7252 C   0  0  0  0  0  0  0  0  0  0  0  0
    6.1322    2.7188   22.4641 C   0  0  0  0  0  0  0  0  0  0  0  0
    5.7330    3.8802   21.9209 N   0  0  0  0  0  0  0  0  0  0  0  0
    5.1535    3.9493   20.6849 C   0  0  0  0  0  0  0  0  0  0  0  0
  7  8  1  0  0  0
  8  9  1  0  0  0
  9 10  1  0  0  0
 10 11  1  0  0  0
 11 12  1  0  0  0
 12 13  1  0  0  0
 13 14  1  0  0  0
 14  1  1  0  0  0
  1  2  2  0  0  0
  2  3  1  0  0  0
  3  4  2  0  0  0
  4  5  1  0  0  0
  5  6  2  0  0  0
  4 15  1  0  0  0
 15 16  2  0  0  0
 16 17  1  0  0  0
 17 18  2  0  0  0
 18 19  1  0  0  0
 19 20  2  0  0  0
 12  8  1  0  0  0
  6  1  1  0  0  0
 20 15  1  0  0  0
 14 10  1  0  0  0
M  END
> <minimizedAffinity>
-6.25038

> <CNNscore>
0.3744740188

> <CNNaffinity>
5.3724160194

> <CNN_VS>
2.0118303299

> <CNNaffinity_variance>
0.2374000549

$$$$
[H]c1nc(N2C([H])([H])[C@@]3([H])N(C([H])([H])[H])C([H])([H])[C@]2([H])C3([H])[H])c([H])nc1-c1c([H])nc([H])c([H])c1[H]


 20 23  0  0  0  0  0  0  0  0999 V2000
    4.6674    3.7269   21.7235 C   0  0  0  0  0  0  0  0  0  0  0  0
    4.0306    3.9807   22.9303 C   0  0  0  0  0  0  0  0  0  0  0  0
    4.2387    3.2024   24.0046 N   0  0  0  0  0  0  0  0  0  0  0  0
    5.0791    2.1326   23.9641 C   0  0  0  0  0  0  0  0  0  0  0  0
    5.7032    1.8893   22.7701 C   0  0  0  0  0  0  0  0  0  0  0  0
    5.4969    2.6759   21.6730 N   0  0  0  0  0  0  0  0  0  0  0  0
    4.8426    6.3148   16.8979 C   0  0  0  0  0  0  0  0  0  0  0  0
    5.1592    6.0971   18.2965 N   0  0  0  0  0  0  0  0  0  0  0  0
    5.4983    4.6802   18.4567 C   0  0  0  0  0  0  0  0  0  0  0  0
    4.3518    4.0683   19.2359 C   0  0  0  0  0  0  0  0  0  0  0  0
    3.2110    4.9743   18.7309 C   0  0  0  0  0  0  0  0  0  0  0  0
    3.9626    6.2738   19.0782 C   0  0  0  0  0  0  0  0  0  0  0  0
    4.3127    5.9866   20.5175 C   0  0  0  0  0  0  0  0  0  0  0  0
    4.4595    4.5376   20.5799 N   0  0  0  0  0  0  0  0  0  0  0  0
    5.2908    1.3014   25.1402 C   0  0  0  0  0  0  0  0  0  0  0  0
    6.5459    1.3042   25.7626 C   0  0  0  0  0  0  0  0  0  0  0  0
    6.7926    0.5341   26.8773 C   0  0  0  0  0  0  0  0  0  0  0  0
    5.8114   -0.2673   27.4198 C   0  0  0  0  0  0  0  0  0  0  0  0
    4.6100   -0.2668   26.8198 N   0  0  0  0  0  0  0  0  0  0  0  0
    4.3450    0.4900   25.7129 C   0  0  0  0  0  0  0  0  0  0  0  0
  7  8  1  0  0  0
  8  9  1  0  0  0
  9 10  1  0  0  0
 10 11  1  0  0  0
 11 12  1  0  0  0
 12 13  1  0  0  0
 13 14  1  0  0  0
 14  1  1  0  0  0
  1  2  2  0  0  0
  2  3  1  0  0  0
  3  4  2  0  0  0
  4  5  1  0  0  0
  5  6  2  0  0  0
  4 15  1  0  0  0
 15 16  2  0  0  0
 16 17  1  0  0  0
 17 18  2  0  0  0
 18 19  1  0  0  0
 19 20  2  0  0  0
 12  8  1  0  0  0
  6  1  1  0  0  0
 20 15  1  0  0  0
 14 10  1  0  0  0
M  END
> <minimizedAffinity>
-5.40825

> <CNNscore>
0.3728528917

> <CNNaffinity>
5.5436339378

> <CNN_VS>
2.0669598579

> <CNNaffinity_variance>
0.0759213641

$$$$
[H]c1nc(N2C([H])([H])[C@@]3([H])N(C([H])([H])[H])C([H])([H])[C@]2([H])C3([H])[H])c([H])nc1-c1c([H])nc([H])c([H])c1[H]


 20 23  0  0  0  0  0  0  0  0999 V2000
    3.3438    3.0685   15.5848 C   0  0  0  0  0  0  0  0  0  0  0  0
    3.5879    4.0662   16.5182 C   0  0  0  0  0  0  0  0  0  0  0  0
    3.9157    3.7687   17.7860 N   0  0  0  0  0  0  0  0  0  0  0  0
    4.0242    2.4821   18.2163 C   0  0  0  0  0  0  0  0  0  0  0  0
    3.7819    1.5040   17.2894 C   0  0  0  0  0  0  0  0  0  0  0  0
    3.4480    1.7983   15.9983 N   0  0  0  0  0  0  0  0  0  0  0  0
    1.8017    3.0394   10.3278 C   0  0  0  0  0  0  0  0  0  0  0  0
    2.7309    2.9314   11.4364 N   0  0  0  0  0  0  0  0  0  0  0  0
    2.1020    2.0902   12.4588 C   0  0  0  0  0  0  0  0  0  0  0  0
    1.7659    3.0202   13.6069 C   0  0  0  0  0  0  0  0  0  0  0  0
    1.5154    4.3110   12.8017 C   0  0  0  0  0  0  0  0  0  0  0  0
    2.8634    4.2224   12.0608 C   0  0  0  0  0  0  0  0  0  0  0  0
    3.7906    4.0642   13.2406 C   0  0  0  0  0  0  0  0  0  0  0  0
    2.9968    3.3644   14.2430 N   0  0  0  0  0  0  0  0  0  0  0  0
    4.3808    2.1809   19.5951 C   0  0  0  0  0  0  0  0  0  0  0  0
    5.3105    2.9953   20.2546 C   0  0  0  0  0  0  0  0  0  0  0  0
    5.6782    2.7489   21.5587 C   0  0  0  0  0  0  0  0  0  0  0  0
    5.1432    1.6906   22.2609 C   0  0  0  0  0  0  0  0  0  0  0  0
    4.2526    0.9127   21.6246 N   0  0  0  0  0  0  0  0  0  0  0  0
    3.8744    1.1402   20.3310 C   0  0  0  0  0  0  0  0  0  0  0  0
  7  8  1  0  0  0
  8  9  1  0  0  0
  9 10  1  0  0  0
 10 11  1  0  0  0
 11 12  1  0  0  0
 12 13  1  0  0  0
 13 14  1  0  0  0
 14  1  1  0  0  0
  1  2  2  0  0  0
  2  3  1  0  0  0
  3  4  2  0  0  0
  4  5  1  0  0  0
  5  6  2  0  0  0
  4 15  1  0  0  0
 15 16  2  0  0  0
 16 17  1  0  0  0
 17 18  2  0  0  0
 18 19  1  0  0  0
 19 20  2  0  0  0
 12  8  1  0  0  0
  6  1  1  0  0  0
 20 15  1  0  0  0
 14 10  1  0  0  0
M  END
> <minimizedAffinity>
-5.82845

> <CNNscore>
0.3576526344

> <CNNaffinity>
5.4205045700

> <CNN_VS>
1.9386577606

> <CNNaffinity_variance>
0.1806307733

$$$$
[H]c1nc(N2C([H])([H])[C@@]3([H])N(C([H])([H])[H])C([H])([H])[C@]2([H])C3([H])[H])c([H])nc1-c1c([H])nc([H])c([H])c1[H]


 20 23  0  0  0  0  0  0  0  0999 V2000
    4.8494    0.8451    8.4630 C   0  0  0  0  0  0  0  0  0  0  0  0
    5.1282   -0.4414    8.0233 C   0  0  0  0  0  0  0  0  0  0  0  0
    4.2961   -1.4624    8.2850 N   0  0  0  0  0  0  0  0  0  0  0  0
    3.1451   -1.2879    8.9899 C   0  0  0  0  0  0  0  0  0  0  0  0
    2.8775   -0.0159    9.4199 C   0  0  0  0  0  0  0  0  0  0  0  0
    3.7185    1.0278    9.1580 N   0  0  0  0  0  0  0  0  0  0  0  0
    7.8598    5.4222    8.5128 C   0  0  0  0  0  0  0  0  0  0  0  0
    6.6733    4.6194    8.2853 N   0  0  0  0  0  0  0  0  0  0  0  0
    6.4746    3.7802    9.4705 C   0  0  0  0  0  0  0  0  0  0  0  0
    6.7914    2.3652    9.0303 C   0  0  0  0  0  0  0  0  0  0  0  0
    7.8492    2.6822    7.9543 C   0  0  0  0  0  0  0  0  0  0  0  0
    6.9390    3.6862    7.2210 C   0  0  0  0  0  0  0  0  0  0  0  0
    5.7078    2.8315    7.0474 C   0  0  0  0  0  0  0  0  0  0  0  0
    5.7161    1.9340    8.1961 N   0  0  0  0  0  0  0  0  0  0  0  0
    2.2565   -2.4080    9.2628 C   0  0  0  0  0  0  0  0  0  0  0  0
    2.8030   -3.6283    9.6812 C   0  0  0  0  0  0  0  0  0  0  0  0
    2.0016   -4.7153    9.9509 C   0  0  0  0  0  0  0  0  0  0  0  0
    0.6319   -4.6399    9.8181 C   0  0  0  0  0  0  0  0  0  0  0  0
    0.1127   -3.4683    9.4167 N   0  0  0  0  0  0  0  0  0  0  0  0
    0.8905   -2.3779    9.1441 C   0  0  0  0  0  0  0  0  0  0  0  0
  7  8  1  0  0  0
  8  9  1  0  0  0
  9 10  1  0  0  0
 10 11  1  0  0  0
 11 12  1  0  0  0
 12 13  1  0  0  0
 13 14  1  0  0  0
 14  1  1  0  0  0
  1  2  2  0  0  0
  2  3  1  0  0  0
  3  4  2  0  0  0
  4  5  1  0  0  0
  5  6  2  0  0  0
  4 15  1  0  0  0
 15 16  2  0  0  0
 16 17  1  0  0  0
 17 18  2  0  0  0
 18 19  1  0  0  0
 19 20  2  0  0  0
 12  8  1  0  0  0
  6  1  1  0  0  0
 20 15  1  0  0  0
 14 10  1  0  0  0
M  END
> <minimizedAffinity>
-3.92939

> <CNNscore>
0.3504647017

> <CNNaffinity>
3.9707808495

> <CNN_VS>
1.3916184902

> <CNNaffinity_variance>
0.4646587372

$$$$
[H]c1nc(N2C([H])([H])[C@@]3([H])N(C([H])([H])[H])C([H])([H])[C@]2([H])C3([H])[H])c([H])nc1-c1c([H])nc([H])c([H])c1[H]


 20 23  0  0  0  0  0  0  0  0999 V2000
    3.6338    2.9746   16.9364 C   0  0  0  0  0  0  0  0  0  0  0  0
    3.6667    4.0393   17.8261 C   0  0  0  0  0  0  0  0  0  0  0  0
    3.9723    3.8557   19.1208 N   0  0  0  0  0  0  0  0  0  0  0  0
    4.2631    2.6244   19.6222 C   0  0  0  0  0  0  0  0  0  0  0  0
    4.2285    1.5796   18.7380 C   0  0  0  0  0  0  0  0  0  0  0  0
    3.9187    1.7579   17.4200 N   0  0  0  0  0  0  0  0  0  0  0  0
    1.6383    4.4741   12.0596 C   0  0  0  0  0  0  0  0  0  0  0  0
    1.6823    3.7200   13.2978 N   0  0  0  0  0  0  0  0  0  0  0  0
    1.9360    4.6704   14.3844 C   0  0  0  0  0  0  0  0  0  0  0  0
    3.3478    4.3878   14.8568 C   0  0  0  0  0  0  0  0  0  0  0  0
    3.9536    3.9090   13.5222 C   0  0  0  0  0  0  0  0  0  0  0  0
    2.8432    2.8678   13.2835 C   0  0  0  0  0  0  0  0  0  0  0  0
    2.8901    2.1405   14.6046 C   0  0  0  0  0  0  0  0  0  0  0  0
    3.3134    3.1500   15.5672 N   0  0  0  0  0  0  0  0  0  0  0  0
    4.5919    2.4468   21.0290 C   0  0  0  0  0  0  0  0  0  0  0  0
    5.7784    2.9989   21.5290 C   0  0  0  0  0  0  0  0  0  0  0  0
    6.1308    2.8565   22.8527 C   0  0  0  0  0  0  0  0  0  0  0  0
    5.3267    2.1648   23.7326 C   0  0  0  0  0  0  0  0  0  0  0  0
    4.1904    1.6374   23.2488 N   0  0  0  0  0  0  0  0  0  0  0  0
    3.8227    1.7674   21.9388 C   0  0  0  0  0  0  0  0  0  0  0  0
  7  8  1  0  0  0
  8  9  1  0  0  0
  9 10  1  0  0  0
 10 11  1  0  0  0
 11 12  1  0  0  0
 12 13  1  0  0  0
 13 14  1  0  0  0
 14  1  1  0  0  0
  1  2  2  0  0  0
  2  3  1  0  0  0
  3  4  2  0  0  0
  4  5  1  0  0  0
  5  6  2  0  0  0
  4 15  1  0  0  0
 15 16  2  0  0  0
 16 17  1  0  0  0
 17 18  2  0  0  0
 18 19  1  0  0  0
 19 20  2  0  0  0
 12  8  1  0  0  0
  6  1  1  0  0  0
 20 15  1  0  0  0
 14 10  1  0  0  0
M  END
> <minimizedAffinity>
-6.61413

> <CNNscore>
0.3450825214

> <CNNaffinity>
5.5637917519

> <CNN_VS>
1.9199672937

> <CNNaffinity_variance>
0.1864606738

$$$$
[H]c1nc(N2C([H])([H])[C@@]3([H])N(C([H])([H])[H])C([H])([H])[C@]2([H])C3([H])[H])c([H])nc1-c1c([H])nc([H])c([H])c1[H]


 20 23  0  0  0  0  0  0  0  0999 V2000
    6.4825    5.7244   21.5161 C   0  0  0  0  0  0  0  0  0  0  0  0
    6.7333    4.5240   22.1661 C   0  0  0  0  0  0  0  0  0  0  0  0
    6.0357    3.4145   21.8733 N   0  0  0  0  0  0  0  0  0  0  0  0
    5.0541    3.4116   20.9305 C   0  0  0  0  0  0  0  0  0  0  0  0
    4.8132    4.5996   20.2940 C   0  0  0  0  0  0  0  0  0  0  0  0
    5.5181    5.7323   20.5860 N   0  0  0  0  0  0  0  0  0  0  0  0
    9.5502    9.7168   23.6758 C   0  0  0  0  0  0  0  0  0  0  0  0
    8.3332    8.9667   23.4308 N   0  0  0  0  0  0  0  0  0  0  0  0
    8.6552    7.5441   23.5750 C   0  0  0  0  0  0  0  0  0  0  0  0
    8.5878    6.9633   22.1770 C   0  0  0  0  0  0  0  0  0  0  0  0
    9.0183    8.2112   21.3803 C   0  0  0  0  0  0  0  0  0  0  0  0
    7.9643    9.1161   22.0467 C   0  0  0  0  0  0  0  0  0  0  0  0
    6.7295    8.2812   21.8123 C   0  0  0  0  0  0  0  0  0  0  0  0
    7.2088    6.9046   21.8125 N   0  0  0  0  0  0  0  0  0  0  0  0
    4.3096    2.1980   20.6280 C   0  0  0  0  0  0  0  0  0  0  0  0
    3.7200    1.4784   21.6754 C   0  0  0  0  0  0  0  0  0  0  0  0
    3.0064    0.3249   21.4372 C   0  0  0  0  0  0  0  0  0  0  0  0
    2.8475   -0.1620   20.1577 C   0  0  0  0  0  0  0  0  0  0  0  0
    3.4144    0.5311   19.1569 N   0  0  0  0  0  0  0  0  0  0  0  0
    4.1265    1.6778   19.3723 C   0  0  0  0  0  0  0  0  0  0  0  0
  7  8  1  0  0  0
  8  9  1  0  0  0
  9 10  1  0  0  0
 10 11  1  0  0  0
 11 12  1  0  0  0
 12 13  1  0  0  0
 13 14  1  0  0  0
 14  1  1  0  0  0
  1  2  2  0  0  0
  2  3  1  0  0  0
  3  4  2  0  0  0
  4  5  1  0  0  0
  5  6  2  0  0  0
  4 15  1  0  0  0
 15 16  2  0  0  0
 16 17  1  0  0  0
 17 18  2  0  0  0
 18 19  1  0  0  0
 19 20  2  0  0  0
 12  8  1  0  0  0
  6  1  1  0  0  0
 20 15  1  0  0  0
 14 10  1  0  0  0
M  END
> <minimizedAffinity>
-6.53720

> <CNNscore>
0.3217951953

> <CNNaffinity>
5.2649598122

> <CNN_VS>
1.6942387819

> <CNNaffinity_variance>
0.1977179050

$$$$
[H]N=C(N([H])[H])N([H])C([H])([H])C([H])([H])C([H])([H])[C@@]([H])(C([H])=O)N([H])C(=O)[C@@]([H])(N([H])C(=O)[C@@]([H])(N([H])C(=O)OC([H])([H])c1c([H])c([H])c([H])c([H])c1[H])C([H])([H])c1c([H])c([H])c([H])c([H])c1[H])C([H])([H])C([H])([H])C([H])([H])N=C(N([H])[H])N([H])[H]


 54 55  0  0  0  0  0  0  0  0999 V2000
    3.8190    9.6594   19.1601 C   0  0  0  0  0  0  0  0  0  0  0  0
    3.3659    8.2853   19.2714 N   0  0  0  0  0  0  0  0  0  0  0  0
    4.2434    7.2457   18.8662 C   0  0  0  0  0  0  0  0  0  0  0  0
    5.3958    7.5742   18.4254 O   0  0  0  0  0  0  0  0  0  0  0  0
    2.4206    8.0381   19.6355 H   0  0  0  0  0  0  0  0  0  0  0  0
    3.8880    5.7932   18.9349 C   0  0  0  0  0  0  0  0  0  0  0  0
    3.4242    5.4298   20.2297 N   0  0  0  0  0  0  0  0  0  0  0  0
    4.2164    5.4744   21.4074 C   0  0  0  0  0  0  0  0  0  0  0  0
    5.4225    5.8434   21.3972 O   0  0  0  0  0  0  0  0  0  0  0  0
    2.4368    5.1075   20.3267 H   0  0  0  0  0  0  0  0  0  0  0  0
    3.6849    5.1079   22.6461 O   0  0  0  0  0  0  0  0  0  0  0  0
    4.2611    4.1612   23.4863 C   0  0  0  0  0  0  0  0  0  0  0  0
    4.5702    2.9363   22.6587 C   0  0  0  0  0  0  0  0  0  0  0  0
    3.5713    2.1017   22.2087 C   0  0  0  0  0  0  0  0  0  0  0  0
    3.9020    0.9829   21.4350 C   0  0  0  0  0  0  0  0  0  0  0  0
    5.2136    0.7177   21.1259 C   0  0  0  0  0  0  0  0  0  0  0  0
    6.2172    1.5293   21.5607 C   0  0  0  0  0  0  0  0  0  0  0  0
    5.8719    2.6269   22.3216 C   0  0  0  0  0  0  0  0  0  0  0  0
    3.0480    5.3698   17.7832 C   0  0  0  0  0  0  0  0  0  0  0  0
    3.2421    3.9568   17.4086 C   0  0  0  0  0  0  0  0  0  0  0  0
    2.4518    3.4164   16.4279 C   0  0  0  0  0  0  0  0  0  0  0  0
    2.6205    2.0971   16.0713 C   0  0  0  0  0  0  0  0  0  0  0  0
    3.5643    1.2927   16.6705 C   0  0  0  0  0  0  0  0  0  0  0  0
    4.3619    1.8280   17.6560 C   0  0  0  0  0  0  0  0  0  0  0  0
    4.1832    3.1464   18.0026 C   0  0  0  0  0  0  0  0  0  0  0  0
    4.2085    9.9512   17.7395 C   0  0  0  0  0  0  0  0  0  0  0  0
    5.1874   10.7128   17.5418 O   0  0  0  0  0  0  0  0  0  0  0  0
    3.5365    9.4137   16.6493 N   0  0  0  0  0  0  0  0  0  0  0  0
    2.7250    8.7949   16.7512 H   0  0  0  0  0  0  0  0  0  0  0  0
    3.9723    9.7125   15.2419 C   0  0  0  0  0  0  0  0  0  0  0  0
    2.7277    9.9777   14.4980 C   0  0  0  0  0  0  0  0  0  0  0  0
    2.0203    9.0247   14.0950 O   0  0  0  0  0  0  0  0  0  0  0  0
    4.7871    8.5510   14.8325 C   0  0  0  0  0  0  0  0  0  0  0  0
    5.3275    8.3912   13.4873 C   0  0  0  0  0  0  0  0  0  0  0  0
    4.6898    7.4201   12.5473 C   0  0  0  0  0  0  0  0  0  0  0  0
    5.7759    6.9033   11.6742 N   0  0  0  0  0  0  0  0  0  0  0  0
    5.9306    5.8822   11.6714 H   0  0  0  0  0  0  0  0  0  0  0  0
    6.5360    7.8093   10.8970 C   0  0  0  0  0  0  0  0  0  0  0  0
    7.9194    8.0043   11.1544 N   0  0  0  0  0  0  0  0  0  0  0  0
    6.0371    8.5048    9.9244 N   0  0  0  0  0  0  0  0  0  0  0  0
    8.6313    7.9957   10.3827 H   0  0  0  0  0  0  0  0  0  0  0  0
    8.2477    8.1582   12.1155 H   0  0  0  0  0  0  0  0  0  0  0  0
    5.0191    8.3623    9.7351 H   0  0  0  0  0  0  0  0  0  0  0  0
    4.8439   10.0963   20.1200 C   0  0  0  0  0  0  0  0  0  0  0  0
    4.9297    9.3089   21.3990 C   0  0  0  0  0  0  0  0  0  0  0  0
    6.3821    9.4670   21.8819 C   0  0  0  0  0  0  0  0  0  0  0  0
    6.7326    8.9207   25.4957 N   0  0  0  0  0  0  0  0  0  0  0  0
    6.7112    8.6389   24.1063 C   0  0  0  0  0  0  0  0  0  0  0  0
    6.9794    7.3352   23.6527 N   0  0  0  0  0  0  0  0  0  0  0  0
    6.4420    9.5920   23.3041 N   0  0  0  0  0  0  0  0  0  0  0  0
    7.6388    8.9120   26.0085 H   0  0  0  0  0  0  0  0  0  0  0  0
    5.8862    9.1371   26.0423 H   0  0  0  0  0  0  0  0  0  0  0  0
    6.2006    6.6826   23.3498 H   0  0  0  0  0  0  0  0  0  0  0  0
    7.9346    6.9435   23.5902 H   0  0  0  0  0  0  0  0  0  0  0  0
 47 48  1  0  0  0
 48 49  1  0  0  0
 48 50  2  0  0  0
 50 46  1  0  0  0
 46 45  1  0  0  0
 45 44  1  0  0  0
 44  1  1  0  0  0
  1  2  1  0  0  0
  2  3  1  0  0  0
  3  4  2  0  0  0
  3  6  1  0  0  0
  6 19  1  0  0  0
 19 20  1  0  0  0
 20 21  2  0  0  0
 21 22  1  0  0  0
 22 23  2  0  0  0
 23 24  1  0  0  0
 24 25  2  0  0  0
  6  7  1  0  0  0
  7  8  1  0  0  0
  8  9  2  0  0  0
  8 11  1  0  0  0
 11 12  1  0  0  0
 12 13  1  0  0  0
 13 14  2  0  0  0
 14 15  1  0  0  0
 15 16  2  0  0  0
 16 17  1  0  0  0
 17 18  2  0  0  0
  1 26  1  0  0  0
 26 27  2  0  0  0
 26 28  1  0  0  0
 28 30  1  0  0  0
 30 33  1  0  0  0
 33 34  1  0  0  0
 34 35  1  0  0  0
 35 36  1  0  0  0
 36 38  1  0  0  0
 38 39  1  0  0  0
 38 40  2  0  0  0
 30 31  1  0  0  0
 31 32  2  0  0  0
 25 20  1  0  0  0
 18 13  1  0  0  0
 47 51  1  0  0  0
 47 52  1  0  0  0
 49 53  1  0  0  0
 49 54  1  0  0  0
  2  5  1  0  0  0
  7 10  1  0  0  0
 28 29  1  0  0  0
 36 37  1  0  0  0
 39 41  1  0  0  0
 39 42  1  0  0  0
 40 43  1  0  0  0
M  END
> <minimizedAffinity>
-9.05519

> <CNNscore>
0.6057861447

> <CNNaffinity>
6.9723329544

> <CNN_VS>
4.2237424850

> <CNNaffinity_variance>
0.1336059421

$$$$
[H]N=C(N([H])[H])N([H])C([H])([H])C([H])([H])C([H])([H])[C@@]([H])(C([H])=O)N([H])C(=O)[C@@]([H])(N([H])C(=O)[C@@]([H])(N([H])C(=O)OC([H])([H])c1c([H])c([H])c([H])c([H])c1[H])C([H])([H])c1c([H])c([H])c([H])c([H])c1[H])C([H])([H])C([H])([H])C([H])([H])N=C(N([H])[H])N([H])[H]


 54 55  0  0  0  0  0  0  0  0999 V2000
    4.2212    8.3869   19.1338 C   0  0  0  0  0  0  0  0  0  0  0  0
    3.7419    7.0352   19.3552 N   0  0  0  0  0  0  0  0  0  0  0  0
    4.6599    5.9598   19.2293 C   0  0  0  0  0  0  0  0  0  0  0  0
    5.8694    6.2383   18.9298 O   0  0  0  0  0  0  0  0  0  0  0  0
    2.7496    6.8290   19.6004 H   0  0  0  0  0  0  0  0  0  0  0  0
    4.2829    4.5257   19.4343 C   0  0  0  0  0  0  0  0  0  0  0  0
    4.0181    3.8735   18.1981 N   0  0  0  0  0  0  0  0  0  0  0  0
    2.9394    4.1996   17.3339 C   0  0  0  0  0  0  0  0  0  0  0  0
    2.1095    5.1106   17.6029 O   0  0  0  0  0  0  0  0  0  0  0  0
    4.6553    3.1026   17.9014 H   0  0  0  0  0  0  0  0  0  0  0  0
    2.7501    3.5164   16.1304 O   0  0  0  0  0  0  0  0  0  0  0  0
    3.6968    3.4633   15.1131 C   0  0  0  0  0  0  0  0  0  0  0  0
    2.9901    3.0444   13.8458 C   0  0  0  0  0  0  0  0  0  0  0  0
    1.8546    2.2659   13.8795 C   0  0  0  0  0  0  0  0  0  0  0  0
    1.2251    1.9097   12.6809 C   0  0  0  0  0  0  0  0  0  0  0  0
    1.7355    2.3331   11.4782 C   0  0  0  0  0  0  0  0  0  0  0  0
    2.8573    3.1033   11.4216 C   0  0  0  0  0  0  0  0  0  0  0  0
    3.4635    3.4441   12.6130 C   0  0  0  0  0  0  0  0  0  0  0  0
    5.2110    3.8333   20.3674 C   0  0  0  0  0  0  0  0  0  0  0  0
    4.6542    2.5867   20.9250 C   0  0  0  0  0  0  0  0  0  0  0  0
    3.8960    2.6511   22.0649 C   0  0  0  0  0  0  0  0  0  0  0  0
    3.3733    1.4939   22.5978 C   0  0  0  0  0  0  0  0  0  0  0  0
    3.5868    0.2617   22.0208 C   0  0  0  0  0  0  0  0  0  0  0  0
    4.3469    0.1889   20.8759 C   0  0  0  0  0  0  0  0  0  0  0  0
    4.8630    1.3515   20.3543 C   0  0  0  0  0  0  0  0  0  0  0  0
    4.5243    8.5849   17.6764 C   0  0  0  0  0  0  0  0  0  0  0  0
    5.5991    9.1583   17.3710 O   0  0  0  0  0  0  0  0  0  0  0  0
    3.6718    8.1593   16.6658 N   0  0  0  0  0  0  0  0  0  0  0  0
    2.7773    7.6953   16.8569 H   0  0  0  0  0  0  0  0  0  0  0  0
    4.0227    8.3561   15.2173 C   0  0  0  0  0  0  0  0  0  0  0  0
    3.3181    9.5853   14.8107 C   0  0  0  0  0  0  0  0  0  0  0  0
    2.7514   10.2996   15.6708 O   0  0  0  0  0  0  0  0  0  0  0  0
    3.6472    7.0928   14.5514 C   0  0  0  0  0  0  0  0  0  0  0  0
    2.3956    6.9170   13.8236 C   0  0  0  0  0  0  0  0  0  0  0  0
    1.2291    6.2796   14.5065 C   0  0  0  0  0  0  0  0  0  0  0  0
    0.0586    7.1590   14.2504 N   0  0  0  0  0  0  0  0  0  0  0  0
    0.2318    8.1769   14.2279 H   0  0  0  0  0  0  0  0  0  0  0  0
   -1.2171    6.5805   14.0494 C   0  0  0  0  0  0  0  0  0  0  0  0
   -1.4323    5.6401   13.0066 N   0  0  0  0  0  0  0  0  0  0  0  0
   -2.2487    6.8607   14.7814 N   0  0  0  0  0  0  0  0  0  0  0  0
   -1.9363    4.7346   13.1748 H   0  0  0  0  0  0  0  0  0  0  0  0
   -1.0912    5.8363   12.0578 H   0  0  0  0  0  0  0  0  0  0  0  0
   -2.0911    7.5532   15.5484 H   0  0  0  0  0  0  0  0  0  0  0  0
    5.3173    8.8486   19.9988 C   0  0  0  0  0  0  0  0  0  0  0  0
    4.9568    9.1204   21.4338 C   0  0  0  0  0  0  0  0  0  0  0  0
    6.1640    9.8685   22.0258 C   0  0  0  0  0  0  0  0  0  0  0  0
    6.8319    8.9401   25.5148 N   0  0  0  0  0  0  0  0  0  0  0  0
    6.9147    8.9310   24.0994 C   0  0  0  0  0  0  0  0  0  0  0  0
    7.7746    8.0243   23.4547 N   0  0  0  0  0  0  0  0  0  0  0  0
    6.1924    9.7564   23.4501 N   0  0  0  0  0  0  0  0  0  0  0  0
    7.6395    9.2837   26.0751 H   0  0  0  0  0  0  0  0  0  0  0  0
    6.0026    8.6185   26.0352 H   0  0  0  0  0  0  0  0  0  0  0  0
    7.4073    7.1398   22.9998 H   0  0  0  0  0  0  0  0  0  0  0  0
    8.7973    8.1642   23.3887 H   0  0  0  0  0  0  0  0  0  0  0  0
 47 48  1  0  0  0
 48 49  1  0  0  0
 48 50  2  0  0  0
 50 46  1  0  0  0
 46 45  1  0  0  0
 45 44  1  0  0  0
 44  1  1  0  0  0
  1  2  1  0  0  0
  2  3  1  0  0  0
  3  4  2  0  0  0
  3  6  1  0  0  0
  6 19  1  0  0  0
 19 20  1  0  0  0
 20 21  2  0  0  0
 21 22  1  0  0  0
 22 23  2  0  0  0
 23 24  1  0  0  0
 24 25  2  0  0  0
  6  7  1  0  0  0
  7  8  1  0  0  0
  8  9  2  0  0  0
  8 11  1  0  0  0
 11 12  1  0  0  0
 12 13  1  0  0  0
 13 14  2  0  0  0
 14 15  1  0  0  0
 15 16  2  0  0  0
 16 17  1  0  0  0
 17 18  2  0  0  0
  1 26  1  0  0  0
 26 27  2  0  0  0
 26 28  1  0  0  0
 28 30  1  0  0  0
 30 33  1  0  0  0
 33 34  1  0  0  0
 34 35  1  0  0  0
 35 36  1  0  0  0
 36 38  1  0  0  0
 38 39  1  0  0  0
 38 40  2  0  0  0
 30 31  1  0  0  0
 31 32  2  0  0  0
 25 20  1  0  0  0
 18 13  1  0  0  0
 47 51  1  0  0  0
 47 52  1  0  0  0
 49 53  1  0  0  0
 49 54  1  0  0  0
  2  5  1  0  0  0
  7 10  1  0  0  0
 28 29  1  0  0  0
 36 37  1  0  0  0
 39 41  1  0  0  0
 39 42  1  0  0  0
 40 43  1  0  0  0
M  END
> <minimizedAffinity>
-8.52496

> <CNNscore>
0.5616803169

> <CNNaffinity>
7.1035842896

> <CNN_VS>
3.9899435043

> <CNNaffinity_variance>
0.0505746603

$$$$
[H]N=C(N([H])[H])N([H])C([H])([H])C([H])([H])C([H])([H])[C@@]([H])(C([H])=O)N([H])C(=O)[C@@]([H])(N([H])C(=O)[C@@]([H])(N([H])C(=O)OC([H])([H])c1c([H])c([H])c([H])c([H])c1[H])C([H])([H])c1c([H])c([H])c([H])c([H])c1[H])C([H])([H])C([H])([H])C([H])([H])N=C(N([H])[H])N([H])[H]


 54 55  0  0  0  0  0  0  0  0999 V2000
    4.2543    8.7021   19.0606 C   0  0  0  0  0  0  0  0  0  0  0  0
    3.7847    7.3574   19.3386 N   0  0  0  0  0  0  0  0  0  0  0  0
    4.7235    6.2928   19.3207 C   0  0  0  0  0  0  0  0  0  0  0  0
    5.9419    6.5746   19.0632 O   0  0  0  0  0  0  0  0  0  0  0  0
    2.7848    7.1486   19.5480 H   0  0  0  0  0  0  0  0  0  0  0  0
    4.3581    4.8668   19.5920 C   0  0  0  0  0  0  0  0  0  0  0  0
    4.1451    4.1436   18.3857 N   0  0  0  0  0  0  0  0  0  0  0  0
    3.0278    4.3249   17.5282 C   0  0  0  0  0  0  0  0  0  0  0  0
    2.1129    5.1569   17.7769 O   0  0  0  0  0  0  0  0  0  0  0  0
    4.8537    3.4303   18.1073 H   0  0  0  0  0  0  0  0  0  0  0  0
    2.8935    3.5799   16.3543 O   0  0  0  0  0  0  0  0  0  0  0  0
    3.7815    3.6508   15.2864 C   0  0  0  0  0  0  0  0  0  0  0  0
    3.0791    3.1078   14.0647 C   0  0  0  0  0  0  0  0  0  0  0  0
    1.9975    2.2622   14.1735 C   0  0  0  0  0  0  0  0  0  0  0  0
    1.3695    1.7910   13.0146 C   0  0  0  0  0  0  0  0  0  0  0  0
    1.8278    2.1684   11.7761 C   0  0  0  0  0  0  0  0  0  0  0  0
    2.8959    3.0034   11.6453 C   0  0  0  0  0  0  0  0  0  0  0  0
    3.5015    3.4574   12.7986 C   0  0  0  0  0  0  0  0  0  0  0  0
    5.2618    4.2407   20.5934 C   0  0  0  0  0  0  0  0  0  0  0  0
    4.7711    2.9415   21.0894 C   0  0  0  0  0  0  0  0  0  0  0  0
    5.1302    1.7990   20.4230 C   0  0  0  0  0  0  0  0  0  0  0  0
    4.6757    0.5798   20.8738 C   0  0  0  0  0  0  0  0  0  0  0  0
    3.8652    0.4657   21.9814 C   0  0  0  0  0  0  0  0  0  0  0  0
    3.5004    1.6083   22.6561 C   0  0  0  0  0  0  0  0  0  0  0  0
    3.9608    2.8191   22.1956 C   0  0  0  0  0  0  0  0  0  0  0  0
    4.6150    8.8228   17.6080 C   0  0  0  0  0  0  0  0  0  0  0  0
    5.7409    9.2979   17.3182 O   0  0  0  0  0  0  0  0  0  0  0  0
    3.7611    8.4300   16.5853 N   0  0  0  0  0  0  0  0  0  0  0  0
    2.8271    8.0456   16.7630 H   0  0  0  0  0  0  0  0  0  0  0  0
    4.1692    8.5462   15.1431 C   0  0  0  0  0  0  0  0  0  0  0  0
    3.5484    9.7940   14.6632 C   0  0  0  0  0  0  0  0  0  0  0  0
    2.6992   10.3865   15.3696 O   0  0  0  0  0  0  0  0  0  0  0  0
    3.7449    7.2784   14.5159 C   0  0  0  0  0  0  0  0  0  0  0  0
    3.1330    7.2091   13.1938 C   0  0  0  0  0  0  0  0  0  0  0  0
    3.9911    6.9562   11.9967 C   0  0  0  0  0  0  0  0  0  0  0  0
    5.3472    7.4611   12.3360 N   0  0  0  0  0  0  0  0  0  0  0  0
    5.5260    7.6991   13.3249 H   0  0  0  0  0  0  0  0  0  0  0  0
    6.3184    7.5904   11.3149 C   0  0  0  0  0  0  0  0  0  0  0  0
    6.1619    8.5518   10.2809 N   0  0  0  0  0  0  0  0  0  0  0  0
    7.3874    6.8610   11.2534 N   0  0  0  0  0  0  0  0  0  0  0  0
    6.9456    9.1905    9.9974 H   0  0  0  0  0  0  0  0  0  0  0  0
    5.2644    8.6372    9.7886 H   0  0  0  0  0  0  0  0  0  0  0  0
    7.5027    6.1529   12.0136 H   0  0  0  0  0  0  0  0  0  0  0  0
    5.3069    9.2291   19.9420 C   0  0  0  0  0  0  0  0  0  0  0  0
    4.9877    9.2522   21.4120 C   0  0  0  0  0  0  0  0  0  0  0  0
    6.2197    9.8766   22.0900 C   0  0  0  0  0  0  0  0  0  0  0  0
    6.8594    8.9554   25.5861 N   0  0  0  0  0  0  0  0  0  0  0  0
    7.0411    9.0480   24.1830 C   0  0  0  0  0  0  0  0  0  0  0  0
    8.1508    8.4307   23.5791 N   0  0  0  0  0  0  0  0  0  0  0  0
    6.1761    9.6952   23.5067 N   0  0  0  0  0  0  0  0  0  0  0  0
    7.5081    9.4629   26.2234 H   0  0  0  0  0  0  0  0  0  0  0  0
    6.1082    8.4026   26.0243 H   0  0  0  0  0  0  0  0  0  0  0  0
    8.0597    7.5087   23.0636 H   0  0  0  0  0  0  0  0  0  0  0  0
    9.1036    8.8323   23.6029 H   0  0  0  0  0  0  0  0  0  0  0  0
 47 48  1  0  0  0
 48 49  1  0  0  0
 48 50  2  0  0  0
 50 46  1  0  0  0
 46 45  1  0  0  0
 45 44  1  0  0  0
 44  1  1  0  0  0
  1  2  1  0  0  0
  2  3  1  0  0  0
  3  4  2  0  0  0
  3  6  1  0  0  0
  6 19  1  0  0  0
 19 20  1  0  0  0
 20 21  2  0  0  0
 21 22  1  0  0  0
 22 23  2  0  0  0
 23 24  1  0  0  0
 24 25  2  0  0  0
  6  7  1  0  0  0
  7  8  1  0  0  0
  8  9  2  0  0  0
  8 11  1  0  0  0
 11 12  1  0  0  0
 12 13  1  0  0  0
 13 14  2  0  0  0
 14 15  1  0  0  0
 15 16  2  0  0  0
 16 17  1  0  0  0
 17 18  2  0  0  0
  1 26  1  0  0  0
 26 27  2  0  0  0
 26 28  1  0  0  0
 28 30  1  0  0  0
 30 33  1  0  0  0
 33 34  1  0  0  0
 34 35  1  0  0  0
 35 36  1  0  0  0
 36 38  1  0  0  0
 38 39  1  0  0  0
 38 40  2  0  0  0
 30 31  1  0  0  0
 31 32  2  0  0  0
 25 20  1  0  0  0
 18 13  1  0  0  0
 47 51  1  0  0  0
 47 52  1  0  0  0
 49 53  1  0  0  0
 49 54  1  0  0  0
  2  5  1  0  0  0
  7 10  1  0  0  0
 28 29  1  0  0  0
 36 37  1  0  0  0
 39 41  1  0  0  0
 39 42  1  0  0  0
 40 43  1  0  0  0
M  END
> <minimizedAffinity>
-8.21579

> <CNNscore>
0.4786294401

> <CNNaffinity>
6.8873224258

> <CNN_VS>
3.2964751720

> <CNNaffinity_variance>
0.0840811580

$$$$
[H]N=C(N([H])[H])N([H])C([H])([H])C([H])([H])C([H])([H])[C@@]([H])(C([H])=O)N([H])C(=O)[C@@]([H])(N([H])C(=O)[C@@]([H])(N([H])C(=O)OC([H])([H])c1c([H])c([H])c([H])c([H])c1[H])C([H])([H])c1c([H])c([H])c([H])c([H])c1[H])C([H])([H])C([H])([H])C([H])([H])N=C(N([H])[H])N([H])[H]


 54 55  0  0  0  0  0  0  0  0999 V2000
    3.8708    9.5263   19.1024 C   0  0  0  0  0  0  0  0  0  0  0  0
    3.4424    8.1559   19.3124 N   0  0  0  0  0  0  0  0  0  0  0  0
    4.3477    7.1065   19.0055 C   0  0  0  0  0  0  0  0  0  0  0  0
    5.5019    7.4237   18.5613 O   0  0  0  0  0  0  0  0  0  0  0  0
    2.4951    7.9180   19.6776 H   0  0  0  0  0  0  0  0  0  0  0  0
    4.0193    5.6566   19.1810 C   0  0  0  0  0  0  0  0  0  0  0  0
    3.8474    5.3224   20.5531 N   0  0  0  0  0  0  0  0  0  0  0  0
    4.8818    5.3661   21.5251 C   0  0  0  0  0  0  0  0  0  0  0  0
    6.0623    5.7076   21.2410 O   0  0  0  0  0  0  0  0  0  0  0  0
    2.9003    5.0239   20.8724 H   0  0  0  0  0  0  0  0  0  0  0  0
    4.6315    5.0296   22.8574 O   0  0  0  0  0  0  0  0  0  0  0  0
    4.0064    3.8524   23.2544 C   0  0  0  0  0  0  0  0  0  0  0  0
    4.6382    2.7134   22.4898 C   0  0  0  0  0  0  0  0  0  0  0  0
    3.8842    1.8665   21.7082 C   0  0  0  0  0  0  0  0  0  0  0  0
    4.5125    0.8301   21.0077 C   0  0  0  0  0  0  0  0  0  0  0  0
    5.8720    0.6575   21.0983 C   0  0  0  0  0  0  0  0  0  0  0  0
    6.6368    1.4830   21.8656 C   0  0  0  0  0  0  0  0  0  0  0  0
    5.9998    2.4985   22.5483 C   0  0  0  0  0  0  0  0  0  0  0  0
    2.9512    5.2101   18.2477 C   0  0  0  0  0  0  0  0  0  0  0  0
    3.2125    3.8859   17.6537 C   0  0  0  0  0  0  0  0  0  0  0  0
    4.3013    3.1711   18.0803 C   0  0  0  0  0  0  0  0  0  0  0  0
    4.5585    1.9349   17.5310 C   0  0  0  0  0  0  0  0  0  0  0  0
    3.7530    1.3850   16.5586 C   0  0  0  0  0  0  0  0  0  0  0  0
    2.6576    2.0964   16.1251 C   0  0  0  0  0  0  0  0  0  0  0  0
    2.4122    3.3294   16.6815 C   0  0  0  0  0  0  0  0  0  0  0  0
    4.3775    9.6895   17.6983 C   0  0  0  0  0  0  0  0  0  0  0  0
    5.4103   10.3819   17.5215 O   0  0  0  0  0  0  0  0  0  0  0  0
    3.7557    9.1070   16.6013 N   0  0  0  0  0  0  0  0  0  0  0  0
    2.9047    8.5408   16.6853 H   0  0  0  0  0  0  0  0  0  0  0  0
    4.3080    9.2757   15.2133 C   0  0  0  0  0  0  0  0  0  0  0  0
    3.5545   10.4002   14.6296 C   0  0  0  0  0  0  0  0  0  0  0  0
    2.3522   10.2523   14.3076 O   0  0  0  0  0  0  0  0  0  0  0  0
    4.1725    7.9499   14.5775 C   0  0  0  0  0  0  0  0  0  0  0  0
    3.3525    6.8795   15.1335 C   0  0  0  0  0  0  0  0  0  0  0  0
    2.4942    6.0605   14.2247 C   0  0  0  0  0  0  0  0  0  0  0  0
    1.1417    6.0263   14.8399 N   0  0  0  0  0  0  0  0  0  0  0  0
    1.0352    5.4808   15.7103 H   0  0  0  0  0  0  0  0  0  0  0  0
    0.0781    6.7283   14.2245 C   0  0  0  0  0  0  0  0  0  0  0  0
    0.2275    7.2786   12.9234 N   0  0  0  0  0  0  0  0  0  0  0  0
   -1.0731    6.9134   14.7893 N   0  0  0  0  0  0  0  0  0  0  0  0
   -0.4987    7.1392   12.1781 H   0  0  0  0  0  0  0  0  0  0  0  0
    1.0627    7.8292   12.6900 H   0  0  0  0  0  0  0  0  0  0  0  0
   -1.1833    6.5093   15.7470 H   0  0  0  0  0  0  0  0  0  0  0  0
    4.7961   10.0886   20.0977 C   0  0  0  0  0  0  0  0  0  0  0  0
    4.9313    9.3188   21.3831 C   0  0  0  0  0  0  0  0  0  0  0  0
    6.3855    9.5320   21.8385 C   0  0  0  0  0  0  0  0  0  0  0  0
    6.7496    8.9806   25.4501 N   0  0  0  0  0  0  0  0  0  0  0  0
    6.6984    8.6957   24.0621 C   0  0  0  0  0  0  0  0  0  0  0  0
    6.8963    7.3789   23.6105 N   0  0  0  0  0  0  0  0  0  0  0  0
    6.4678    9.6585   23.2594 N   0  0  0  0  0  0  0  0  0  0  0  0
    7.6601    8.9285   25.9527 H   0  0  0  0  0  0  0  0  0  0  0  0
    5.9213    9.2406   26.0054 H   0  0  0  0  0  0  0  0  0  0  0  0
    6.0826    6.7648   23.3188 H   0  0  0  0  0  0  0  0  0  0  0  0
    7.8301    6.9400   23.5387 H   0  0  0  0  0  0  0  0  0  0  0  0
 47 48  1  0  0  0
 48 49  1  0  0  0
 48 50  2  0  0  0
 50 46  1  0  0  0
 46 45  1  0  0  0
 45 44  1  0  0  0
 44  1  1  0  0  0
  1  2  1  0  0  0
  2  3  1  0  0  0
  3  4  2  0  0  0
  3  6  1  0  0  0
  6 19  1  0  0  0
 19 20  1  0  0  0
 20 21  2  0  0  0
 21 22  1  0  0  0
 22 23  2  0  0  0
 23 24  1  0  0  0
 24 25  2  0  0  0
  6  7  1  0  0  0
  7  8  1  0  0  0
  8  9  2  0  0  0
  8 11  1  0  0  0
 11 12  1  0  0  0
 12 13  1  0  0  0
 13 14  2  0  0  0
 14 15  1  0  0  0
 15 16  2  0  0  0
 16 17  1  0  0  0
 17 18  2  0  0  0
  1 26  1  0  0  0
 26 27  2  0  0  0
 26 28  1  0  0  0
 28 30  1  0  0  0
 30 33  1  0  0  0
 33 34  1  0  0  0
 34 35  1  0  0  0
 35 36  1  0  0  0
 36 38  1  0  0  0
 38 39  1  0  0  0
 38 40  2  0  0  0
 30 31  1  0  0  0
 31 32  2  0  0  0
 25 20  1  0  0  0
 18 13  1  0  0  0
 47 51  1  0  0  0
 47 52  1  0  0  0
 49 53  1  0  0  0
 49 54  1  0  0  0
  2  5  1  0  0  0
  7 10  1  0  0  0
 28 29  1  0  0  0
 36 37  1  0  0  0
 39 41  1  0  0  0
 39 42  1  0  0  0
 40 43  1  0  0  0
M  END
> <minimizedAffinity>
-9.00192

> <CNNscore>
0.4450576901

> <CNNaffinity>
7.0005846024

> <CNN_VS>
3.1156640053

> <CNNaffinity_variance>
0.1660472155

$$$$
[H]N=C(N([H])[H])N([H])C([H])([H])C([H])([H])C([H])([H])[C@@]([H])(C([H])=O)N([H])C(=O)[C@@]([H])(N([H])C(=O)[C@@]([H])(N([H])C(=O)OC([H])([H])c1c([H])c([H])c([H])c([H])c1[H])C([H])([H])c1c([H])c([H])c([H])c([H])c1[H])C([H])([H])C([H])([H])C([H])([H])N=C(N([H])[H])N([H])[H]


 54 55  0  0  0  0  0  0  0  0999 V2000
    4.4579    7.0603   19.7768 C   0  0  0  0  0  0  0  0  0  0  0  0
    4.7276    5.6491   19.5725 N   0  0  0  0  0  0  0  0  0  0  0  0
    3.7200    4.8439   18.9798 C   0  0  0  0  0  0  0  0  0  0  0  0
    2.6221    5.4063   18.6507 O   0  0  0  0  0  0  0  0  0  0  0  0
    5.6321    5.2092   19.8475 H   0  0  0  0  0  0  0  0  0  0  0  0
    3.8827    3.3788   18.7190 C   0  0  0  0  0  0  0  0  0  0  0  0
    3.6824    3.0675   17.3454 N   0  0  0  0  0  0  0  0  0  0  0  0
    3.1130    1.8557   16.8723 C   0  0  0  0  0  0  0  0  0  0  0  0
    2.7361    0.9370   17.6501 O   0  0  0  0  0  0  0  0  0  0  0  0
    3.9717    3.7727   16.6332 H   0  0  0  0  0  0  0  0  0  0  0  0
    2.9417    1.6271   15.5050 O   0  0  0  0  0  0  0  0  0  0  0  0
    3.5067    2.4187   14.5109 C   0  0  0  0  0  0  0  0  0  0  0  0
    2.4241    3.3209   13.9679 C   0  0  0  0  0  0  0  0  0  0  0  0
    1.4593    2.8483   13.1062 C   0  0  0  0  0  0  0  0  0  0  0  0
    0.4677    3.7171   12.6355 C   0  0  0  0  0  0  0  0  0  0  0  0
    0.4556    5.0327   13.0296 C   0  0  0  0  0  0  0  0  0  0  0  0
    1.4000    5.5213   13.8806 C   0  0  0  0  0  0  0  0  0  0  0  0
    2.3689    4.6501   14.3338 C   0  0  0  0  0  0  0  0  0  0  0  0
    5.1120    2.8330   19.3533 C   0  0  0  0  0  0  0  0  0  0  0  0
    4.9297    2.4874   20.7753 C   0  0  0  0  0  0  0  0  0  0  0  0
    5.8553    2.9233   21.6874 C   0  0  0  0  0  0  0  0  0  0  0  0
    5.6986    2.6044   23.0177 C   0  0  0  0  0  0  0  0  0  0  0  0
    4.6346    1.8557   23.4698 C   0  0  0  0  0  0  0  0  0  0  0  0
    3.7009    1.4145   22.5602 C   0  0  0  0  0  0  0  0  0  0  0  0
    3.8691    1.7397   21.2350 C   0  0  0  0  0  0  0  0  0  0  0  0
    4.8142    7.8291   18.5371 C   0  0  0  0  0  0  0  0  0  0  0  0
    6.0252    8.0944   18.3362 O   0  0  0  0  0  0  0  0  0  0  0  0
    3.8657    8.2496   17.6137 N   0  0  0  0  0  0  0  0  0  0  0  0
    2.8628    8.0702   17.7317 H   0  0  0  0  0  0  0  0  0  0  0  0
    4.2659    8.9978   16.3727 C   0  0  0  0  0  0  0  0  0  0  0  0
    3.7081   10.3520   16.5388 C   0  0  0  0  0  0  0  0  0  0  0  0
    2.7842   10.7482   15.7901 O   0  0  0  0  0  0  0  0  0  0  0  0
    3.7689    8.1795   15.2485 C   0  0  0  0  0  0  0  0  0  0  0  0
    4.4535    8.0909   13.9636 C   0  0  0  0  0  0  0  0  0  0  0  0
    5.6405    8.9595   13.6995 C   0  0  0  0  0  0  0  0  0  0  0  0
    6.6770    8.0838   13.0930 N   0  0  0  0  0  0  0  0  0  0  0  0
    6.9847    7.2677   13.6461 H   0  0  0  0  0  0  0  0  0  0  0  0
    7.1877    8.3937   11.8102 C   0  0  0  0  0  0  0  0  0  0  0  0
    6.3117    8.6333   10.7179 N   0  0  0  0  0  0  0  0  0  0  0  0
    8.4541    8.4776   11.5498 N   0  0  0  0  0  0  0  0  0  0  0  0
    6.4338    9.4607   10.0831 H   0  0  0  0  0  0  0  0  0  0  0  0
    5.5331    7.9898   10.5315 H   0  0  0  0  0  0  0  0  0  0  0  0
    9.0992    8.3007   12.3530 H   0  0  0  0  0  0  0  0  0  0  0  0
    5.0190    7.6705   20.9916 C   0  0  0  0  0  0  0  0  0  0  0  0
    6.0663    6.8658   21.7119 C   0  0  0  0  0  0  0  0  0  0  0  0
    7.2145    7.8491   21.9987 C   0  0  0  0  0  0  0  0  0  0  0  0
    7.5086    8.5707   25.5867 N   0  0  0  0  0  0  0  0  0  0  0  0
    7.0800    8.6859   24.2401 C   0  0  0  0  0  0  0  0  0  0  0  0
    6.1666    9.6926   23.8804 N   0  0  0  0  0  0  0  0  0  0  0  0
    7.5480    7.8615   23.3881 N   0  0  0  0  0  0  0  0  0  0  0  0
    6.8385    8.2440   26.3136 H   0  0  0  0  0  0  0  0  0  0  0  0
    8.4646    8.7973   25.8977 H   0  0  0  0  0  0  0  0  0  0  0  0
    6.4830   10.5801   23.3941 H   0  0  0  0  0  0  0  0  0  0  0  0
    5.1513    9.6277   24.0666 H   0  0  0  0  0  0  0  0  0  0  0  0
 47 48  1  0  0  0
 48 49  1  0  0  0
 48 50  2  0  0  0
 50 46  1  0  0  0
 46 45  1  0  0  0
 45 44  1  0  0  0
 44  1  1  0  0  0
  1  2  1  0  0  0
  2  3  1  0  0  0
  3  4  2  0  0  0
  3  6  1  0  0  0
  6 19  1  0  0  0
 19 20  1  0  0  0
 20 21  2  0  0  0
 21 22  1  0  0  0
 22 23  2  0  0  0
 23 24  1  0  0  0
 24 25  2  0  0  0
  6  7  1  0  0  0
  7  8  1  0  0  0
  8  9  2  0  0  0
  8 11  1  0  0  0
 11 12  1  0  0  0
 12 13  1  0  0  0
 13 14  2  0  0  0
 14 15  1  0  0  0
 15 16  2  0  0  0
 16 17  1  0  0  0
 17 18  2  0  0  0
  1 26  1  0  0  0
 26 27  2  0  0  0
 26 28  1  0  0  0
 28 30  1  0  0  0
 30 33  1  0  0  0
 33 34  1  0  0  0
 34 35  1  0  0  0
 35 36  1  0  0  0
 36 38  1  0  0  0
 38 39  1  0  0  0
 38 40  2  0  0  0
 30 31  1  0  0  0
 31 32  2  0  0  0
 25 20  1  0  0  0
 18 13  1  0  0  0
 47 51  1  0  0  0
 47 52  1  0  0  0
 49 53  1  0  0  0
 49 54  1  0  0  0
  2  5  1  0  0  0
  7 10  1  0  0  0
 28 29  1  0  0  0
 36 37  1  0  0  0
 39 41  1  0  0  0
 39 42  1  0  0  0
 40 43  1  0  0  0
M  END
> <minimizedAffinity>
-8.00749

> <CNNscore>
0.4223828018

> <CNNaffinity>
6.8208742142

> <CNN_VS>
2.8810200691

> <CNNaffinity_variance>
0.2832070291

$$$$
[H]N=C(N([H])[H])N([H])C([H])([H])C([H])([H])C([H])([H])[C@@]([H])(C([H])=O)N([H])C(=O)[C@@]([H])(N([H])C(=O)[C@@]([H])(N([H])C(=O)OC([H])([H])c1c([H])c([H])c([H])c([H])c1[H])C([H])([H])c1c([H])c([H])c([H])c([H])c1[H])C([H])([H])C([H])([H])C([H])([H])N=C(N([H])[H])N([H])[H]


 54 55  0  0  0  0  0  0  0  0999 V2000
    3.1575    4.0865   15.7783 C   0  0  0  0  0  0  0  0  0  0  0  0
    3.5183    4.8784   16.9396 N   0  0  0  0  0  0  0  0  0  0  0  0
    4.7037    4.5465   17.6464 C   0  0  0  0  0  0  0  0  0  0  0  0
    5.3990    3.5645   17.2195 O   0  0  0  0  0  0  0  0  0  0  0  0
    2.9368    5.6779   17.2712 H   0  0  0  0  0  0  0  0  0  0  0  0
    5.1777    5.2899   18.8562 C   0  0  0  0  0  0  0  0  0  0  0  0
    5.8730    6.4786   18.4996 N   0  0  0  0  0  0  0  0  0  0  0  0
    5.2691    7.6077   17.8854 C   0  0  0  0  0  0  0  0  0  0  0  0
    4.0418    7.6443   17.5967 O   0  0  0  0  0  0  0  0  0  0  0  0
    6.8955    6.5300   18.6996 H   0  0  0  0  0  0  0  0  0  0  0  0
    6.0195    8.7433   17.5721 O   0  0  0  0  0  0  0  0  0  0  0  0
    5.9356    9.9435   18.2697 C   0  0  0  0  0  0  0  0  0  0  0  0
    6.0939    9.6353   19.7397 C   0  0  0  0  0  0  0  0  0  0  0  0
    7.3358    9.5743   20.3319 C   0  0  0  0  0  0  0  0  0  0  0  0
    7.4359    9.2963   21.7003 C   0  0  0  0  0  0  0  0  0  0  0  0
    6.3039    9.0854   22.4488 C   0  0  0  0  0  0  0  0  0  0  0  0
    5.0659    9.1407   21.8837 C   0  0  0  0  0  0  0  0  0  0  0  0
    4.9874    9.4160   20.5342 C   0  0  0  0  0  0  0  0  0  0  0  0
    4.1090    5.4253   19.8813 C   0  0  0  0  0  0  0  0  0  0  0  0
    4.3792    4.6560   21.1101 C   0  0  0  0  0  0  0  0  0  0  0  0
    5.3264    3.6658   21.0774 C   0  0  0  0  0  0  0  0  0  0  0  0
    5.5857    2.9377   22.2170 C   0  0  0  0  0  0  0  0  0  0  0  0
    4.9210    3.1706   23.4006 C   0  0  0  0  0  0  0  0  0  0  0  0
    3.9687    4.1633   23.4415 C   0  0  0  0  0  0  0  0  0  0  0  0
    3.7194    4.8828   22.2968 C   0  0  0  0  0  0  0  0  0  0  0  0
    2.7607    4.9938   14.6495 C   0  0  0  0  0  0  0  0  0  0  0  0
    1.5356    5.1427   14.4162 O   0  0  0  0  0  0  0  0  0  0  0  0
    3.6872    5.6691   13.8654 N   0  0  0  0  0  0  0  0  0  0  0  0
    4.6992    5.5770   14.0039 H   0  0  0  0  0  0  0  0  0  0  0  0
    3.2483    6.5868   12.7585 C   0  0  0  0  0  0  0  0  0  0  0  0
    3.9410    6.0993   11.5522 C   0  0  0  0  0  0  0  0  0  0  0  0
    5.1600    5.8111   11.5997 O   0  0  0  0  0  0  0  0  0  0  0  0
    3.5655    7.9483   13.2339 C   0  0  0  0  0  0  0  0  0  0  0  0
    4.6426    8.2329   14.1752 C   0  0  0  0  0  0  0  0  0  0  0  0
    5.8163    9.0434   13.7293 C   0  0  0  0  0  0  0  0  0  0  0  0
    6.7645    8.0948   13.0888 N   0  0  0  0  0  0  0  0  0  0  0  0
    7.0127    7.2464   13.6227 H   0  0  0  0  0  0  0  0  0  0  0  0
    7.2761    8.3834   11.8013 C   0  0  0  0  0  0  0  0  0  0  0  0
    6.4006    8.6070   10.7051 N   0  0  0  0  0  0  0  0  0  0  0  0
    8.5426    8.4610   11.5399 N   0  0  0  0  0  0  0  0  0  0  0  0
    6.5243    9.4239   10.0572 H   0  0  0  0  0  0  0  0  0  0  0  0
    5.6210    7.9618   10.5288 H   0  0  0  0  0  0  0  0  0  0  0  0
    9.1872    8.2958   12.3461 H   0  0  0  0  0  0  0  0  0  0  0  0
    2.1838    3.0055   15.9931 C   0  0  0  0  0  0  0  0  0  0  0  0
    2.4221    1.7381   15.2184 C   0  0  0  0  0  0  0  0  0  0  0  0
    3.4452    0.9384   16.0439 C   0  0  0  0  0  0  0  0  0  0  0  0
    2.2491   -0.6134   19.1490 N   0  0  0  0  0  0  0  0  0  0  0  0
    2.9662    0.2585   18.2911 C   0  0  0  0  0  0  0  0  0  0  0  0
    3.8366    1.2181   18.8377 N   0  0  0  0  0  0  0  0  0  0  0  0
    2.7965    0.1377   17.0337 N   0  0  0  0  0  0  0  0  0  0  0  0
    1.4829   -0.2346   19.7438 H   0  0  0  0  0  0  0  0  0  0  0  0
    2.4453   -1.6224   19.2229 H   0  0  0  0  0  0  0  0  0  0  0  0
    4.8869    1.0737   18.8445 H   0  0  0  0  0  0  0  0  0  0  0  0
    3.5088    2.1044   19.2583 H   0  0  0  0  0  0  0  0  0  0  0  0
 47 48  1  0  0  0
 48 49  1  0  0  0
 48 50  2  0  0  0
 50 46  1  0  0  0
 46 45  1  0  0  0
 45 44  1  0  0  0
 44  1  1  0  0  0
  1  2  1  0  0  0
  2  3  1  0  0  0
  3  4  2  0  0  0
  3  6  1  0  0  0
  6 19  1  0  0  0
 19 20  1  0  0  0
 20 21  2  0  0  0
 21 22  1  0  0  0
 22 23  2  0  0  0
 23 24  1  0  0  0
 24 25  2  0  0  0
  6  7  1  0  0  0
  7  8  1  0  0  0
  8  9  2  0  0  0
  8 11  1  0  0  0
 11 12  1  0  0  0
 12 13  1  0  0  0
 13 14  2  0  0  0
 14 15  1  0  0  0
 15 16  2  0  0  0
 16 17  1  0  0  0
 17 18  2  0  0  0
  1 26  1  0  0  0
 26 27  2  0  0  0
 26 28  1  0  0  0
 28 30  1  0  0  0
 30 33  1  0  0  0
 33 34  1  0  0  0
 34 35  1  0  0  0
 35 36  1  0  0  0
 36 38  1  0  0  0
 38 39  1  0  0  0
 38 40  2  0  0  0
 30 31  1  0  0  0
 31 32  2  0  0  0
 25 20  1  0  0  0
 18 13  1  0  0  0
 47 51  1  0  0  0
 47 52  1  0  0  0
 49 53  1  0  0  0
 49 54  1  0  0  0
  2  5  1  0  0  0
  7 10  1  0  0  0
 28 29  1  0  0  0
 36 37  1  0  0  0
 39 41  1  0  0  0
 39 42  1  0  0  0
 40 43  1  0  0  0
M  END
> <minimizedAffinity>
-7.28007

> <CNNscore>
0.4055052996

> <CNNaffinity>
6.7986707687

> <CNN_VS>
2.7568969727

> <CNNaffinity_variance>
0.5474756360

$$$$
[H]N=C(N([H])[H])N([H])C([H])([H])C([H])([H])C([H])([H])[C@@]([H])(C([H])=O)N([H])C(=O)[C@@]([H])(N([H])C(=O)[C@@]([H])(N([H])C(=O)OC([H])([H])c1c([H])c([H])c([H])c([H])c1[H])C([H])([H])c1c([H])c([H])c([H])c([H])c1[H])C([H])([H])C([H])([H])C([H])([H])N=C(N([H])[H])N([H])[H]


 54 55  0  0  0  0  0  0  0  0999 V2000
    4.2501    8.2684   18.6584 C   0  0  0  0  0  0  0  0  0  0  0  0
    3.7404    6.9141   18.7676 N   0  0  0  0  0  0  0  0  0  0  0  0
    4.6651    5.8372   18.7561 C   0  0  0  0  0  0  0  0  0  0  0  0
    5.9067    6.1167   18.6537 O   0  0  0  0  0  0  0  0  0  0  0  0
    2.7218    6.7072   18.8517 H   0  0  0  0  0  0  0  0  0  0  0  0
    4.2588    4.4004   18.8626 C   0  0  0  0  0  0  0  0  0  0  0  0
    3.9828    3.8396   17.5847 N   0  0  0  0  0  0  0  0  0  0  0  0
    2.8417    4.1541   16.8002 C   0  0  0  0  0  0  0  0  0  0  0  0
    1.9605    4.9702   17.1854 O   0  0  0  0  0  0  0  0  0  0  0  0
    4.6602    3.1499   17.1927 H   0  0  0  0  0  0  0  0  0  0  0  0
    2.6448    3.5656   15.5488 O   0  0  0  0  0  0  0  0  0  0  0  0
    3.2334    4.0255   14.3757 C   0  0  0  0  0  0  0  0  0  0  0  0
    2.1524    4.1286   13.3260 C   0  0  0  0  0  0  0  0  0  0  0  0
    1.0514    4.9365   13.5046 C   0  0  0  0  0  0  0  0  0  0  0  0
    0.0785    5.0105   12.5008 C   0  0  0  0  0  0  0  0  0  0  0  0
    0.2195    4.2825   11.3447 C   0  0  0  0  0  0  0  0  0  0  0  0
    1.2999    3.4771   11.1473 C   0  0  0  0  0  0  0  0  0  0  0  0
    2.2479    3.4173   12.1476 C   0  0  0  0  0  0  0  0  0  0  0  0
    5.1712    3.6273   19.7465 C   0  0  0  0  0  0  0  0  0  0  0  0
    4.4888    2.5537   20.4923 C   0  0  0  0  0  0  0  0  0  0  0  0
    4.1718    1.3910   19.8394 C   0  0  0  0  0  0  0  0  0  0  0  0
    3.5312    0.3822   20.5236 C   0  0  0  0  0  0  0  0  0  0  0  0
    3.1941    0.5002   21.8537 C   0  0  0  0  0  0  0  0  0  0  0  0
    3.5091    1.6645   22.5163 C   0  0  0  0  0  0  0  0  0  0  0  0
    4.1485    2.6640   21.8217 C   0  0  0  0  0  0  0  0  0  0  0  0
    4.5282    8.5907   17.2184 C   0  0  0  0  0  0  0  0  0  0  0  0
    5.7149    8.8358   16.8882 O   0  0  0  0  0  0  0  0  0  0  0  0
    3.5339    8.6241   16.2490 N   0  0  0  0  0  0  0  0  0  0  0  0
    2.5476    8.4426   16.4633 H   0  0  0  0  0  0  0  0  0  0  0  0
    3.8572    8.9288   14.8128 C   0  0  0  0  0  0  0  0  0  0  0  0
    3.6028   10.3721   14.6553 C   0  0  0  0  0  0  0  0  0  0  0  0
    4.5184   11.1335   14.2641 O   0  0  0  0  0  0  0  0  0  0  0  0
    3.0337    7.9923   14.0220 C   0  0  0  0  0  0  0  0  0  0  0  0
    2.3316    8.3816   12.8043 C   0  0  0  0  0  0  0  0  0  0  0  0
    2.7290    7.7740   11.4981 C   0  0  0  0  0  0  0  0  0  0  0  0
    1.5178    7.7963   10.6370 N   0  0  0  0  0  0  0  0  0  0  0  0
    0.6798    8.2651   11.0171 H   0  0  0  0  0  0  0  0  0  0  0  0
    1.5601    7.1907    9.3587 C   0  0  0  0  0  0  0  0  0  0  0  0
    0.6489    7.5789    8.3403 N   0  0  0  0  0  0  0  0  0  0  0  0
    2.4085    6.2657    9.0374 N   0  0  0  0  0  0  0  0  0  0  0  0
    0.9701    7.7918    7.3637 H   0  0  0  0  0  0  0  0  0  0  0  0
   -0.3536    7.6586    8.5494 H   0  0  0  0  0  0  0  0  0  0  0  0
    3.0787    5.9792    9.7866 H   0  0  0  0  0  0  0  0  0  0  0  0
    5.3754    8.6230   19.5363 C   0  0  0  0  0  0  0  0  0  0  0  0
    5.0462    9.5075   20.7078 C   0  0  0  0  0  0  0  0  0  0  0  0
    5.0361    8.5781   21.9340 C   0  0  0  0  0  0  0  0  0  0  0  0
    7.4680    5.8614   22.3650 N   0  0  0  0  0  0  0  0  0  0  0  0
    6.2316    6.5544   22.4002 C   0  0  0  0  0  0  0  0  0  0  0  0
    5.0866    5.9169   22.9100 N   0  0  0  0  0  0  0  0  0  0  0  0
    6.2015    7.7518   21.9645 N   0  0  0  0  0  0  0  0  0  0  0  0
    7.5949    5.0689   21.7016 H   0  0  0  0  0  0  0  0  0  0  0  0
    8.2671    6.0984   22.9711 H   0  0  0  0  0  0  0  0  0  0  0  0
    4.7265    6.1217   23.8860 H   0  0  0  0  0  0  0  0  0  0  0  0
    4.5393    5.2230   22.3727 H   0  0  0  0  0  0  0  0  0  0  0  0
 47 48  1  0  0  0
 48 49  1  0  0  0
 48 50  2  0  0  0
 50 46  1  0  0  0
 46 45  1  0  0  0
 45 44  1  0  0  0
 44  1  1  0  0  0
  1  2  1  0  0  0
  2  3  1  0  0  0
  3  4  2  0  0  0
  3  6  1  0  0  0
  6 19  1  0  0  0
 19 20  1  0  0  0
 20 21  2  0  0  0
 21 22  1  0  0  0
 22 23  2  0  0  0
 23 24  1  0  0  0
 24 25  2  0  0  0
  6  7  1  0  0  0
  7  8  1  0  0  0
  8  9  2  0  0  0
  8 11  1  0  0  0
 11 12  1  0  0  0
 12 13  1  0  0  0
 13 14  2  0  0  0
 14 15  1  0  0  0
 15 16  2  0  0  0
 16 17  1  0  0  0
 17 18  2  0  0  0
  1 26  1  0  0  0
 26 27  2  0  0  0
 26 28  1  0  0  0
 28 30  1  0  0  0
 30 33  1  0  0  0
 33 34  1  0  0  0
 34 35  1  0  0  0
 35 36  1  0  0  0
 36 38  1  0  0  0
 38 39  1  0  0  0
 38 40  2  0  0  0
 30 31  1  0  0  0
 31 32  2  0  0  0
 25 20  1  0  0  0
 18 13  1  0  0  0
 47 51  1  0  0  0
 47 52  1  0  0  0
 49 53  1  0  0  0
 49 54  1  0  0  0
  2  5  1  0  0  0
  7 10  1  0  0  0
 28 29  1  0  0  0
 36 37  1  0  0  0
 39 41  1  0  0  0
 39 42  1  0  0  0
 40 43  1  0  0  0
M  END
> <minimizedAffinity>
-7.25603

> <CNNscore>
0.3408532739

> <CNNaffinity>
6.7935004234

> <CNN_VS>
2.3155868053

> <CNNaffinity_variance>
0.0631450266

$$$$
[H]N=C(N([H])[H])N([H])C([H])([H])C([H])([H])C([H])([H])[C@@]([H])(C([H])=O)N([H])C(=O)[C@@]([H])(N([H])C(=O)[C@@]([H])(N([H])C(=O)OC([H])([H])c1c([H])c([H])c([H])c([H])c1[H])C([H])([H])c1c([H])c([H])c([H])c([H])c1[H])C([H])([H])C([H])([H])C([H])([H])N=C(N([H])[H])N([H])[H]


 54 55  0  0  0  0  0  0  0  0999 V2000
    5.1108    5.3098   17.2645 C   0  0  0  0  0  0  0  0  0  0  0  0
    4.4335    5.9842   18.3564 N   0  0  0  0  0  0  0  0  0  0  0  0
    5.1979    6.8058   19.2258 C   0  0  0  0  0  0  0  0  0  0  0  0
    6.4497    6.9137   18.9992 O   0  0  0  0  0  0  0  0  0  0  0  0
    3.4092    5.8838   18.5236 H   0  0  0  0  0  0  0  0  0  0  0  0
    4.6109    7.5507   20.3840 C   0  0  0  0  0  0  0  0  0  0  0  0
    4.7610    6.8277   21.6000 N   0  0  0  0  0  0  0  0  0  0  0  0
    4.0835    5.6169   21.9022 C   0  0  0  0  0  0  0  0  0  0  0  0
    3.2732    5.0773   21.1001 O   0  0  0  0  0  0  0  0  0  0  0  0
    5.4105    7.2081   22.3223 H   0  0  0  0  0  0  0  0  0  0  0  0
    4.2903    4.9610   23.1180 O   0  0  0  0  0  0  0  0  0  0  0  0
    3.7231    3.7331   23.4416 C   0  0  0  0  0  0  0  0  0  0  0  0
    4.4608    2.6655   22.6690 C   0  0  0  0  0  0  0  0  0  0  0  0
    3.7908    1.6352   22.0475 C   0  0  0  0  0  0  0  0  0  0  0  0
    4.5136    0.6729   21.3326 C   0  0  0  0  0  0  0  0  0  0  0  0
    5.8822    0.7542   21.2506 C   0  0  0  0  0  0  0  0  0  0  0  0
    6.5650    1.7642   21.8577 C   0  0  0  0  0  0  0  0  0  0  0  0
    5.8355    2.7030   22.5574 C   0  0  0  0  0  0  0  0  0  0  0  0
    5.0320    8.9768   20.4006 C   0  0  0  0  0  0  0  0  0  0  0  0
    4.5913    9.7284   19.2108 C   0  0  0  0  0  0  0  0  0  0  0  0
    3.2488    9.9006   18.9952 C   0  0  0  0  0  0  0  0  0  0  0  0
    2.8241   10.5974   17.8860 C   0  0  0  0  0  0  0  0  0  0  0  0
    3.7084   11.1330   16.9761 C   0  0  0  0  0  0  0  0  0  0  0  0
    5.0581   10.9645   17.1857 C   0  0  0  0  0  0  0  0  0  0  0  0
    5.4688   10.2668   18.2969 C   0  0  0  0  0  0  0  0  0  0  0  0
    4.3549    5.5303   15.9859 C   0  0  0  0  0  0  0  0  0  0  0  0
    4.3321    4.5963   15.1465 O   0  0  0  0  0  0  0  0  0  0  0  0
    3.6852    6.7136   15.7020 N   0  0  0  0  0  0  0  0  0  0  0  0
    3.6788    7.5123   16.3452 H   0  0  0  0  0  0  0  0  0  0  0  0
    2.9204    6.8865   14.4193 C   0  0  0  0  0  0  0  0  0  0  0  0
    2.8885    8.3405   14.1792 C   0  0  0  0  0  0  0  0  0  0  0  0
    1.8295    8.8923   13.7983 O   0  0  0  0  0  0  0  0  0  0  0  0
    1.6343    6.1945   14.6375 C   0  0  0  0  0  0  0  0  0  0  0  0
    0.9829    5.3828   13.6158 C   0  0  0  0  0  0  0  0  0  0  0  0
    0.4728    6.0341   12.3713 C   0  0  0  0  0  0  0  0  0  0  0  0
   -0.5448    7.0279   12.8024 N   0  0  0  0  0  0  0  0  0  0  0  0
   -0.2802    8.0247   12.7486 H   0  0  0  0  0  0  0  0  0  0  0  0
   -1.8080    6.5798   13.2565 C   0  0  0  0  0  0  0  0  0  0  0  0
   -2.2563    6.8808   14.5704 N   0  0  0  0  0  0  0  0  0  0  0  0
   -2.6203    5.8830   12.5263 N   0  0  0  0  0  0  0  0  0  0  0  0
   -3.2203    7.2546   14.7530 H   0  0  0  0  0  0  0  0  0  0  0  0
   -1.6325    6.7350   15.3734 H   0  0  0  0  0  0  0  0  0  0  0  0
   -2.2906    5.6607   11.5597 H   0  0  0  0  0  0  0  0  0  0  0  0
    5.4523    3.8947   17.4731 C   0  0  0  0  0  0  0  0  0  0  0  0
    4.6581    3.1716   18.5265 C   0  0  0  0  0  0  0  0  0  0  0  0
    4.3301    1.7956   17.9212 C   0  0  0  0  0  0  0  0  0  0  0  0
    2.0281    1.4934   15.0769 N   0  0  0  0  0  0  0  0  0  0  0  0
    2.6130    1.2427   16.3439 C   0  0  0  0  0  0  0  0  0  0  0  0
    2.0678    0.2548   17.1829 N   0  0  0  0  0  0  0  0  0  0  0  0
    3.6313    1.9305   16.6821 N   0  0  0  0  0  0  0  0  0  0  0  0
    1.0905    1.9432   15.0231 H   0  0  0  0  0  0  0  0  0  0  0  0
    2.4839    1.2507   14.1851 H   0  0  0  0  0  0  0  0  0  0  0  0
    2.5160   -0.7014   17.2773 H   0  0  0  0  0  0  0  0  0  0  0  0
    1.2126    0.4003   17.7462 H   0  0  0  0  0  0  0  0  0  0  0  0
 47 48  1  0  0  0
 48 49  1  0  0  0
 48 50  2  0  0  0
 50 46  1  0  0  0
 46 45  1  0  0  0
 45 44  1  0  0  0
 44  1  1  0  0  0
  1  2  1  0  0  0
  2  3  1  0  0  0
  3  4  2  0  0  0
  3  6  1  0  0  0
  6 19  1  0  0  0
 19 20  1  0  0  0
 20 21  2  0  0  0
 21 22  1  0  0  0
 22 23  2  0  0  0
 23 24  1  0  0  0
 24 25  2  0  0  0
  6  7  1  0  0  0
  7  8  1  0  0  0
  8  9  2  0  0  0
  8 11  1  0  0  0
 11 12  1  0  0  0
 12 13  1  0  0  0
 13 14  2  0  0  0
 14 15  1  0  0  0
 15 16  2  0  0  0
 16 17  1  0  0  0
 17 18  2  0  0  0
  1 26  1  0  0  0
 26 27  2  0  0  0
 26 28  1  0  0  0
 28 30  1  0  0  0
 30 33  1  0  0  0
 33 34  1  0  0  0
 34 35  1  0  0  0
 35 36  1  0  0  0
 36 38  1  0  0  0
 38 39  1  0  0  0
 38 40  2  0  0  0
 30 31  1  0  0  0
 31 32  2  0  0  0
 25 20  1  0  0  0
 18 13  1  0  0  0
 47 51  1  0  0  0
 47 52  1  0  0  0
 49 53  1  0  0  0
 49 54  1  0  0  0
  2  5  1  0  0  0
  7 10  1  0  0  0
 28 29  1  0  0  0
 36 37  1  0  0  0
 39 41  1  0  0  0
 39 42  1  0  0  0
 40 43  1  0  0  0
M  END
> <minimizedAffinity>
-8.19351

> <CNNscore>
0.3280752599

> <CNNaffinity>
6.6704149246

> <CNN_VS>
2.1883981228

> <CNNaffinity_variance>
0.7599361539

$$$$
[H]N=C(N([H])[H])N([H])C([H])([H])C([H])([H])C([H])([H])[C@@]([H])(C([H])=O)N([H])C(=O)[C@@]([H])(N([H])C(=O)[C@@]([H])(N([H])C(=O)OC([H])([H])c1c([H])c([H])c([H])c([H])c1[H])C([H])([H])c1c([H])c([H])c([H])c([H])c1[H])C([H])([H])C([H])([H])C([H])([H])N=C(N([H])[H])N([H])[H]


 54 55  0  0  0  0  0  0  0  0999 V2000
    3.7709    6.1042   18.6732 C   0  0  0  0  0  0  0  0  0  0  0  0
    4.0967    4.9396   17.8711 N   0  0  0  0  0  0  0  0  0  0  0  0
    3.0472    4.2678   17.1914 C   0  0  0  0  0  0  0  0  0  0  0  0
    1.8628    4.7274   17.3177 O   0  0  0  0  0  0  0  0  0  0  0  0
    5.0715    4.5809   17.7799 H   0  0  0  0  0  0  0  0  0  0  0  0
    3.2606    3.0582   16.3356 C   0  0  0  0  0  0  0  0  0  0  0  0
    3.3865    3.4061   14.9619 N   0  0  0  0  0  0  0  0  0  0  0  0
    2.5903    2.8608   13.9201 C   0  0  0  0  0  0  0  0  0  0  0  0
    1.6918    2.0020   14.1349 O   0  0  0  0  0  0  0  0  0  0  0  0
    4.1110    4.1078   14.6959 H   0  0  0  0  0  0  0  0  0  0  0  0
    2.7698    3.2599   12.5936 O   0  0  0  0  0  0  0  0  0  0  0  0
    1.7497    3.2881   11.6488 C   0  0  0  0  0  0  0  0  0  0  0  0
    0.9796    4.5733   11.8386 C   0  0  0  0  0  0  0  0  0  0  0  0
    1.4436    5.7700   11.3392 C   0  0  0  0  0  0  0  0  0  0  0  0
    0.6920    6.9357   11.5288 C   0  0  0  0  0  0  0  0  0  0  0  0
   -0.5005    6.8880   12.2084 C   0  0  0  0  0  0  0  0  0  0  0  0
   -0.9780    5.7156   12.7109 C   0  0  0  0  0  0  0  0  0  0  0  0
   -0.2235    4.5776   12.5140 C   0  0  0  0  0  0  0  0  0  0  0  0
    4.3047    2.1581   16.8933 C   0  0  0  0  0  0  0  0  0  0  0  0
    3.8283    1.3460   18.0283 C   0  0  0  0  0  0  0  0  0  0  0  0
    4.3690    1.5597   19.2694 C   0  0  0  0  0  0  0  0  0  0  0  0
    3.9354    0.8056   20.3369 C   0  0  0  0  0  0  0  0  0  0  0  0
    2.9683   -0.1655   20.2012 C   0  0  0  0  0  0  0  0  0  0  0  0
    2.4204   -0.3860   18.9582 C   0  0  0  0  0  0  0  0  0  0  0  0
    2.8622    0.3736   17.9009 C   0  0  0  0  0  0  0  0  0  0  0  0
    4.3484    7.3357   18.0369 C   0  0  0  0  0  0  0  0  0  0  0  0
    5.4002    7.2119   17.3618 O   0  0  0  0  0  0  0  0  0  0  0  0
    3.7673    8.5910   18.1628 N   0  0  0  0  0  0  0  0  0  0  0  0
    2.9150    8.7524   18.7099 H   0  0  0  0  0  0  0  0  0  0  0  0
    4.3644    9.7959   17.4907 C   0  0  0  0  0  0  0  0  0  0  0  0
    4.4706   10.8175   18.5480 C   0  0  0  0  0  0  0  0  0  0  0  0
    4.4758   10.4766   19.7542 O   0  0  0  0  0  0  0  0  0  0  0  0
    3.4792   10.0793   16.3433 C   0  0  0  0  0  0  0  0  0  0  0  0
    3.9063    9.9451   14.9552 C   0  0  0  0  0  0  0  0  0  0  0  0
    2.9372    9.4518   13.9302 C   0  0  0  0  0  0  0  0  0  0  0  0
    3.4261    8.1171   13.4958 N   0  0  0  0  0  0  0  0  0  0  0  0
    3.8478    8.0547   12.5551 H   0  0  0  0  0  0  0  0  0  0  0  0
    3.3001    7.0106   14.3689 C   0  0  0  0  0  0  0  0  0  0  0  0
    2.0377    6.6570   14.9161 N   0  0  0  0  0  0  0  0  0  0  0  0
    4.2991    6.2644   14.7205 N   0  0  0  0  0  0  0  0  0  0  0  0
    1.6902    5.6663   14.9081 H   0  0  0  0  0  0  0  0  0  0  0  0
    1.4371    7.3783   15.3335 H   0  0  0  0  0  0  0  0  0  0  0  0
    5.2283    6.5245   14.3187 H   0  0  0  0  0  0  0  0  0  0  0  0
    4.0771    6.0232   20.1094 C   0  0  0  0  0  0  0  0  0  0  0  0
    5.2570    5.1695   20.4863 C   0  0  0  0  0  0  0  0  0  0  0  0
    5.3741    5.2832   22.0163 C   0  0  0  0  0  0  0  0  0  0  0  0
    4.8201    2.1473   23.8439 N   0  0  0  0  0  0  0  0  0  0  0  0
    4.5621    3.4328   23.3042 C   0  0  0  0  0  0  0  0  0  0  0  0
    3.3199    4.0509   23.5326 N   0  0  0  0  0  0  0  0  0  0  0  0
    5.4814    3.9937   22.6226 N   0  0  0  0  0  0  0  0  0  0  0  0
    4.3197    1.3185   23.4605 H   0  0  0  0  0  0  0  0  0  0  0  0
    5.4870    1.9791   24.6113 H   0  0  0  0  0  0  0  0  0  0  0  0
    3.2066    4.8161   24.2578 H   0  0  0  0  0  0  0  0  0  0  0  0
    2.4597    3.7992   23.0165 H   0  0  0  0  0  0  0  0  0  0  0  0
 47 48  1  0  0  0
 48 49  1  0  0  0
 48 50  2  0  0  0
 50 46  1  0  0  0
 46 45  1  0  0  0
 45 44  1  0  0  0
 44  1  1  0  0  0
  1  2  1  0  0  0
  2  3  1  0  0  0
  3  4  2  0  0  0
  3  6  1  0  0  0
  6 19  1  0  0  0
 19 20  1  0  0  0
 20 21  2  0  0  0
 21 22  1  0  0  0
 22 23  2  0  0  0
 23 24  1  0  0  0
 24 25  2  0  0  0
  6  7  1  0  0  0
  7  8  1  0  0  0
  8  9  2  0  0  0
  8 11  1  0  0  0
 11 12  1  0  0  0
 12 13  1  0  0  0
 13 14  2  0  0  0
 14 15  1  0  0  0
 15 16  2  0  0  0
 16 17  1  0  0  0
 17 18  2  0  0  0
  1 26  1  0  0  0
 26 27  2  0  0  0
 26 28  1  0  0  0
 28 30  1  0  0  0
 30 33  1  0  0  0
 33 34  1  0  0  0
 34 35  1  0  0  0
 35 36  1  0  0  0
 36 38  1  0  0  0
 38 39  1  0  0  0
 38 40  2  0  0  0
 30 31  1  0  0  0
 31 32  2  0  0  0
 25 20  1  0  0  0
 18 13  1  0  0  0
 47 51  1  0  0  0
 47 52  1  0  0  0
 49 53  1  0  0  0
 49 54  1  0  0  0
  2  5  1  0  0  0
  7 10  1  0  0  0
 28 29  1  0  0  0
 36 37  1  0  0  0
 39 41  1  0  0  0
 39 42  1  0  0  0
 40 43  1  0  0  0
M  END
> <minimizedAffinity>
-7.28091

> <CNNscore>
0.3270578384

> <CNNaffinity>
6.8243560791

> <CNN_VS>
2.2319591045

> <CNNaffinity_variance>
0.2984622121

$$$$
[H]c1c([H])c([H])c(C([H])([H])OC(=O)N([H])[C@]([H])(C(=O)N([H])[C@]([H])(C(=O)c2nc3c([H])c([H])c([H])c([H])c3s2)C([H])([H])C([H])([H])C([H])([H])N=C(N([H])[H])N([H])[H])C([H])([H])c2c([H])c([H])c([H])c([H])c2[H])c([H])c1[H]


 47 50  0  0  0  0  0  0  0  0999 V2000
    3.6840    3.3124   17.3317 N   0  0  0  0  0  0  0  0  0  0  0  0
    3.0146    4.5625   17.3671 C   0  0  0  0  0  0  0  0  0  0  0  0
    1.8365    4.6652   16.9360 O   0  0  0  0  0  0  0  0  0  0  0  0
    4.6457    3.1998   17.6702 H   0  0  0  0  0  0  0  0  0  0  0  0
    2.9903    2.1310   16.7887 C   0  0  0  0  0  0  0  0  0  0  0  0
    3.3636    0.9871   17.6194 C   0  0  0  0  0  0  0  0  0  0  0  0
    3.3751   -0.1774   17.1651 O   0  0  0  0  0  0  0  0  0  0  0  0
    3.7376    1.1970   19.0154 C   0  0  0  0  0  0  0  0  0  0  0  0
    4.7291    1.8941   19.5273 N   0  0  0  0  0  0  0  0  0  0  0  0
    4.9018    1.9624   20.8157 C   0  0  0  0  0  0  0  0  0  0  0  0
    5.9200    2.6721   21.4783 C   0  0  0  0  0  0  0  0  0  0  0  0
    6.0033    2.6731   22.8291 C   0  0  0  0  0  0  0  0  0  0  0  0
    5.1216    1.9974   23.6352 C   0  0  0  0  0  0  0  0  0  0  0  0
    4.1178    1.2964   23.0099 C   0  0  0  0  0  0  0  0  0  0  0  0
    4.0162    1.2846   21.6087 C   0  0  0  0  0  0  0  0  0  0  0  0
    2.9798    0.5838   20.4466 S   0  0  0  0  0  0  0  0  0  0  0  0
    3.3979    1.9704   15.3347 C   0  0  0  0  0  0  0  0  0  0  0  0
    2.1752    1.8309   14.4801 C   0  0  0  0  0  0  0  0  0  0  0  0
    2.4070    2.5329   13.1485 C   0  0  0  0  0  0  0  0  0  0  0  0
   -0.0319    5.3022   12.9868 N   0  0  0  0  0  0  0  0  0  0  0  0
    1.1607    4.5684   13.2703 C   0  0  0  0  0  0  0  0  0  0  0  0
    2.2576    5.1617   13.9492 N   0  0  0  0  0  0  0  0  0  0  0  0
    1.2390    3.3503   12.9032 N   0  0  0  0  0  0  0  0  0  0  0  0
   -0.9672    4.8742   13.0786 H   0  0  0  0  0  0  0  0  0  0  0  0
    0.0284    6.3001   12.6770 H   0  0  0  0  0  0  0  0  0  0  0  0
    3.0735    5.4737   13.3975 H   0  0  0  0  0  0  0  0  0  0  0  0
    2.2462    5.2815   14.9705 H   0  0  0  0  0  0  0  0  0  0  0  0
    3.7848    5.7274   17.9374 C   0  0  0  0  0  0  0  0  0  0  0  0
    3.3883    6.8916   17.1791 N   0  0  0  0  0  0  0  0  0  0  0  0
    4.2428    7.8197   16.5687 C   0  0  0  0  0  0  0  0  0  0  0  0
    5.4854    7.6938   16.6357 O   0  0  0  0  0  0  0  0  0  0  0  0
    2.3391    7.0896   17.0537 H   0  0  0  0  0  0  0  0  0  0  0  0
    3.7333    8.8997   15.8761 O   0  0  0  0  0  0  0  0  0  0  0  0
    4.3792    9.3251   14.6895 C   0  0  0  0  0  0  0  0  0  0  0  0
    3.7258    8.7035   13.5033 C   0  0  0  0  0  0  0  0  0  0  0  0
    4.4710    7.9444   12.6059 C   0  0  0  0  0  0  0  0  0  0  0  0
    3.8674    7.3749   11.5173 C   0  0  0  0  0  0  0  0  0  0  0  0
    2.5179    7.5580   11.3160 C   0  0  0  0  0  0  0  0  0  0  0  0
    1.7901    8.2994   12.1927 C   0  0  0  0  0  0  0  0  0  0  0  0
    2.3844    8.8819   13.2978 C   0  0  0  0  0  0  0  0  0  0  0  0
    3.5445    5.7778   19.3830 C   0  0  0  0  0  0  0  0  0  0  0  0
    4.6819    5.9743   20.2765 C   0  0  0  0  0  0  0  0  0  0  0  0
    4.4951    6.0473   21.6471 C   0  0  0  0  0  0  0  0  0  0  0  0
    5.5931    6.2435   22.4422 C   0  0  0  0  0  0  0  0  0  0  0  0
    6.8720    6.3676   21.8911 C   0  0  0  0  0  0  0  0  0  0  0  0
    7.0626    6.2960   20.5309 C   0  0  0  0  0  0  0  0  0  0  0  0
    5.9384    6.0961   19.7287 C   0  0  0  0  0  0  0  0  0  0  0  0
 20 21  1  0  0  0
 21 22  1  0  0  0
 21 23  2  0  0  0
 23 19  1  0  0  0
 19 18  1  0  0  0
 18 17  1  0  0  0
 17  5  1  0  0  0
  5  1  1  0  0  0
  1  2  1  0  0  0
  2  3  2  0  0  0
  2 28  1  0  0  0
 28 41  1  0  0  0
 41 42  1  0  0  0
 42 43  2  0  0  0
 43 44  1  0  0  0
 44 45  2  0  0  0
 45 46  1  0  0  0
 46 47  2  0  0  0
 28 29  1  0  0  0
 29 30  1  0  0  0
 30 31  2  0  0  0
 30 33  1  0  0  0
 33 34  1  0  0  0
 34 35  1  0  0  0
 35 36  2  0  0  0
 36 37  1  0  0  0
 37 38  2  0  0  0
 38 39  1  0  0  0
 39 40  2  0  0  0
  5  6  1  0  0  0
  6  7  2  0  0  0
  6  8  1  0  0  0
  8  9  2  0  0  0
  9 10  1  0  0  0
 10 11  2  0  0  0
 11 12  1  0  0  0
 12 13  2  0  0  0
 13 14  1  0  0  0
 14 15  2  0  0  0
 15 16  1  0  0  0
 47 42  1  0  0  0
 40 35  1  0  0  0
 16  8  1  0  0  0
 15 10  1  0  0  0
 20 24  1  0  0  0
 20 25  1  0  0  0
 22 26  1  0  0  0
 22 27  1  0  0  0
  1  4  1  0  0  0
 29 32  1  0  0  0
M  END
> <minimizedAffinity>
-8.24637

> <CNNscore>
0.4671637118

> <CNNaffinity>
7.0565404892

> <CNN_VS>
3.2965595722

> <CNNaffinity_variance>
0.1579935402

$$$$
[H]c1c([H])c([H])c(C([H])([H])OC(=O)N([H])[C@]([H])(C(=O)N([H])[C@]([H])(C(=O)c2nc3c([H])c([H])c([H])c([H])c3s2)C([H])([H])C([H])([H])C([H])([H])N=C(N([H])[H])N([H])[H])C([H])([H])c2c([H])c([H])c([H])c([H])c2[H])c([H])c1[H]


 47 50  0  0  0  0  0  0  0  0999 V2000
    3.2898    7.0213   15.8581 N   0  0  0  0  0  0  0  0  0  0  0  0
    4.1804    7.3938   16.8974 C   0  0  0  0  0  0  0  0  0  0  0  0
    5.2282    8.0402   16.6355 O   0  0  0  0  0  0  0  0  0  0  0  0
    2.4319    6.4895   16.0406 H   0  0  0  0  0  0  0  0  0  0  0  0
    3.5971    7.3982   14.4670 C   0  0  0  0  0  0  0  0  0  0  0  0
    2.4966    8.2342   13.9893 C   0  0  0  0  0  0  0  0  0  0  0  0
    2.4228    9.4484   14.2768 O   0  0  0  0  0  0  0  0  0  0  0  0
    1.4531    7.6490   13.1519 C   0  0  0  0  0  0  0  0  0  0  0  0
    0.2783    7.1601   13.4865 N   0  0  0  0  0  0  0  0  0  0  0  0
   -0.5247    6.6753   12.5839 C   0  0  0  0  0  0  0  0  0  0  0  0
   -1.7994    6.1277   12.8179 C   0  0  0  0  0  0  0  0  0  0  0  0
   -2.5510    5.6509   11.7983 C   0  0  0  0  0  0  0  0  0  0  0  0
   -2.1357    5.6653   10.4902 C   0  0  0  0  0  0  0  0  0  0  0  0
   -0.8929    6.1959   10.2372 C   0  0  0  0  0  0  0  0  0  0  0  0
   -0.0994    6.6955   11.2835 C   0  0  0  0  0  0  0  0  0  0  0  0
    1.4413    7.4155   11.4361 S   0  0  0  0  0  0  0  0  0  0  0  0
    3.7718    6.1240   13.6597 C   0  0  0  0  0  0  0  0  0  0  0  0
    3.1048    4.9834   14.3661 C   0  0  0  0  0  0  0  0  0  0  0  0
    3.5614    3.6692   13.7464 C   0  0  0  0  0  0  0  0  0  0  0  0
    2.9954    0.9198   16.1472 N   0  0  0  0  0  0  0  0  0  0  0  0
    2.8020    1.8177   15.0530 C   0  0  0  0  0  0  0  0  0  0  0  0
    1.6631    1.7312   14.2096 N   0  0  0  0  0  0  0  0  0  0  0  0
    3.6761    2.7186   14.8307 N   0  0  0  0  0  0  0  0  0  0  0  0
    3.3678    1.2424   17.0547 H   0  0  0  0  0  0  0  0  0  0  0  0
    2.7579   -0.0940   16.0409 H   0  0  0  0  0  0  0  0  0  0  0  0
    1.7623    1.2807   13.2852 H   0  0  0  0  0  0  0  0  0  0  0  0
    0.7537    2.1079   14.5075 H   0  0  0  0  0  0  0  0  0  0  0  0
    3.8016    6.9758   18.2964 C   0  0  0  0  0  0  0  0  0  0  0  0
    4.0876    5.5630   18.3937 N   0  0  0  0  0  0  0  0  0  0  0  0
    3.2280    4.5124   18.0452 C   0  0  0  0  0  0  0  0  0  0  0  0
    2.0848    4.7380   17.5907 O   0  0  0  0  0  0  0  0  0  0  0  0
    5.0488    5.2583   18.7666 H   0  0  0  0  0  0  0  0  0  0  0  0
    3.6222    3.1979   18.1951 O   0  0  0  0  0  0  0  0  0  0  0  0
    4.7428    2.9025   19.0094 C   0  0  0  0  0  0  0  0  0  0  0  0
    4.2959    2.2569   20.2759 C   0  0  0  0  0  0  0  0  0  0  0  0
    3.7599    0.9726   20.2607 C   0  0  0  0  0  0  0  0  0  0  0  0
    3.3504    0.3827   21.4260 C   0  0  0  0  0  0  0  0  0  0  0  0
    3.4723    1.0683   22.6136 C   0  0  0  0  0  0  0  0  0  0  0  0
    3.9961    2.3227   22.6282 C   0  0  0  0  0  0  0  0  0  0  0  0
    4.4147    2.9335   21.4597 C   0  0  0  0  0  0  0  0  0  0  0  0
    4.4993    7.8493   19.2453 C   0  0  0  0  0  0  0  0  0  0  0  0
    5.4030    7.2460   20.2199 C   0  0  0  0  0  0  0  0  0  0  0  0
    4.9144    6.7423   21.4143 C   0  0  0  0  0  0  0  0  0  0  0  0
    5.8045    6.1960   22.3006 C   0  0  0  0  0  0  0  0  0  0  0  0
    7.1718    6.1447   22.0135 C   0  0  0  0  0  0  0  0  0  0  0  0
    7.6618    6.6436   20.8291 C   0  0  0  0  0  0  0  0  0  0  0  0
    6.7479    7.1984   19.9323 C   0  0  0  0  0  0  0  0  0  0  0  0
 20 21  1  0  0  0
 21 22  1  0  0  0
 21 23  2  0  0  0
 23 19  1  0  0  0
 19 18  1  0  0  0
 18 17  1  0  0  0
 17  5  1  0  0  0
  5  1  1  0  0  0
  1  2  1  0  0  0
  2  3  2  0  0  0
  2 28  1  0  0  0
 28 41  1  0  0  0
 41 42  1  0  0  0
 42 43  2  0  0  0
 43 44  1  0  0  0
 44 45  2  0  0  0
 45 46  1  0  0  0
 46 47  2  0  0  0
 28 29  1  0  0  0
 29 30  1  0  0  0
 30 31  2  0  0  0
 30 33  1  0  0  0
 33 34  1  0  0  0
 34 35  1  0  0  0
 35 36  2  0  0  0
 36 37  1  0  0  0
 37 38  2  0  0  0
 38 39  1  0  0  0
 39 40  2  0  0  0
  5  6  1  0  0  0
  6  7  2  0  0  0
  6  8  1  0  0  0
  8  9  2  0  0  0
  9 10  1  0  0  0
 10 11  2  0  0  0
 11 12  1  0  0  0
 12 13  2  0  0  0
 13 14  1  0  0  0
 14 15  2  0  0  0
 15 16  1  0  0  0
 47 42  1  0  0  0
 40 35  1  0  0  0
 16  8  1  0  0  0
 15 10  1  0  0  0
 20 24  1  0  0  0
 20 25  1  0  0  0
 22 26  1  0  0  0
 22 27  1  0  0  0
  1  4  1  0  0  0
 29 32  1  0  0  0
M  END
> <minimizedAffinity>
-8.60824

> <CNNscore>
0.3429312110

> <CNNaffinity>
7.1105980873

> <CNN_VS>
2.4384460449

> <CNNaffinity_variance>
0.1928417236

$$$$
[H]c1c([H])c([H])c(C([H])([H])OC(=O)N([H])[C@]([H])(C(=O)N([H])[C@]([H])(C(=O)c2nc3c([H])c([H])c([H])c([H])c3s2)C([H])([H])C([H])([H])C([H])([H])N=C(N([H])[H])N([H])[H])C([H])([H])c2c([H])c([H])c([H])c([H])c2[H])c([H])c1[H]


 47 50  0  0  0  0  0  0  0  0999 V2000
    5.6880    7.5632   18.8425 N   0  0  0  0  0  0  0  0  0  0  0  0
    4.5606    7.8046   19.6688 C   0  0  0  0  0  0  0  0  0  0  0  0
    3.3964    7.6414   19.2194 O   0  0  0  0  0  0  0  0  0  0  0  0
    6.6480    7.6933   19.1793 H   0  0  0  0  0  0  0  0  0  0  0  0
    5.4885    7.1168   17.4523 C   0  0  0  0  0  0  0  0  0  0  0  0
    6.0775    5.7837   17.3345 C   0  0  0  0  0  0  0  0  0  0  0  0
    7.2971    5.5864   17.5241 O   0  0  0  0  0  0  0  0  0  0  0  0
    5.2300    4.6451   16.9906 C   0  0  0  0  0  0  0  0  0  0  0  0
    5.1388    3.4604   17.5557 N   0  0  0  0  0  0  0  0  0  0  0  0
    4.3123    2.5646   17.0986 C   0  0  0  0  0  0  0  0  0  0  0  0
    4.1261    1.2694   17.6154 C   0  0  0  0  0  0  0  0  0  0  0  0
    3.2344    0.4178   17.0574 C   0  0  0  0  0  0  0  0  0  0  0  0
    2.4631    0.7461   15.9707 C   0  0  0  0  0  0  0  0  0  0  0  0
    2.6277    2.0069   15.4482 C   0  0  0  0  0  0  0  0  0  0  0  0
    3.5487    2.9039   16.0149 C   0  0  0  0  0  0  0  0  0  0  0  0
    4.0678    4.5026   15.7148 S   0  0  0  0  0  0  0  0  0  0  0  0
    6.1335    8.1372   16.5311 C   0  0  0  0  0  0  0  0  0  0  0  0
    5.3435    9.4101   16.5559 C   0  0  0  0  0  0  0  0  0  0  0  0
    3.9584    9.1562   15.9757 C   0  0  0  0  0  0  0  0  0  0  0  0
    3.4439    8.4861   12.3798 N   0  0  0  0  0  0  0  0  0  0  0  0
    3.1832    8.6296   13.7771 C   0  0  0  0  0  0  0  0  0  0  0  0
    1.8961    8.3851   14.3245 N   0  0  0  0  0  0  0  0  0  0  0  0
    4.1323    8.9865   14.5496 N   0  0  0  0  0  0  0  0  0  0  0  0
    4.3213    8.0674   12.0317 H   0  0  0  0  0  0  0  0  0  0  0  0
    2.7366    8.8091   11.6793 H   0  0  0  0  0  0  0  0  0  0  0  0
    1.2904    9.1912   14.5493 H   0  0  0  0  0  0  0  0  0  0  0  0
    1.5672    7.4260   14.4963 H   0  0  0  0  0  0  0  0  0  0  0  0
    4.8399    8.2576   21.0803 C   0  0  0  0  0  0  0  0  0  0  0  0
    4.4370    7.1735   21.9461 N   0  0  0  0  0  0  0  0  0  0  0  0
    4.7805    5.8221   21.8049 C   0  0  0  0  0  0  0  0  0  0  0  0
    5.5108    5.4369   20.8654 O   0  0  0  0  0  0  0  0  0  0  0  0
    3.8118    7.3969   22.7916 H   0  0  0  0  0  0  0  0  0  0  0  0
    4.3201    4.8789   22.7016 O   0  0  0  0  0  0  0  0  0  0  0  0
    5.1976    3.8567   23.1389 C   0  0  0  0  0  0  0  0  0  0  0  0
    4.8740    2.5773   22.4467 C   0  0  0  0  0  0  0  0  0  0  0  0
    5.8351    1.9320   21.6742 C   0  0  0  0  0  0  0  0  0  0  0  0
    5.5344    0.7569   21.0399 C   0  0  0  0  0  0  0  0  0  0  0  0
    4.2746    0.2174   21.1712 C   0  0  0  0  0  0  0  0  0  0  0  0
    3.3361    0.8479   21.9260 C   0  0  0  0  0  0  0  0  0  0  0  0
    3.6234    2.0361   22.5736 C   0  0  0  0  0  0  0  0  0  0  0  0
    6.2441    8.6718   21.1640 C   0  0  0  0  0  0  0  0  0  0  0  0
    6.9534    8.4940   22.4273 C   0  0  0  0  0  0  0  0  0  0  0  0
    7.9347    7.5244   22.5523 C   0  0  0  0  0  0  0  0  0  0  0  0
    8.5637    7.3897   23.7617 C   0  0  0  0  0  0  0  0  0  0  0  0
    8.2288    8.2066   24.8458 C   0  0  0  0  0  0  0  0  0  0  0  0
    7.2550    9.1706   24.7267 C   0  0  0  0  0  0  0  0  0  0  0  0
    6.6195    9.3006   23.4912 C   0  0  0  0  0  0  0  0  0  0  0  0
 20 21  1  0  0  0
 21 22  1  0  0  0
 21 23  2  0  0  0
 23 19  1  0  0  0
 19 18  1  0  0  0
 18 17  1  0  0  0
 17  5  1  0  0  0
  5  1  1  0  0  0
  1  2  1  0  0  0
  2  3  2  0  0  0
  2 28  1  0  0  0
 28 41  1  0  0  0
 41 42  1  0  0  0
 42 43  2  0  0  0
 43 44  1  0  0  0
 44 45  2  0  0  0
 45 46  1  0  0  0
 46 47  2  0  0  0
 28 29  1  0  0  0
 29 30  1  0  0  0
 30 31  2  0  0  0
 30 33  1  0  0  0
 33 34  1  0  0  0
 34 35  1  0  0  0
 35 36  2  0  0  0
 36 37  1  0  0  0
 37 38  2  0  0  0
 38 39  1  0  0  0
 39 40  2  0  0  0
  5  6  1  0  0  0
  6  7  2  0  0  0
  6  8  1  0  0  0
  8  9  2  0  0  0
  9 10  1  0  0  0
 10 11  2  0  0  0
 11 12  1  0  0  0
 12 13  2  0  0  0
 13 14  1  0  0  0
 14 15  2  0  0  0
 15 16  1  0  0  0
 47 42  1  0  0  0
 40 35  1  0  0  0
 16  8  1  0  0  0
 15 10  1  0  0  0
 20 24  1  0  0  0
 20 25  1  0  0  0
 22 26  1  0  0  0
 22 27  1  0  0  0
  1  4  1  0  0  0
 29 32  1  0  0  0
M  END
> <minimizedAffinity>
-8.98265

> <CNNscore>
0.3249900937

> <CNNaffinity>
6.8669462204

> <CNN_VS>
2.2316894531

> <CNNaffinity_variance>
0.3227130771

$$$$
[H]c1c([H])c([H])c(C([H])([H])OC(=O)N([H])[C@]([H])(C(=O)N([H])[C@]([H])(C(=O)c2nc3c([H])c([H])c([H])c([H])c3s2)C([H])([H])C([H])([H])C([H])([H])N=C(N([H])[H])N([H])[H])C([H])([H])c2c([H])c([H])c([H])c([H])c2[H])c([H])c1[H]


 47 50  0  0  0  0  0  0  0  0999 V2000
    4.1300    5.3659   18.8512 N   0  0  0  0  0  0  0  0  0  0  0  0
    3.1962    5.3641   17.7835 C   0  0  0  0  0  0  0  0  0  0  0  0
    2.1870    4.6130   17.8227 O   0  0  0  0  0  0  0  0  0  0  0  0
    4.9642    5.9626   18.8442 H   0  0  0  0  0  0  0  0  0  0  0  0
    3.9105    4.4834   20.0109 C   0  0  0  0  0  0  0  0  0  0  0  0
    4.1071    5.2896   21.2147 C   0  0  0  0  0  0  0  0  0  0  0  0
    3.4883    5.0487   22.2737 O   0  0  0  0  0  0  0  0  0  0  0  0
    5.0497    6.4049   21.1937 C   0  0  0  0  0  0  0  0  0  0  0  0
    4.8228    7.7006   21.1720 N   0  0  0  0  0  0  0  0  0  0  0  0
    5.8085    8.5508   21.1553 C   0  0  0  0  0  0  0  0  0  0  0  0
    5.6925    9.9527   21.1316 C   0  0  0  0  0  0  0  0  0  0  0  0
    6.7913   10.7428   21.1158 C   0  0  0  0  0  0  0  0  0  0  0  0
    8.0711   10.2472   21.1214 C   0  0  0  0  0  0  0  0  0  0  0  0
    8.2094    8.8797   21.1444 C   0  0  0  0  0  0  0  0  0  0  0  0
    7.0797    8.0444   21.1612 C   0  0  0  0  0  0  0  0  0  0  0  0
    6.7809    6.3636   21.1907 S   0  0  0  0  0  0  0  0  0  0  0  0
    4.8793    3.3185   19.9083 C   0  0  0  0  0  0  0  0  0  0  0  0
    4.2097    2.0624   20.3760 C   0  0  0  0  0  0  0  0  0  0  0  0
    4.2041    1.0422   19.2453 C   0  0  0  0  0  0  0  0  0  0  0  0
    3.4671    2.2609   15.8372 N   0  0  0  0  0  0  0  0  0  0  0  0
    3.4394    1.4599   17.0198 C   0  0  0  0  0  0  0  0  0  0  0  0
    2.6210    0.3039   17.1186 N   0  0  0  0  0  0  0  0  0  0  0  0
    4.1693    1.7942   18.0100 N   0  0  0  0  0  0  0  0  0  0  0  0
    4.3469    2.6600   15.4724 H   0  0  0  0  0  0  0  0  0  0  0  0
    2.5806    2.4566   15.3164 H   0  0  0  0  0  0  0  0  0  0  0  0
    1.7305    0.3684   17.6384 H   0  0  0  0  0  0  0  0  0  0  0  0
    2.9036   -0.5838   16.6830 H   0  0  0  0  0  0  0  0  0  0  0  0
    3.4838    6.2934   16.6305 C   0  0  0  0  0  0  0  0  0  0  0  0
    2.3049    6.2874   15.7953 N   0  0  0  0  0  0  0  0  0  0  0  0
    2.1090    5.5260   14.6352 C   0  0  0  0  0  0  0  0  0  0  0  0
    2.9928    4.7446   14.2195 O   0  0  0  0  0  0  0  0  0  0  0  0
    1.4795    6.9200   16.0678 H   0  0  0  0  0  0  0  0  0  0  0  0
    0.9323    5.6193   13.9195 O   0  0  0  0  0  0  0  0  0  0  0  0
    0.0802    6.7301   14.1348 C   0  0  0  0  0  0  0  0  0  0  0  0
   -1.2360    6.4973   13.4761 C   0  0  0  0  0  0  0  0  0  0  0  0
   -1.3338    5.6467   12.3789 C   0  0  0  0  0  0  0  0  0  0  0  0
   -2.5445    5.4353   11.7763 C   0  0  0  0  0  0  0  0  0  0  0  0
   -3.6652    6.0697   12.2630 C   0  0  0  0  0  0  0  0  0  0  0  0
   -3.5695    6.9004   13.3349 C   0  0  0  0  0  0  0  0  0  0  0  0
   -2.3538    7.1252   13.9555 C   0  0  0  0  0  0  0  0  0  0  0  0
    3.8913    7.5929   17.1742 C   0  0  0  0  0  0  0  0  0  0  0  0
    5.1669    8.1616   16.7499 C   0  0  0  0  0  0  0  0  0  0  0  0
    5.4242    8.3880   15.4078 C   0  0  0  0  0  0  0  0  0  0  0  0
    6.6406    8.9132   15.0598 C   0  0  0  0  0  0  0  0  0  0  0  0
    7.6017    9.2153   16.0290 C   0  0  0  0  0  0  0  0  0  0  0  0
    7.3511    8.9922   17.3629 C   0  0  0  0  0  0  0  0  0  0  0  0
    6.1095    8.4568   17.7081 C   0  0  0  0  0  0  0  0  0  0  0  0
 20 21  1  0  0  0
 21 22  1  0  0  0
 21 23  2  0  0  0
 23 19  1  0  0  0
 19 18  1  0  0  0
 18 17  1  0  0  0
 17  5  1  0  0  0
  5  1  1  0  0  0
  1  2  1  0  0  0
  2  3  2  0  0  0
  2 28  1  0  0  0
 28 41  1  0  0  0
 41 42  1  0  0  0
 42 43  2  0  0  0
 43 44  1  0  0  0
 44 45  2  0  0  0
 45 46  1  0  0  0
 46 47  2  0  0  0
 28 29  1  0  0  0
 29 30  1  0  0  0
 30 31  2  0  0  0
 30 33  1  0  0  0
 33 34  1  0  0  0
 34 35  1  0  0  0
 35 36  2  0  0  0
 36 37  1  0  0  0
 37 38  2  0  0  0
 38 39  1  0  0  0
 39 40  2  0  0  0
  5  6  1  0  0  0
  6  7  2  0  0  0
  6  8  1  0  0  0
  8  9  2  0  0  0
  9 10  1  0  0  0
 10 11  2  0  0  0
 11 12  1  0  0  0
 12 13  2  0  0  0
 13 14  1  0  0  0
 14 15  2  0  0  0
 15 16  1  0  0  0
 47 42  1  0  0  0
 40 35  1  0  0  0
 16  8  1  0  0  0
 15 10  1  0  0  0
 20 24  1  0  0  0
 20 25  1  0  0  0
 22 26  1  0  0  0
 22 27  1  0  0  0
  1  4  1  0  0  0
 29 32  1  0  0  0
M  END
> <minimizedAffinity>
-7.69259

> <CNNscore>
0.2883767486

> <CNNaffinity>
6.6471366882

> <CNN_VS>
1.9168796539

> <CNNaffinity_variance>
0.3517163396

$$$$
[H]c1c([H])c([H])c(C([H])([H])OC(=O)N([H])[C@]([H])(C(=O)N([H])[C@]([H])(C(=O)c2nc3c([H])c([H])c([H])c([H])c3s2)C([H])([H])C([H])([H])C([H])([H])N=C(N([H])[H])N([H])[H])C([H])([H])c2c([H])c([H])c([H])c([H])c2[H])c([H])c1[H]


 47 50  0  0  0  0  0  0  0  0999 V2000
    3.6796    4.0927   17.6420 N   0  0  0  0  0  0  0  0  0  0  0  0
    4.7039    5.0673   17.5275 C   0  0  0  0  0  0  0  0  0  0  0  0
    5.9142    4.7223   17.5426 O   0  0  0  0  0  0  0  0  0  0  0  0
    2.6853    4.3446   17.6387 H   0  0  0  0  0  0  0  0  0  0  0  0
    4.0408    2.6703   17.7766 C   0  0  0  0  0  0  0  0  0  0  0  0
    3.1917    1.9166   16.8552 C   0  0  0  0  0  0  0  0  0  0  0  0
    2.5594    0.9039   17.2255 O   0  0  0  0  0  0  0  0  0  0  0  0
    3.0680    2.3491   15.4658 C   0  0  0  0  0  0  0  0  0  0  0  0
    3.7945    3.2063   14.7814 N   0  0  0  0  0  0  0  0  0  0  0  0
    3.5243    3.4644   13.5345 C   0  0  0  0  0  0  0  0  0  0  0  0
    4.2251    4.3571   12.7029 C   0  0  0  0  0  0  0  0  0  0  0  0
    3.8537    4.5479   11.4155 C   0  0  0  0  0  0  0  0  0  0  0  0
    2.7903    3.9001   10.8381 C   0  0  0  0  0  0  0  0  0  0  0  0
    2.0901    3.0226   11.6317 C   0  0  0  0  0  0  0  0  0  0  0  0
    2.4618    2.8123   12.9702 C   0  0  0  0  0  0  0  0  0  0  0  0
    1.9100    1.8594   14.2751 S   0  0  0  0  0  0  0  0  0  0  0  0
    3.8484    2.2692   19.2285 C   0  0  0  0  0  0  0  0  0  0  0  0
    5.1612    1.8458   19.8135 C   0  0  0  0  0  0  0  0  0  0  0  0
    5.5939    2.8568   20.8672 C   0  0  0  0  0  0  0  0  0  0  0  0
    3.3846    5.6129   21.9473 N   0  0  0  0  0  0  0  0  0  0  0  0
    4.4935    4.7138   21.8931 C   0  0  0  0  0  0  0  0  0  0  0  0
    5.5720    4.8037   22.8122 N   0  0  0  0  0  0  0  0  0  0  0  0
    4.5123    3.8089   20.9955 N   0  0  0  0  0  0  0  0  0  0  0  0
    2.4162    5.2903   21.7905 H   0  0  0  0  0  0  0  0  0  0  0  0
    3.5424    6.6274   22.1501 H   0  0  0  0  0  0  0  0  0  0  0  0
    6.4506    5.2522   22.5051 H   0  0  0  0  0  0  0  0  0  0  0  0
    5.4865    4.4315   23.7670 H   0  0  0  0  0  0  0  0  0  0  0  0
    4.2609    6.5028   17.3914 C   0  0  0  0  0  0  0  0  0  0  0  0
    3.3254    6.5405   16.2911 N   0  0  0  0  0  0  0  0  0  0  0  0
    3.5146    7.1780   15.0574 C   0  0  0  0  0  0  0  0  0  0  0  0
    4.5750    7.7909   14.8039 O   0  0  0  0  0  0  0  0  0  0  0  0
    2.3821    6.0369   16.4018 H   0  0  0  0  0  0  0  0  0  0  0  0
    2.5326    7.1457   14.0878 O   0  0  0  0  0  0  0  0  0  0  0  0
    1.4004    6.3166   14.2800 C   0  0  0  0  0  0  0  0  0  0  0  0
    0.6361    6.1951   13.0066 C   0  0  0  0  0  0  0  0  0  0  0  0
   -0.4808    5.3682   12.9318 C   0  0  0  0  0  0  0  0  0  0  0  0
   -1.1805    5.2591   11.7604 C   0  0  0  0  0  0  0  0  0  0  0  0
   -0.7720    5.9730   10.6564 C   0  0  0  0  0  0  0  0  0  0  0  0
    0.3190    6.7808   10.7298 C   0  0  0  0  0  0  0  0  0  0  0  0
    1.0374    6.9025   11.9057 C   0  0  0  0  0  0  0  0  0  0  0  0
    3.7573    6.9569   18.6916 C   0  0  0  0  0  0  0  0  0  0  0  0
    4.1186    8.2927   19.1558 C   0  0  0  0  0  0  0  0  0  0  0  0
    3.7426    9.4136   18.4339 C   0  0  0  0  0  0  0  0  0  0  0  0
    4.1154   10.6444   18.9057 C   0  0  0  0  0  0  0  0  0  0  0  0
    4.8560   10.7731   20.0844 C   0  0  0  0  0  0  0  0  0  0  0  0
    5.2319    9.6632   20.8046 C   0  0  0  0  0  0  0  0  0  0  0  0
    4.8480    8.4136   20.3165 C   0  0  0  0  0  0  0  0  0  0  0  0
 20 21  1  0  0  0
 21 22  1  0  0  0
 21 23  2  0  0  0
 23 19  1  0  0  0
 19 18  1  0  0  0
 18 17  1  0  0  0
 17  5  1  0  0  0
  5  1  1  0  0  0
  1  2  1  0  0  0
  2  3  2  0  0  0
  2 28  1  0  0  0
 28 41  1  0  0  0
 41 42  1  0  0  0
 42 43  2  0  0  0
 43 44  1  0  0  0
 44 45  2  0  0  0
 45 46  1  0  0  0
 46 47  2  0  0  0
 28 29  1  0  0  0
 29 30  1  0  0  0
 30 31  2  0  0  0
 30 33  1  0  0  0
 33 34  1  0  0  0
 34 35  1  0  0  0
 35 36  2  0  0  0
 36 37  1  0  0  0
 37 38  2  0  0  0
 38 39  1  0  0  0
 39 40  2  0  0  0
  5  6  1  0  0  0
  6  7  2  0  0  0
  6  8  1  0  0  0
  8  9  2  0  0  0
  9 10  1  0  0  0
 10 11  2  0  0  0
 11 12  1  0  0  0
 12 13  2  0  0  0
 13 14  1  0  0  0
 14 15  2  0  0  0
 15 16  1  0  0  0
 47 42  1  0  0  0
 40 35  1  0  0  0
 16  8  1  0  0  0
 15 10  1  0  0  0
 20 24  1  0  0  0
 20 25  1  0  0  0
 22 26  1  0  0  0
 22 27  1  0  0  0
  1  4  1  0  0  0
 29 32  1  0  0  0
M  END
> <minimizedAffinity>
-7.92663

> <CNNscore>
0.2763282657

> <CNNaffinity>
6.8071465492

> <CNN_VS>
1.8810069561

> <CNNaffinity_variance>
0.1424049735

$$$$
[H]c1c([H])c([H])c(C([H])([H])OC(=O)N([H])[C@]([H])(C(=O)N([H])[C@]([H])(C(=O)c2nc3c([H])c([H])c([H])c([H])c3s2)C([H])([H])C([H])([H])C([H])([H])N=C(N([H])[H])N([H])[H])C([H])([H])c2c([H])c([H])c([H])c([H])c2[H])c([H])c1[H]


 47 50  0  0  0  0  0  0  0  0999 V2000
    5.2165    6.5472   19.7701 N   0  0  0  0  0  0  0  0  0  0  0  0
    5.8895    6.1874   18.5745 C   0  0  0  0  0  0  0  0  0  0  0  0
    7.1140    6.4421   18.4329 O   0  0  0  0  0  0  0  0  0  0  0  0
    4.2183    6.3579   19.9114 H   0  0  0  0  0  0  0  0  0  0  0  0
    5.9607    7.2202   20.8494 C   0  0  0  0  0  0  0  0  0  0  0  0
    6.4448    6.1815   21.7576 C   0  0  0  0  0  0  0  0  0  0  0  0
    7.4453    6.3606   22.4851 O   0  0  0  0  0  0  0  0  0  0  0  0
    5.7490    4.8995   21.8284 C   0  0  0  0  0  0  0  0  0  0  0  0
    6.0064    3.7650   21.2139 N   0  0  0  0  0  0  0  0  0  0  0  0
    5.2605    2.7161   21.4086 C   0  0  0  0  0  0  0  0  0  0  0  0
    5.4346    1.4539   20.8120 C   0  0  0  0  0  0  0  0  0  0  0  0
    4.5941    0.4299   21.0894 C   0  0  0  0  0  0  0  0  0  0  0  0
    3.5337    0.5435   21.9533 C   0  0  0  0  0  0  0  0  0  0  0  0
    3.3436    1.7680   22.5485 C   0  0  0  0  0  0  0  0  0  0  0  0
    4.2064    2.8418   22.2721 C   0  0  0  0  0  0  0  0  0  0  0  0
    4.3508    4.4727   22.7567 S   0  0  0  0  0  0  0  0  0  0  0  0
    5.0266    8.2114   21.5209 C   0  0  0  0  0  0  0  0  0  0  0  0
    5.4365    9.6091   21.1696 C   0  0  0  0  0  0  0  0  0  0  0  0
    6.6573    9.9990   21.9925 C   0  0  0  0  0  0  0  0  0  0  0  0
    6.6854    9.0454   25.5610 N   0  0  0  0  0  0  0  0  0  0  0  0
    7.1105    9.2302   24.2096 C   0  0  0  0  0  0  0  0  0  0  0  0
    8.3985    8.8245   23.7710 N   0  0  0  0  0  0  0  0  0  0  0  0
    6.3107    9.7735   23.3788 N   0  0  0  0  0  0  0  0  0  0  0  0
    5.7243    8.7460   25.7914 H   0  0  0  0  0  0  0  0  0  0  0  0
    7.3542    9.2141   26.3480 H   0  0  0  0  0  0  0  0  0  0  0  0
    9.1360    9.5403   23.6659 H   0  0  0  0  0  0  0  0  0  0  0  0
    8.5998    7.8383   23.5603 H   0  0  0  0  0  0  0  0  0  0  0  0
    5.0657    5.5005   17.5138 C   0  0  0  0  0  0  0  0  0  0  0  0
    5.1321    6.3369   16.3376 N   0  0  0  0  0  0  0  0  0  0  0  0
    4.5799    7.6168   16.1926 C   0  0  0  0  0  0  0  0  0  0  0  0
    3.9585    8.1615   17.1315 O   0  0  0  0  0  0  0  0  0  0  0  0
    5.6516    5.9660   15.4727 H   0  0  0  0  0  0  0  0  0  0  0  0
    4.7080    8.3109   15.0063 O   0  0  0  0  0  0  0  0  0  0  0  0
    3.5574    8.5373   14.2118 C   0  0  0  0  0  0  0  0  0  0  0  0
    3.0508    7.2450   13.6695 C   0  0  0  0  0  0  0  0  0  0  0  0
    3.8682    6.4455   12.8762 C   0  0  0  0  0  0  0  0  0  0  0  0
    3.3995    5.2591   12.3797 C   0  0  0  0  0  0  0  0  0  0  0  0
    2.1139    4.8618   12.6706 C   0  0  0  0  0  0  0  0  0  0  0  0
    1.3157    5.6429   13.4457 C   0  0  0  0  0  0  0  0  0  0  0  0
    1.7736    6.8448   13.9553 C   0  0  0  0  0  0  0  0  0  0  0  0
    5.5554    4.1263   17.3654 C   0  0  0  0  0  0  0  0  0  0  0  0
    4.6466    3.1106   16.8428 C   0  0  0  0  0  0  0  0  0  0  0  0
    3.9676    3.3195   15.6536 C   0  0  0  0  0  0  0  0  0  0  0  0
    3.1177    2.3406   15.2110 C   0  0  0  0  0  0  0  0  0  0  0  0
    2.9359    1.1590   15.9357 C   0  0  0  0  0  0  0  0  0  0  0  0
    3.6076    0.9470   17.1171 C   0  0  0  0  0  0  0  0  0  0  0  0
    4.4710    1.9496   17.5604 C   0  0  0  0  0  0  0  0  0  0  0  0
 20 21  1  0  0  0
 21 22  1  0  0  0
 21 23  2  0  0  0
 23 19  1  0  0  0
 19 18  1  0  0  0
 18 17  1  0  0  0
 17  5  1  0  0  0
  5  1  1  0  0  0
  1  2  1  0  0  0
  2  3  2  0  0  0
  2 28  1  0  0  0
 28 41  1  0  0  0
 41 42  1  0  0  0
 42 43  2  0  0  0
 43 44  1  0  0  0
 44 45  2  0  0  0
 45 46  1  0  0  0
 46 47  2  0  0  0
 28 29  1  0  0  0
 29 30  1  0  0  0
 30 31  2  0  0  0
 30 33  1  0  0  0
 33 34  1  0  0  0
 34 35  1  0  0  0
 35 36  2  0  0  0
 36 37  1  0  0  0
 37 38  2  0  0  0
 38 39  1  0  0  0
 39 40  2  0  0  0
  5  6  1  0  0  0
  6  7  2  0  0  0
  6  8  1  0  0  0
  8  9  2  0  0  0
  9 10  1  0  0  0
 10 11  2  0  0  0
 11 12  1  0  0  0
 12 13  2  0  0  0
 13 14  1  0  0  0
 14 15  2  0  0  0
 15 16  1  0  0  0
 47 42  1  0  0  0
 40 35  1  0  0  0
 16  8  1  0  0  0
 15 10  1  0  0  0
 20 24  1  0  0  0
 20 25  1  0  0  0
 22 26  1  0  0  0
 22 27  1  0  0  0
  1  4  1  0  0  0
 29 32  1  0  0  0
M  END
> <minimizedAffinity>
-9.25339

> <CNNscore>
0.2665866911

> <CNNaffinity>
6.7273697853

> <CNN_VS>
1.7934272289

> <CNNaffinity_variance>
0.4291567206

$$$$
[H]c1c([H])c([H])c(C([H])([H])OC(=O)N([H])[C@]([H])(C(=O)N([H])[C@]([H])(C(=O)c2nc3c([H])c([H])c([H])c([H])c3s2)C([H])([H])C([H])([H])C([H])([H])N=C(N([H])[H])N([H])[H])C([H])([H])c2c([H])c([H])c([H])c([H])c2[H])c([H])c1[H]


 47 50  0  0  0  0  0  0  0  0999 V2000
    4.4776    5.2707   18.6133 N   0  0  0  0  0  0  0  0  0  0  0  0
    3.4911    5.7001   17.6889 C   0  0  0  0  0  0  0  0  0  0  0  0
    2.3377    5.1967   17.7105 O   0  0  0  0  0  0  0  0  0  0  0  0
    5.4272    5.6583   18.6157 H   0  0  0  0  0  0  0  0  0  0  0  0
    4.1435    4.2313   19.6031 C   0  0  0  0  0  0  0  0  0  0  0  0
    4.3625    4.8067   20.9293 C   0  0  0  0  0  0  0  0  0  0  0  0
    3.8870    4.2813   21.9590 O   0  0  0  0  0  0  0  0  0  0  0  0
    5.1577    6.0237   21.0685 C   0  0  0  0  0  0  0  0  0  0  0  0
    4.7824    7.2844   21.0403 N   0  0  0  0  0  0  0  0  0  0  0  0
    5.6511    8.2430   21.1847 C   0  0  0  0  0  0  0  0  0  0  0  0
    5.3723    9.6220   21.1727 C   0  0  0  0  0  0  0  0  0  0  0  0
    6.3592   10.5341   21.3333 C   0  0  0  0  0  0  0  0  0  0  0  0
    7.6754   10.1902   21.5155 C   0  0  0  0  0  0  0  0  0  0  0  0
    7.9721    8.8480   21.5307 C   0  0  0  0  0  0  0  0  0  0  0  0
    6.9600    7.8875   21.3657 C   0  0  0  0  0  0  0  0  0  0  0  0
    6.8640    6.1834   21.3172 S   0  0  0  0  0  0  0  0  0  0  0  0
    5.0152    3.0188   19.3278 C   0  0  0  0  0  0  0  0  0  0  0  0
    4.3613    2.1506   18.2965 C   0  0  0  0  0  0  0  0  0  0  0  0
    3.7239    0.9478   18.9796 C   0  0  0  0  0  0  0  0  0  0  0  0
    3.3917    0.7405   22.6525 N   0  0  0  0  0  0  0  0  0  0  0  0
    3.3659    0.3742   21.2719 C   0  0  0  0  0  0  0  0  0  0  0  0
    2.9572   -0.9188   20.8510 N   0  0  0  0  0  0  0  0  0  0  0  0
    3.7194    1.2322   20.3980 N   0  0  0  0  0  0  0  0  0  0  0  0
    3.0875    1.6743   22.9720 H   0  0  0  0  0  0  0  0  0  0  0  0
    3.7249    0.0553   23.3700 H   0  0  0  0  0  0  0  0  0  0  0  0
    3.6812   -1.6100   20.5952 H   0  0  0  0  0  0  0  0  0  0  0  0
    1.9610   -1.1687   20.7996 H   0  0  0  0  0  0  0  0  0  0  0  0
    3.9028    6.7678   16.7060 C   0  0  0  0  0  0  0  0  0  0  0  0
    2.9601    6.7042   15.6130 N   0  0  0  0  0  0  0  0  0  0  0  0
    3.1639    7.1728   14.3080 C   0  0  0  0  0  0  0  0  0  0  0  0
    4.2456    7.7054   13.9754 O   0  0  0  0  0  0  0  0  0  0  0  0
    1.9986    6.2571   15.7897 H   0  0  0  0  0  0  0  0  0  0  0  0
    2.1731    7.0581   13.3536 O   0  0  0  0  0  0  0  0  0  0  0  0
    0.8374    7.3721   13.7049 C   0  0  0  0  0  0  0  0  0  0  0  0
   -0.1018    6.7969   12.7010 C   0  0  0  0  0  0  0  0  0  0  0  0
   -1.3644    6.3579   13.0883 C   0  0  0  0  0  0  0  0  0  0  0  0
   -2.2244    5.8302   12.1635 C   0  0  0  0  0  0  0  0  0  0  0  0
   -1.8321    5.7365   10.8471 C   0  0  0  0  0  0  0  0  0  0  0  0
   -0.5988    6.1655   10.4690 C   0  0  0  0  0  0  0  0  0  0  0  0
    0.2826    6.7013   11.3909 C   0  0  0  0  0  0  0  0  0  0  0  0
    3.9884    8.0458   17.4199 C   0  0  0  0  0  0  0  0  0  0  0  0
    5.2859    8.7068   17.5212 C   0  0  0  0  0  0  0  0  0  0  0  0
    6.4461    7.9619   17.6549 C   0  0  0  0  0  0  0  0  0  0  0  0
    7.6378    8.6295   17.7572 C   0  0  0  0  0  0  0  0  0  0  0  0
    7.6889   10.0263   17.7280 C   0  0  0  0  0  0  0  0  0  0  0  0
    6.5397   10.7704   17.5956 C   0  0  0  0  0  0  0  0  0  0  0  0
    5.3303   10.0819   17.4923 C   0  0  0  0  0  0  0  0  0  0  0  0
 20 21  1  0  0  0
 21 22  1  0  0  0
 21 23  2  0  0  0
 23 19  1  0  0  0
 19 18  1  0  0  0
 18 17  1  0  0  0
 17  5  1  0  0  0
  5  1  1  0  0  0
  1  2  1  0  0  0
  2  3  2  0  0  0
  2 28  1  0  0  0
 28 41  1  0  0  0
 41 42  1  0  0  0
 42 43  2  0  0  0
 43 44  1  0  0  0
 44 45  2  0  0  0
 45 46  1  0  0  0
 46 47  2  0  0  0
 28 29  1  0  0  0
 29 30  1  0  0  0
 30 31  2  0  0  0
 30 33  1  0  0  0
 33 34  1  0  0  0
 34 35  1  0  0  0
 35 36  2  0  0  0
 36 37  1  0  0  0
 37 38  2  0  0  0
 38 39  1  0  0  0
 39 40  2  0  0  0
  5  6  1  0  0  0
  6  7  2  0  0  0
  6  8  1  0  0  0
  8  9  2  0  0  0
  9 10  1  0  0  0
 10 11  2  0  0  0
 11 12  1  0  0  0
 12 13  2  0  0  0
 13 14  1  0  0  0
 14 15  2  0  0  0
 15 16  1  0  0  0
 47 42  1  0  0  0
 40 35  1  0  0  0
 16  8  1  0  0  0
 15 10  1  0  0  0
 20 24  1  0  0  0
 20 25  1  0  0  0
 22 26  1  0  0  0
 22 27  1  0  0  0
  1  4  1  0  0  0
 29 32  1  0  0  0
M  END
> <minimizedAffinity>
-7.83324

> <CNNscore>
0.2537648082

> <CNNaffinity>
6.7202239037

> <CNN_VS>
1.7053563595

> <CNNaffinity_variance>
0.4834468961

$$$$
[H]c1c([H])c([H])c(C([H])([H])OC(=O)N([H])[C@]([H])(C(=O)N([H])[C@]([H])(C(=O)c2nc3c([H])c([H])c([H])c([H])c3s2)C([H])([H])C([H])([H])C([H])([H])N=C(N([H])[H])N([H])[H])C([H])([H])c2c([H])c([H])c([H])c([H])c2[H])c([H])c1[H]


 47 50  0  0  0  0  0  0  0  0999 V2000
    4.7259    4.9677   19.4628 N   0  0  0  0  0  0  0  0  0  0  0  0
    3.8414    4.9724   18.3540 C   0  0  0  0  0  0  0  0  0  0  0  0
    2.7928    4.2766   18.3742 O   0  0  0  0  0  0  0  0  0  0  0  0
    5.5904    5.5197   19.4723 H   0  0  0  0  0  0  0  0  0  0  0  0
    4.4087    4.1437   20.6428 C   0  0  0  0  0  0  0  0  0  0  0  0
    4.7326    4.9371   21.8275 C   0  0  0  0  0  0  0  0  0  0  0  0
    4.0566    4.8566   22.8758 O   0  0  0  0  0  0  0  0  0  0  0  0
    5.8741    5.8477   21.7996 C   0  0  0  0  0  0  0  0  0  0  0  0
    7.1631    5.5843   21.7883 N   0  0  0  0  0  0  0  0  0  0  0  0
    8.0407    6.5454   21.7628 C   0  0  0  0  0  0  0  0  0  0  0  0
    9.4389    6.3899   21.7486 C   0  0  0  0  0  0  0  0  0  0  0  0
   10.2596    7.4658   21.7219 C   0  0  0  0  0  0  0  0  0  0  0  0
    9.8002    8.7590   21.7072 C   0  0  0  0  0  0  0  0  0  0  0  0
    8.4369    8.9358   21.7208 C   0  0  0  0  0  0  0  0  0  0  0  0
    7.5702    7.8303   21.7484 C   0  0  0  0  0  0  0  0  0  0  0  0
    5.8815    7.5792   21.7724 S   0  0  0  0  0  0  0  0  0  0  0  0
    5.2094    2.8568   20.5497 C   0  0  0  0  0  0  0  0  0  0  0  0
    4.4991    1.7657   21.2912 C   0  0  0  0  0  0  0  0  0  0  0  0
    3.8678    0.8046   20.2925 C   0  0  0  0  0  0  0  0  0  0  0  0
    3.7455    1.5831   16.6838 N   0  0  0  0  0  0  0  0  0  0  0  0
    3.4635    0.9695   17.9428 C   0  0  0  0  0  0  0  0  0  0  0  0
    2.5056   -0.0711   18.0672 N   0  0  0  0  0  0  0  0  0  0  0  0
    4.0895    1.3687   18.9790 N   0  0  0  0  0  0  0  0  0  0  0  0
    4.7079    1.8339   16.4057 H   0  0  0  0  0  0  0  0  0  0  0  0
    2.9667    1.7897   16.0158 H   0  0  0  0  0  0  0  0  0  0  0  0
    1.5680    0.1580   18.4357 H   0  0  0  0  0  0  0  0  0  0  0  0
    2.7346   -1.0367   17.7973 H   0  0  0  0  0  0  0  0  0  0  0  0
    4.2288    5.8397   17.1821 C   0  0  0  0  0  0  0  0  0  0  0  0
    3.0061    6.1427   16.4745 N   0  0  0  0  0  0  0  0  0  0  0  0
    2.5621    5.5487   15.2853 C   0  0  0  0  0  0  0  0  0  0  0  0
    3.2309    4.6545   14.7219 O   0  0  0  0  0  0  0  0  0  0  0  0
    2.3519    6.8941   16.8784 H   0  0  0  0  0  0  0  0  0  0  0  0
    1.3718    5.9368   14.7036 O   0  0  0  0  0  0  0  0  0  0  0  0
    0.9886    5.3618   13.4672 C   0  0  0  0  0  0  0  0  0  0  0  0
   -0.4262    5.7135   13.1588 C   0  0  0  0  0  0  0  0  0  0  0  0
   -1.1100    5.0545   12.1415 C   0  0  0  0  0  0  0  0  0  0  0  0
   -2.4096    5.3802   11.8610 C   0  0  0  0  0  0  0  0  0  0  0  0
   -3.0360    6.3642   12.5922 C   0  0  0  0  0  0  0  0  0  0  0  0
   -2.3679    7.0077   13.5860 C   0  0  0  0  0  0  0  0  0  0  0  0
   -1.0543    6.6909   13.8824 C   0  0  0  0  0  0  0  0  0  0  0  0
    4.9913    6.9860   17.6870 C   0  0  0  0  0  0  0  0  0  0  0  0
    4.3583    8.3013   17.6933 C   0  0  0  0  0  0  0  0  0  0  0  0
    4.3823    9.0986   16.5608 C   0  0  0  0  0  0  0  0  0  0  0  0
    3.7836   10.3292   16.6208 C   0  0  0  0  0  0  0  0  0  0  0  0
    3.1627   10.7749   17.7914 C   0  0  0  0  0  0  0  0  0  0  0  0
    3.1364    9.9870   18.9185 C   0  0  0  0  0  0  0  0  0  0  0  0
    3.7488    8.7352   18.8483 C   0  0  0  0  0  0  0  0  0  0  0  0
 20 21  1  0  0  0
 21 22  1  0  0  0
 21 23  2  0  0  0
 23 19  1  0  0  0
 19 18  1  0  0  0
 18 17  1  0  0  0
 17  5  1  0  0  0
  5  1  1  0  0  0
  1  2  1  0  0  0
  2  3  2  0  0  0
  2 28  1  0  0  0
 28 41  1  0  0  0
 41 42  1  0  0  0
 42 43  2  0  0  0
 43 44  1  0  0  0
 44 45  2  0  0  0
 45 46  1  0  0  0
 46 47  2  0  0  0
 28 29  1  0  0  0
 29 30  1  0  0  0
 30 31  2  0  0  0
 30 33  1  0  0  0
 33 34  1  0  0  0
 34 35  1  0  0  0
 35 36  2  0  0  0
 36 37  1  0  0  0
 37 38  2  0  0  0
 38 39  1  0  0  0
 39 40  2  0  0  0
  5  6  1  0  0  0
  6  7  2  0  0  0
  6  8  1  0  0  0
  8  9  2  0  0  0
  9 10  1  0  0  0
 10 11  2  0  0  0
 11 12  1  0  0  0
 12 13  2  0  0  0
 13 14  1  0  0  0
 14 15  2  0  0  0
 15 16  1  0  0  0
 47 42  1  0  0  0
 40 35  1  0  0  0
 16  8  1  0  0  0
 15 10  1  0  0  0
 20 24  1  0  0  0
 20 25  1  0  0  0
 22 26  1  0  0  0
 22 27  1  0  0  0
  1  4  1  0  0  0
 29 32  1  0  0  0
M  END
> <minimizedAffinity>
-8.04337

> <CNNscore>
0.2481844574

> <CNNaffinity>
6.6361894608

> <CNN_VS>
1.6469991207

> <CNNaffinity_variance>
0.6704703569

$$$$
[H]c1c([H])c([H])c(C([H])([H])OC(=O)N([H])[C@]([H])(C(=O)N([H])[C@]([H])(C(=O)c2nc3c([H])c([H])c([H])c([H])c3s2)C([H])([H])C([H])([H])C([H])([H])N=C(N([H])[H])N([H])[H])C([H])([H])c2c([H])c([H])c([H])c([H])c2[H])c([H])c1[H]


 47 50  0  0  0  0  0  0  0  0999 V2000
    4.2742    5.5839   17.1219 N   0  0  0  0  0  0  0  0  0  0  0  0
    3.2774    4.5856   16.9741 C   0  0  0  0  0  0  0  0  0  0  0  0
    2.0727    4.8479   17.2271 O   0  0  0  0  0  0  0  0  0  0  0  0
    5.2643    5.3977   16.9289 H   0  0  0  0  0  0  0  0  0  0  0  0
    3.8907    6.9338   17.5720 C   0  0  0  0  0  0  0  0  0  0  0  0
    4.2871    7.8715   16.5224 C   0  0  0  0  0  0  0  0  0  0  0  0
    5.0441    8.8378   16.7580 O   0  0  0  0  0  0  0  0  0  0  0  0
    3.7959    7.6837   15.1600 C   0  0  0  0  0  0  0  0  0  0  0  0
    2.6822    7.1276   14.7340 N   0  0  0  0  0  0  0  0  0  0  0  0
    2.4176    7.0526   13.4617 C   0  0  0  0  0  0  0  0  0  0  0  0
    1.2658    6.4841   12.8875 C   0  0  0  0  0  0  0  0  0  0  0  0
    1.0949    6.4613   11.5451 C   0  0  0  0  0  0  0  0  0  0  0  0
    2.0110    6.9787   10.6638 C   0  0  0  0  0  0  0  0  0  0  0  0
    3.1449    7.5396   11.2019 C   0  0  0  0  0  0  0  0  0  0  0  0
    3.3386    7.5721   12.5931 C   0  0  0  0  0  0  0  0  0  0  0  0
    4.5396    8.1419   13.6648 S   0  0  0  0  0  0  0  0  0  0  0  0
    4.5756    7.2014   18.9006 C   0  0  0  0  0  0  0  0  0  0  0  0
    5.3478    5.9891   19.3236 C   0  0  0  0  0  0  0  0  0  0  0  0
    6.4559    6.4053   20.2819 C   0  0  0  0  0  0  0  0  0  0  0  0
    5.5990    9.1186   22.6372 N   0  0  0  0  0  0  0  0  0  0  0  0
    6.0247    7.8503   22.1361 C   0  0  0  0  0  0  0  0  0  0  0  0
    6.4299    6.8030   23.0050 N   0  0  0  0  0  0  0  0  0  0  0  0
    6.0401    7.6570   20.8762 N   0  0  0  0  0  0  0  0  0  0  0  0
    4.8027    9.6273   22.2204 H   0  0  0  0  0  0  0  0  0  0  0  0
    6.0973    9.5557   23.4471 H   0  0  0  0  0  0  0  0  0  0  0  0
    7.4397    6.6274   23.1345 H   0  0  0  0  0  0  0  0  0  0  0  0
    5.7361    6.2266   23.4991 H   0  0  0  0  0  0  0  0  0  0  0  0
    3.7420    3.2281   16.5085 C   0  0  0  0  0  0  0  0  0  0  0  0
    4.0620    2.4740   17.6985 N   0  0  0  0  0  0  0  0  0  0  0  0
    3.7027    1.1459   17.9656 C   0  0  0  0  0  0  0  0  0  0  0  0
    3.0453    0.4766   17.1385 O   0  0  0  0  0  0  0  0  0  0  0  0
    4.6326    2.9543   18.4727 H   0  0  0  0  0  0  0  0  0  0  0  0
    4.0663    0.5409   19.1520 O   0  0  0  0  0  0  0  0  0  0  0  0
    3.3184    0.8144   20.3233 C   0  0  0  0  0  0  0  0  0  0  0  0
    4.2163    1.3420   21.3891 C   0  0  0  0  0  0  0  0  0  0  0  0
    3.7045    1.6764   22.6394 C   0  0  0  0  0  0  0  0  0  0  0  0
    4.5322    2.1607   23.6160 C   0  0  0  0  0  0  0  0  0  0  0  0
    5.8748    2.3149   23.3534 C   0  0  0  0  0  0  0  0  0  0  0  0
    6.3746    1.9881   22.1321 C   0  0  0  0  0  0  0  0  0  0  0  0
    5.5520    1.4974   21.1339 C   0  0  0  0  0  0  0  0  0  0  0  0
    2.7103    2.6606   15.6345 C   0  0  0  0  0  0  0  0  0  0  0  0
    2.8383    2.8387   14.1914 C   0  0  0  0  0  0  0  0  0  0  0  0
    3.7698    3.7224   13.6717 C   0  0  0  0  0  0  0  0  0  0  0  0
    3.8435    3.8619   12.3110 C   0  0  0  0  0  0  0  0  0  0  0  0
    3.0033    3.1342   11.4631 C   0  0  0  0  0  0  0  0  0  0  0  0
    2.0766    2.2557   11.9742 C   0  0  0  0  0  0  0  0  0  0  0  0
    2.0085    2.1201   13.3613 C   0  0  0  0  0  0  0  0  0  0  0  0
 20 21  1  0  0  0
 21 22  1  0  0  0
 21 23  2  0  0  0
 23 19  1  0  0  0
 19 18  1  0  0  0
 18 17  1  0  0  0
 17  5  1  0  0  0
  5  1  1  0  0  0
  1  2  1  0  0  0
  2  3  2  0  0  0
  2 28  1  0  0  0
 28 41  1  0  0  0
 41 42  1  0  0  0
 42 43  2  0  0  0
 43 44  1  0  0  0
 44 45  2  0  0  0
 45 46  1  0  0  0
 46 47  2  0  0  0
 28 29  1  0  0  0
 29 30  1  0  0  0
 30 31  2  0  0  0
 30 33  1  0  0  0
 33 34  1  0  0  0
 34 35  1  0  0  0
 35 36  2  0  0  0
 36 37  1  0  0  0
 37 38  2  0  0  0
 38 39  1  0  0  0
 39 40  2  0  0  0
  5  6  1  0  0  0
  6  7  2  0  0  0
  6  8  1  0  0  0
  8  9  2  0  0  0
  9 10  1  0  0  0
 10 11  2  0  0  0
 11 12  1  0  0  0
 12 13  2  0  0  0
 13 14  1  0  0  0
 14 15  2  0  0  0
 15 16  1  0  0  0
 47 42  1  0  0  0
 40 35  1  0  0  0
 16  8  1  0  0  0
 15 10  1  0  0  0
 20 24  1  0  0  0
 20 25  1  0  0  0
 22 26  1  0  0  0
 22 27  1  0  0  0
  1  4  1  0  0  0
 29 32  1  0  0  0
M  END
> <minimizedAffinity>
-8.15931

> <CNNscore>
0.2432384640

> <CNNaffinity>
6.8190298080

> <CNN_VS>
1.6586502790

> <CNNaffinity_variance>
0.2771570086

$$$$
[H]OC1(C(F)(F)F)c2c([H])c([H])c([H])c([H])c2-c2c(-c3c([H])nn(C([H])(C([H])([H])[H])C([H])([H])[H])c3[H])c([H])c(OC([H])([H])[H])c([H])c21


 29 32  0  0  0  0  0  0  0  0999 V2000
    2.8557    0.8552   16.7321 C   0  0  0  0  0  0  0  0  0  0  0  0
    3.3402    1.9252   17.4376 C   0  0  0  0  0  0  0  0  0  0  0  0
    3.5187    3.1992   16.9123 C   0  0  0  0  0  0  0  0  0  0  0  0
    3.1720    3.3840   15.5625 C   0  0  0  0  0  0  0  0  0  0  0  0
    3.4494    4.7968   15.1959 C   0  0  0  0  0  0  0  0  0  0  0  0
    3.3122    5.5014   14.0210 C   0  0  0  0  0  0  0  0  0  0  0  0
    3.6695    6.8254   13.9756 C   0  0  0  0  0  0  0  0  0  0  0  0
    4.1639    7.4551   15.0923 C   0  0  0  0  0  0  0  0  0  0  0  0
    4.3003    6.7511   16.2605 C   0  0  0  0  0  0  0  0  0  0  0  0
    3.9469    5.4137   16.3337 C   0  0  0  0  0  0  0  0  0  0  0  0
    4.0093    4.4621   17.4551 C   0  0  0  0  0  0  0  0  0  0  0  0
    3.1787    4.9556   18.4596 O   0  0  0  0  0  0  0  0  0  0  0  0
    2.6825    2.3403   14.8249 C   0  0  0  0  0  0  0  0  0  0  0  0
    2.5297    1.0721   15.4267 C   0  0  0  0  0  0  0  0  0  0  0  0
    3.7378    5.5210   19.0595 H   0  0  0  0  0  0  0  0  0  0  0  0
    2.2479    2.4800   13.4458 C   0  0  0  0  0  0  0  0  0  0  0  0
    0.9779    2.9073   13.0441 C   0  0  0  0  0  0  0  0  0  0  0  0
    0.9314    2.9908   11.7235 N   0  0  0  0  0  0  0  0  0  0  0  0
    2.1144    2.6367   11.2520 N   0  0  0  0  0  0  0  0  0  0  0  0
    2.9459    2.3184   12.2580 C   0  0  0  0  0  0  0  0  0  0  0  0
    2.3968    2.6208    9.8196 C   0  0  0  0  0  0  0  0  0  0  0  0
    1.1565    2.9375    9.0063 C   0  0  0  0  0  0  0  0  0  0  0  0
    2.9771    1.2875    9.4143 C   0  0  0  0  0  0  0  0  0  0  0  0
    5.3840    4.2951   18.0071 C   0  0  0  0  0  0  0  0  0  0  0  0
    6.2492    3.9872   16.9836 F   0  0  0  0  0  0  0  0  0  0  0  0
    5.4752    3.2775   18.9351 F   0  0  0  0  0  0  0  0  0  0  0  0
    5.8490    5.4571   18.5998 F   0  0  0  0  0  0  0  0  0  0  0  0
    2.4521   -0.4443   18.7376 C   0  0  0  0  0  0  0  0  0  0  0  0
    2.7028   -0.4123   17.3341 O   0  0  0  0  0  0  0  0  0  0  0  0
 28 29  1  0  0  0
 29  1  1  0  0  0
  1  2  2  0  0  0
  2  3  1  0  0  0
  3  4  2  0  0  0
  4  5  1  0  0  0
  5  6  2  0  0  0
  6  7  1  0  0  0
  7  8  2  0  0  0
  8  9  1  0  0  0
  9 10  2  0  0  0
 10 11  1  0  0  0
 11 12  1  0  0  0
 11 24  1  0  0  0
 24 25  1  0  0  0
 24 26  1  0  0  0
 24 27  1  0  0  0
  4 13  1  0  0  0
 13 14  2  0  0  0
 13 16  1  0  0  0
 16 17  1  0  0  0
 17 18  2  0  0  0
 18 19  1  0  0  0
 19 20  1  0  0  0
 19 21  1  0  0  0
 21 22  1  0  0  0
 21 23  1  0  0  0
 14  1  1  0  0  0
 20 16  2  0  0  0
 11  3  1  0  0  0
 10  5  1  0  0  0
 12 15  1  0  0  0
M  END
> <minimizedAffinity>
-7.37014

> <CNNscore>
0.5241640210

> <CNNaffinity>
5.8471322060

> <CNN_VS>
3.0648562908

> <CNNaffinity_variance>
0.2994078696

$$$$
[H]OC1(C(F)(F)F)c2c([H])c([H])c([H])c([H])c2-c2c(-c3c([H])nn(C([H])(C([H])([H])[H])C([H])([H])[H])c3[H])c([H])c(OC([H])([H])[H])c([H])c21


 29 32  0  0  0  0  0  0  0  0999 V2000
    4.0799    4.5652   10.3650 C   0  0  0  0  0  0  0  0  0  0  0  0
    3.8975    5.2425   11.5421 C   0  0  0  0  0  0  0  0  0  0  0  0
    2.6583    5.5773   12.0741 C   0  0  0  0  0  0  0  0  0  0  0  0
    1.5251    5.1851   11.3403 C   0  0  0  0  0  0  0  0  0  0  0  0
    0.3134    5.6473   12.0654 C   0  0  0  0  0  0  0  0  0  0  0  0
   -1.0326    5.5490   11.7932 C   0  0  0  0  0  0  0  0  0  0  0  0
   -1.9443    6.0953   12.6610 C   0  0  0  0  0  0  0  0  0  0  0  0
   -1.5262    6.7406   13.7998 C   0  0  0  0  0  0  0  0  0  0  0  0
   -0.1855    6.8378   14.0680 C   0  0  0  0  0  0  0  0  0  0  0  0
    0.7558    6.2950   13.2088 C   0  0  0  0  0  0  0  0  0  0  0  0
    2.2262    6.2798   13.2783 C   0  0  0  0  0  0  0  0  0  0  0  0
    2.5757    5.5903   14.4379 O   0  0  0  0  0  0  0  0  0  0  0  0
    1.6659    4.5051   10.1610 C   0  0  0  0  0  0  0  0  0  0  0  0
    2.9586    4.2008    9.6815 C   0  0  0  0  0  0  0  0  0  0  0  0
    2.6635    6.2604   15.1696 H   0  0  0  0  0  0  0  0  0  0  0  0
    0.5366    4.0178    9.3879 C   0  0  0  0  0  0  0  0  0  0  0  0
   -0.1404    2.8170    9.6260 C   0  0  0  0  0  0  0  0  0  0  0  0
   -1.1602    2.7054    8.7889 N   0  0  0  0  0  0  0  0  0  0  0  0
   -1.1739    3.7801    8.0195 N   0  0  0  0  0  0  0  0  0  0  0  0
   -0.1646    4.6047    8.3449 C   0  0  0  0  0  0  0  0  0  0  0  0
   -2.1829    3.9683    6.9811 C   0  0  0  0  0  0  0  0  0  0  0  0
   -1.6246    3.6652    5.6039 C   0  0  0  0  0  0  0  0  0  0  0  0
   -2.7379    5.3710    7.0373 C   0  0  0  0  0  0  0  0  0  0  0  0
    2.8252    7.6440   13.3311 C   0  0  0  0  0  0  0  0  0  0  0  0
    2.4501    8.2588   14.5024 F   0  0  0  0  0  0  0  0  0  0  0  0
    2.4117    8.4575   12.2956 F   0  0  0  0  0  0  0  0  0  0  0  0
    4.2093    7.6029   13.3159 F   0  0  0  0  0  0  0  0  0  0  0  0
    5.4804    3.8020    8.5403 C   0  0  0  0  0  0  0  0  0  0  0  0
    5.3723    4.2610    9.8861 O   0  0  0  0  0  0  0  0  0  0  0  0
 28 29  1  0  0  0
 29  1  1  0  0  0
  1  2  2  0  0  0
  2  3  1  0  0  0
  3  4  2  0  0  0
  4  5  1  0  0  0
  5  6  2  0  0  0
  6  7  1  0  0  0
  7  8  2  0  0  0
  8  9  1  0  0  0
  9 10  2  0  0  0
 10 11  1  0  0  0
 11 12  1  0  0  0
 11 24  1  0  0  0
 24 25  1  0  0  0
 24 26  1  0  0  0
 24 27  1  0  0  0
  4 13  1  0  0  0
 13 14  2  0  0  0
 13 16  1  0  0  0
 16 17  1  0  0  0
 17 18  2  0  0  0
 18 19  1  0  0  0
 19 20  1  0  0  0
 19 21  1  0  0  0
 21 22  1  0  0  0
 21 23  1  0  0  0
 14  1  1  0  0  0
 20 16  2  0  0  0
 11  3  1  0  0  0
 10  5  1  0  0  0
 12 15  1  0  0  0
M  END
> <minimizedAffinity>
-4.52364

> <CNNscore>
0.4655741751

> <CNNaffinity>
5.2696661949

> <CNN_VS>
2.4534204006

> <CNNaffinity_variance>
0.8427407146

$$$$
[H]OC1(C(F)(F)F)c2c([H])c([H])c([H])c([H])c2-c2c(-c3c([H])nn(C([H])(C([H])([H])[H])C([H])([H])[H])c3[H])c([H])c(OC([H])([H])[H])c([H])c21


 29 32  0  0  0  0  0  0  0  0999 V2000
    5.0844    3.2215    8.8239 C   0  0  0  0  0  0  0  0  0  0  0  0
    5.9157    3.9257    7.9929 C   0  0  0  0  0  0  0  0  0  0  0  0
    5.7459    5.2636    7.6582 C   0  0  0  0  0  0  0  0  0  0  0  0
    4.6398    5.9237    8.2212 C   0  0  0  0  0  0  0  0  0  0  0  0
    4.6307    7.3261    7.7307 C   0  0  0  0  0  0  0  0  0  0  0  0
    3.7799    8.3865    7.9484 C   0  0  0  0  0  0  0  0  0  0  0  0
    4.0219    9.5902    7.3359 C   0  0  0  0  0  0  0  0  0  0  0  0
    5.1058    9.7474    6.5061 C   0  0  0  0  0  0  0  0  0  0  0  0
    5.9508    8.6898    6.2904 C   0  0  0  0  0  0  0  0  0  0  0  0
    5.7296    7.4640    6.8965 C   0  0  0  0  0  0  0  0  0  0  0  0
    6.4801    6.2003    6.8133 C   0  0  0  0  0  0  0  0  0  0  0  0
    7.7610    6.4500    7.3024 O   0  0  0  0  0  0  0  0  0  0  0  0
    3.7875    5.2553    9.0577 C   0  0  0  0  0  0  0  0  0  0  0  0
    4.0231    3.8944    9.3514 C   0  0  0  0  0  0  0  0  0  0  0  0
    8.3325    6.7061    6.5279 H   0  0  0  0  0  0  0  0  0  0  0  0
    2.6639    5.8950    9.7202 C   0  0  0  0  0  0  0  0  0  0  0  0
    1.3372    5.8425    9.2801 C   0  0  0  0  0  0  0  0  0  0  0  0
    0.5543    6.4689   10.1450 N   0  0  0  0  0  0  0  0  0  0  0  0
    1.3148    6.9247   11.1254 N   0  0  0  0  0  0  0  0  0  0  0  0
    2.6012    6.6015   10.9122 C   0  0  0  0  0  0  0  0  0  0  0  0
    0.7542    7.6686   12.2497 C   0  0  0  0  0  0  0  0  0  0  0  0
    1.7887    7.8960   13.3352 C   0  0  0  0  0  0  0  0  0  0  0  0
   -0.4537    6.9516   12.8027 C   0  0  0  0  0  0  0  0  0  0  0  0
    6.5906    5.6740    5.4228 C   0  0  0  0  0  0  0  0  0  0  0  0
    5.3304    5.4393    4.9253 F   0  0  0  0  0  0  0  0  0  0  0  0
    7.2845    4.4833    5.3479 F   0  0  0  0  0  0  0  0  0  0  0  0
    7.2034    6.5800    4.5734 F   0  0  0  0  0  0  0  0  0  0  0  0
    5.7923    1.0348    8.0553 C   0  0  0  0  0  0  0  0  0  0  0  0
    5.3204    1.8612    9.1173 O   0  0  0  0  0  0  0  0  0  0  0  0
 28 29  1  0  0  0
 29  1  1  0  0  0
  1  2  2  0  0  0
  2  3  1  0  0  0
  3  4  2  0  0  0
  4  5  1  0  0  0
  5  6  2  0  0  0
  6  7  1  0  0  0
  7  8  2  0  0  0
  8  9  1  0  0  0
  9 10  2  0  0  0
 10 11  1  0  0  0
 11 12  1  0  0  0
 11 24  1  0  0  0
 24 25  1  0  0  0
 24 26  1  0  0  0
 24 27  1  0  0  0
  4 13  1  0  0  0
 13 14  2  0  0  0
 13 16  1  0  0  0
 16 17  1  0  0  0
 17 18  2  0  0  0
 18 19  1  0  0  0
 19 20  1  0  0  0
 19 21  1  0  0  0
 21 22  1  0  0  0
 21 23  1  0  0  0
 14  1  1  0  0  0
 20 16  2  0  0  0
 11  3  1  0  0  0
 10  5  1  0  0  0
 12 15  1  0  0  0
M  END
> <minimizedAffinity>
-4.36074

> <CNNscore>
0.4547920227

> <CNNaffinity>
4.9988760948

> <CNN_VS>
2.2734489441

> <CNNaffinity_variance>
0.4199829698

$$$$
[H]OC1(C(F)(F)F)c2c([H])c([H])c([H])c([H])c2-c2c(-c3c([H])nn(C([H])(C([H])([H])[H])C([H])([H])[H])c3[H])c([H])c(OC([H])([H])[H])c([H])c21


 29 32  0  0  0  0  0  0  0  0999 V2000
    3.8044    6.5062    8.9682 C   0  0  0  0  0  0  0  0  0  0  0  0
    2.5438    6.4969    8.4314 C   0  0  0  0  0  0  0  0  0  0  0  0
    2.2452    6.8329    7.1166 C   0  0  0  0  0  0  0  0  0  0  0  0
    3.3240    7.2045    6.2954 C   0  0  0  0  0  0  0  0  0  0  0  0
    2.7950    7.5363    4.9472 C   0  0  0  0  0  0  0  0  0  0  0  0
    3.3983    7.9660    3.7866 C   0  0  0  0  0  0  0  0  0  0  0  0
    2.6350    8.2101    2.6728 C   0  0  0  0  0  0  0  0  0  0  0  0
    1.2732    8.0303    2.7049 C   0  0  0  0  0  0  0  0  0  0  0  0
    0.6749    7.6033    3.8620 C   0  0  0  0  0  0  0  0  0  0  0  0
    1.4221    7.3494    5.0005 C   0  0  0  0  0  0  0  0  0  0  0  0
    1.0111    6.8985    6.3402 C   0  0  0  0  0  0  0  0  0  0  0  0
    0.4228    5.6441    6.1891 O   0  0  0  0  0  0  0  0  0  0  0  0
    4.5983    7.2240    6.7940 C   0  0  0  0  0  0  0  0  0  0  0  0
    4.8252    6.8711    8.1422 C   0  0  0  0  0  0  0  0  0  0  0  0
   -0.5551    5.7853    6.0633 H   0  0  0  0  0  0  0  0  0  0  0  0
    5.7618    7.5377    5.9826 C   0  0  0  0  0  0  0  0  0  0  0  0
    6.5591    6.5951    5.3249 C   0  0  0  0  0  0  0  0  0  0  0  0
    7.4925    7.2142    4.6187 N   0  0  0  0  0  0  0  0  0  0  0  0
    7.3354    8.5154    4.7897 N   0  0  0  0  0  0  0  0  0  0  0  0
    6.2989    8.7606    5.6084 C   0  0  0  0  0  0  0  0  0  0  0  0
    8.2118    9.4865    4.1411 C   0  0  0  0  0  0  0  0  0  0  0  0
    8.1214    9.3927    2.6301 C   0  0  0  0  0  0  0  0  0  0  0  0
    9.6360    9.2994    4.6052 C   0  0  0  0  0  0  0  0  0  0  0  0
    0.0312    7.8135    6.9922 C   0  0  0  0  0  0  0  0  0  0  0  0
   -1.1431    7.8043    6.2770 F   0  0  0  0  0  0  0  0  0  0  0  0
    0.4644    9.1230    7.0439 F   0  0  0  0  0  0  0  0  0  0  0  0
   -0.2727    7.4126    8.2824 F   0  0  0  0  0  0  0  0  0  0  0  0
    3.6902    7.1161   11.3109 C   0  0  0  0  0  0  0  0  0  0  0  0
    4.0308    6.1531   10.3159 O   0  0  0  0  0  0  0  0  0  0  0  0
 28 29  1  0  0  0
 29  1  1  0  0  0
  1  2  2  0  0  0
  2  3  1  0  0  0
  3  4  2  0  0  0
  4  5  1  0  0  0
  5  6  2  0  0  0
  6  7  1  0  0  0
  7  8  2  0  0  0
  8  9  1  0  0  0
  9 10  2  0  0  0
 10 11  1  0  0  0
 11 12  1  0  0  0
 11 24  1  0  0  0
 24 25  1  0  0  0
 24 26  1  0  0  0
 24 27  1  0  0  0
  4 13  1  0  0  0
 13 14  2  0  0  0
 13 16  1  0  0  0
 16 17  1  0  0  0
 17 18  2  0  0  0
 18 19  1  0  0  0
 19 20  1  0  0  0
 19 21  1  0  0  0
 21 22  1  0  0  0
 21 23  1  0  0  0
 14  1  1  0  0  0
 20 16  2  0  0  0
 11  3  1  0  0  0
 10  5  1  0  0  0
 12 15  1  0  0  0
M  END
> <minimizedAffinity>
-4.25041

> <CNNscore>
0.4165694714

> <CNNaffinity>
4.9871721268

> <CNN_VS>
2.0775036812

> <CNNaffinity_variance>
0.3678861260

$$$$
[H]OC1(C(F)(F)F)c2c([H])c([H])c([H])c([H])c2-c2c(-c3c([H])nn(C([H])(C([H])([H])[H])C([H])([H])[H])c3[H])c([H])c(OC([H])([H])[H])c([H])c21


 29 32  0  0  0  0  0  0  0  0999 V2000
    6.9626    2.9908    8.7124 C   0  0  0  0  0  0  0  0  0  0  0  0
    6.3405    1.8250    8.3497 C   0  0  0  0  0  0  0  0  0  0  0  0
    5.0544    1.4661    8.7343 C   0  0  0  0  0  0  0  0  0  0  0  0
    4.3589    2.3745    9.5512 C   0  0  0  0  0  0  0  0  0  0  0  0
    3.0231    1.8014    9.8588 C   0  0  0  0  0  0  0  0  0  0  0  0
    1.9642    2.2528   10.6142 C   0  0  0  0  0  0  0  0  0  0  0  0
    0.8341    1.4834   10.7306 C   0  0  0  0  0  0  0  0  0  0  0  0
    0.7493    0.2653   10.1004 C   0  0  0  0  0  0  0  0  0  0  0  0
    1.8053   -0.1822    9.3497 C   0  0  0  0  0  0  0  0  0  0  0  0
    2.9576    0.5748    9.2155 C   0  0  0  0  0  0  0  0  0  0  0  0
    4.2052    0.3062    8.4816 C   0  0  0  0  0  0  0  0  0  0  0  0
    3.8716    0.1880    7.1336 O   0  0  0  0  0  0  0  0  0  0  0  0
    4.9453    3.5506    9.9332 C   0  0  0  0  0  0  0  0  0  0  0  0
    6.2575    3.8471    9.5041 C   0  0  0  0  0  0  0  0  0  0  0  0
    3.6938   -0.7752    6.9526 H   0  0  0  0  0  0  0  0  0  0  0  0
    4.2590    4.5581   10.7233 C   0  0  0  0  0  0  0  0  0  0  0  0
    4.3461    4.6838   12.1137 C   0  0  0  0  0  0  0  0  0  0  0  0
    3.6574    5.7427   12.5107 N   0  0  0  0  0  0  0  0  0  0  0  0
    3.1283    6.3083   11.4396 N   0  0  0  0  0  0  0  0  0  0  0  0
    3.4650    5.6262   10.3324 C   0  0  0  0  0  0  0  0  0  0  0  0
    2.3028    7.5089   11.5337 C   0  0  0  0  0  0  0  0  0  0  0  0
    2.6441    8.3213   12.7681 C   0  0  0  0  0  0  0  0  0  0  0  0
    0.8388    7.1408   11.5227 C   0  0  0  0  0  0  0  0  0  0  0  0
    4.8858   -0.9456    8.9200 C   0  0  0  0  0  0  0  0  0  0  0  0
    4.1599   -2.0311    8.4893 F   0  0  0  0  0  0  0  0  0  0  0  0
    4.9964   -1.0501   10.2918 F   0  0  0  0  0  0  0  0  0  0  0  0
    6.1552   -1.0618    8.3788 F   0  0  0  0  0  0  0  0  0  0  0  0
    8.6295    2.9079    6.9552 C   0  0  0  0  0  0  0  0  0  0  0  0
    8.2742    3.2869    8.2832 O   0  0  0  0  0  0  0  0  0  0  0  0
 28 29  1  0  0  0
 29  1  1  0  0  0
  1  2  2  0  0  0
  2  3  1  0  0  0
  3  4  2  0  0  0
  4  5  1  0  0  0
  5  6  2  0  0  0
  6  7  1  0  0  0
  7  8  2  0  0  0
  8  9  1  0  0  0
  9 10  2  0  0  0
 10 11  1  0  0  0
 11 12  1  0  0  0
 11 24  1  0  0  0
 24 25  1  0  0  0
 24 26  1  0  0  0
 24 27  1  0  0  0
  4 13  1  0  0  0
 13 14  2  0  0  0
 13 16  1  0  0  0
 16 17  1  0  0  0
 17 18  2  0  0  0
 18 19  1  0  0  0
 19 20  1  0  0  0
 19 21  1  0  0  0
 21 22  1  0  0  0
 21 23  1  0  0  0
 14  1  1  0  0  0
 20 16  2  0  0  0
 11  3  1  0  0  0
 10  5  1  0  0  0
 12 15  1  0  0  0
M  END
> <minimizedAffinity>
-5.41656

> <CNNscore>
0.4030635357

> <CNNaffinity>
5.0507779121

> <CNN_VS>
2.0357844830

> <CNNaffinity_variance>
0.1361428499

$$$$
[H]OC1(C(F)(F)F)c2c([H])c([H])c([H])c([H])c2-c2c(-c3c([H])nn(C([H])(C([H])([H])[H])C([H])([H])[H])c3[H])c([H])c(OC([H])([H])[H])c([H])c21


 29 32  0  0  0  0  0  0  0  0999 V2000
    6.2011    6.1590    7.2987 C   0  0  0  0  0  0  0  0  0  0  0  0
    6.1774    4.7890    7.3075 C   0  0  0  0  0  0  0  0  0  0  0  0
    5.3510    4.0210    8.1188 C   0  0  0  0  0  0  0  0  0  0  0  0
    4.4861    4.7150    8.9828 C   0  0  0  0  0  0  0  0  0  0  0  0
    3.7077    3.7208    9.7657 C   0  0  0  0  0  0  0  0  0  0  0  0
    2.7496    3.8470   10.7464 C   0  0  0  0  0  0  0  0  0  0  0  0
    2.2017    2.7231   11.3115 C   0  0  0  0  0  0  0  0  0  0  0  0
    2.6009    1.4718   10.9080 C   0  0  0  0  0  0  0  0  0  0  0  0
    3.5556    1.3489    9.9321 C   0  0  0  0  0  0  0  0  0  0  0  0
    4.1247    2.4671    9.3450 C   0  0  0  0  0  0  0  0  0  0  0  0
    5.1558    2.5861    8.3012 C   0  0  0  0  0  0  0  0  0  0  0  0
    4.6506    1.9785    7.1532 O   0  0  0  0  0  0  0  0  0  0  0  0
    4.4787    6.0834    9.0018 C   0  0  0  0  0  0  0  0  0  0  0  0
    5.3487    6.7974    8.1490 C   0  0  0  0  0  0  0  0  0  0  0  0
    4.9394    1.0253    7.1672 H   0  0  0  0  0  0  0  0  0  0  0  0
    3.5669    6.8594    9.8245 C   0  0  0  0  0  0  0  0  0  0  0  0
    2.3132    7.3241    9.4135 C   0  0  0  0  0  0  0  0  0  0  0  0
    1.7103    7.9347   10.4219 N   0  0  0  0  0  0  0  0  0  0  0  0
    2.5175    7.8863   11.4675 N   0  0  0  0  0  0  0  0  0  0  0  0
    3.6552    7.2442   11.1542 C   0  0  0  0  0  0  0  0  0  0  0  0
    2.1472    8.4746   12.7514 C   0  0  0  0  0  0  0  0  0  0  0  0
    3.3720    8.8399   13.5679 C   0  0  0  0  0  0  0  0  0  0  0  0
    1.2518    7.5337   13.5205 C   0  0  0  0  0  0  0  0  0  0  0  0
    6.4412    1.9261    8.6684 C   0  0  0  0  0  0  0  0  0  0  0  0
    7.2769    1.9221    7.5764 F   0  0  0  0  0  0  0  0  0  0  0  0
    6.2825    0.6129    9.0625 F   0  0  0  0  0  0  0  0  0  0  0  0
    7.0983    2.6007    9.6837 F   0  0  0  0  0  0  0  0  0  0  0  0
    6.5165    7.9574    5.7050 C   0  0  0  0  0  0  0  0  0  0  0  0
    7.0707    6.8724    6.4459 O   0  0  0  0  0  0  0  0  0  0  0  0
 28 29  1  0  0  0
 29  1  1  0  0  0
  1  2  2  0  0  0
  2  3  1  0  0  0
  3  4  2  0  0  0
  4  5  1  0  0  0
  5  6  2  0  0  0
  6  7  1  0  0  0
  7  8  2  0  0  0
  8  9  1  0  0  0
  9 10  2  0  0  0
 10 11  1  0  0  0
 11 12  1  0  0  0
 11 24  1  0  0  0
 24 25  1  0  0  0
 24 26  1  0  0  0
 24 27  1  0  0  0
  4 13  1  0  0  0
 13 14  2  0  0  0
 13 16  1  0  0  0
 16 17  1  0  0  0
 17 18  2  0  0  0
 18 19  1  0  0  0
 19 20  1  0  0  0
 19 21  1  0  0  0
 21 22  1  0  0  0
 21 23  1  0  0  0
 14  1  1  0  0  0
 20 16  2  0  0  0
 11  3  1  0  0  0
 10  5  1  0  0  0
 12 15  1  0  0  0
M  END
> <minimizedAffinity>
-4.90206

> <CNNscore>
0.3954735398

> <CNNaffinity>
5.0478725433

> <CNN_VS>
1.9962999821

> <CNNaffinity_variance>
0.2988821864

$$$$
[H]OC1(C(F)(F)F)c2c([H])c([H])c([H])c([H])c2-c2c(-c3c([H])nn(C([H])(C([H])([H])[H])C([H])([H])[H])c3[H])c([H])c(OC([H])([H])[H])c([H])c21


 29 32  0  0  0  0  0  0  0  0999 V2000
    6.1932    5.5709   20.8134 C   0  0  0  0  0  0  0  0  0  0  0  0
    6.1663    4.5066   21.6759 C   0  0  0  0  0  0  0  0  0  0  0  0
    5.5057    3.3093   21.4289 C   0  0  0  0  0  0  0  0  0  0  0  0
    4.8241    3.2009   20.2042 C   0  0  0  0  0  0  0  0  0  0  0  0
    4.1790    1.8639   20.1429 C   0  0  0  0  0  0  0  0  0  0  0  0
    3.3903    1.2496   19.1962 C   0  0  0  0  0  0  0  0  0  0  0  0
    2.9154   -0.0174   19.4240 C   0  0  0  0  0  0  0  0  0  0  0  0
    3.2193   -0.6792   20.5891 C   0  0  0  0  0  0  0  0  0  0  0  0
    4.0040   -0.0651   21.5304 C   0  0  0  0  0  0  0  0  0  0  0  0
    4.4965    1.2133   21.3255 C   0  0  0  0  0  0  0  0  0  0  0  0
    5.3381    2.0683   22.1786 C   0  0  0  0  0  0  0  0  0  0  0  0
    6.5485    1.4020   22.3615 O   0  0  0  0  0  0  0  0  0  0  0  0
    4.8293    4.2414   19.3151 C   0  0  0  0  0  0  0  0  0  0  0  0
    5.5220    5.4293   19.6359 C   0  0  0  0  0  0  0  0  0  0  0  0
    6.4667    0.8546   23.1896 H   0  0  0  0  0  0  0  0  0  0  0  0
    4.1982    4.1701   18.0086 C   0  0  0  0  0  0  0  0  0  0  0  0
    2.9921    4.7900   17.6653 C   0  0  0  0  0  0  0  0  0  0  0  0
    2.7336    4.5853   16.3829 N   0  0  0  0  0  0  0  0  0  0  0  0
    3.7183    3.8606   15.8805 N   0  0  0  0  0  0  0  0  0  0  0  0
    4.6299    3.5843   16.8277 C   0  0  0  0  0  0  0  0  0  0  0  0
    3.7366    3.4579   14.4772 C   0  0  0  0  0  0  0  0  0  0  0  0
    3.1412    4.5298   13.5847 C   0  0  0  0  0  0  0  0  0  0  0  0
    3.0094    2.1472   14.2984 C   0  0  0  0  0  0  0  0  0  0  0  0
    4.7334    2.3416   23.5136 C   0  0  0  0  0  0  0  0  0  0  0  0
    5.7289    2.6686   24.4039 F   0  0  0  0  0  0  0  0  0  0  0  0
    4.0622    1.2549   24.0369 F   0  0  0  0  0  0  0  0  0  0  0  0
    3.8527    3.4096   23.4745 F   0  0  0  0  0  0  0  0  0  0  0  0
    7.2469    6.9567   22.4995 C   0  0  0  0  0  0  0  0  0  0  0  0
    6.8859    6.7581   21.1343 O   0  0  0  0  0  0  0  0  0  0  0  0
 28 29  1  0  0  0
 29  1  1  0  0  0
  1  2  2  0  0  0
  2  3  1  0  0  0
  3  4  2  0  0  0
  4  5  1  0  0  0
  5  6  2  0  0  0
  6  7  1  0  0  0
  7  8  2  0  0  0
  8  9  1  0  0  0
  9 10  2  0  0  0
 10 11  1  0  0  0
 11 12  1  0  0  0
 11 24  1  0  0  0
 24 25  1  0  0  0
 24 26  1  0  0  0
 24 27  1  0  0  0
  4 13  1  0  0  0
 13 14  2  0  0  0
 13 16  1  0  0  0
 16 17  1  0  0  0
 17 18  2  0  0  0
 18 19  1  0  0  0
 19 20  1  0  0  0
 19 21  1  0  0  0
 21 22  1  0  0  0
 21 23  1  0  0  0
 14  1  1  0  0  0
 20 16  2  0  0  0
 11  3  1  0  0  0
 10  5  1  0  0  0
 12 15  1  0  0  0
M  END
> <minimizedAffinity>
-9.00074

> <CNNscore>
0.3836866915

> <CNNaffinity>
6.3167495728

> <CNN_VS>
2.4236526489

> <CNNaffinity_variance>
0.3243847191

$$$$
[H]OC1(C(F)(F)F)c2c([H])c([H])c([H])c([H])c2-c2c(-c3c([H])nn(C([H])(C([H])([H])[H])C([H])([H])[H])c3[H])c([H])c(OC([H])([H])[H])c([H])c21


 29 32  0  0  0  0  0  0  0  0999 V2000
    2.7551    1.5518    9.7857 C   0  0  0  0  0  0  0  0  0  0  0  0
    2.4812    1.6482   11.1248 C   0  0  0  0  0  0  0  0  0  0  0  0
    2.0160    2.7972   11.7527 C   0  0  0  0  0  0  0  0  0  0  0  0
    1.8181    3.9284   10.9418 C   0  0  0  0  0  0  0  0  0  0  0  0
    1.3379    5.0425   11.7996 C   0  0  0  0  0  0  0  0  0  0  0  0
    1.0091    6.3525   11.5323 C   0  0  0  0  0  0  0  0  0  0  0  0
    0.5981    7.1728   12.5525 C   0  0  0  0  0  0  0  0  0  0  0  0
    0.5120    6.6991   13.8394 C   0  0  0  0  0  0  0  0  0  0  0  0
    0.8408    5.3947   14.1029 C   0  0  0  0  0  0  0  0  0  0  0  0
    1.2584    4.5453   13.0915 C   0  0  0  0  0  0  0  0  0  0  0  0
    1.6659    3.1312   13.1297 C   0  0  0  0  0  0  0  0  0  0  0  0
    0.5689    2.3995   13.5810 O   0  0  0  0  0  0  0  0  0  0  0  0
    2.0783    3.8713    9.5994 C   0  0  0  0  0  0  0  0  0  0  0  0
    2.5509    2.6682    9.0312 C   0  0  0  0  0  0  0  0  0  0  0  0
    0.6440    2.3279   14.5716 H   0  0  0  0  0  0  0  0  0  0  0  0
    1.8359    4.9840    8.6975 C   0  0  0  0  0  0  0  0  0  0  0  0
    2.7901    5.9359    8.3230 C   0  0  0  0  0  0  0  0  0  0  0  0
    2.2659    6.7702    7.4385 N   0  0  0  0  0  0  0  0  0  0  0  0
    1.0150    6.4012    7.2234 N   0  0  0  0  0  0  0  0  0  0  0  0
    0.7085    5.3231    7.9640 C   0  0  0  0  0  0  0  0  0  0  0  0
    0.1514    7.1211    6.2920 C   0  0  0  0  0  0  0  0  0  0  0  0
    0.9376    8.1221    5.4673 C   0  0  0  0  0  0  0  0  0  0  0  0
   -0.9696    7.8042    7.0374 C   0  0  0  0  0  0  0  0  0  0  0  0
    2.8199    2.8776   14.0388 C   0  0  0  0  0  0  0  0  0  0  0  0
    2.4800    3.2510   15.3178 F   0  0  0  0  0  0  0  0  0  0  0  0
    3.9487    3.5930   13.6938 F   0  0  0  0  0  0  0  0  0  0  0  0
    3.1605    1.5360   14.0814 F   0  0  0  0  0  0  0  0  0  0  0  0
    4.6291    0.0977    9.2889 C   0  0  0  0  0  0  0  0  0  0  0  0
    3.2272    0.3489    9.2180 O   0  0  0  0  0  0  0  0  0  0  0  0
 28 29  1  0  0  0
 29  1  1  0  0  0
  1  2  2  0  0  0
  2  3  1  0  0  0
  3  4  2  0  0  0
  4  5  1  0  0  0
  5  6  2  0  0  0
  6  7  1  0  0  0
  7  8  2  0  0  0
  8  9  1  0  0  0
  9 10  2  0  0  0
 10 11  1  0  0  0
 11 12  1  0  0  0
 11 24  1  0  0  0
 24 25  1  0  0  0
 24 26  1  0  0  0
 24 27  1  0  0  0
  4 13  1  0  0  0
 13 14  2  0  0  0
 13 16  1  0  0  0
 16 17  1  0  0  0
 17 18  2  0  0  0
 18 19  1  0  0  0
 19 20  1  0  0  0
 19 21  1  0  0  0
 21 22  1  0  0  0
 21 23  1  0  0  0
 14  1  1  0  0  0
 20 16  2  0  0  0
 11  3  1  0  0  0
 10  5  1  0  0  0
 12 15  1  0  0  0
M  END
> <minimizedAffinity>
-5.04827

> <CNNscore>
0.3701283038

> <CNNaffinity>
4.9440712929

> <CNN_VS>
1.8299406767

> <CNNaffinity_variance>
0.1699433923

$$$$
[H]OC1(C(F)(F)F)c2c([H])c([H])c([H])c([H])c2-c2c(-c3c([H])nn(C([H])(C([H])([H])[H])C([H])([H])[H])c3[H])c([H])c(OC([H])([H])[H])c([H])c21


 29 32  0  0  0  0  0  0  0  0999 V2000
    4.8340    4.7205   11.1636 C   0  0  0  0  0  0  0  0  0  0  0  0
    4.3364    5.6911   11.9929 C   0  0  0  0  0  0  0  0  0  0  0  0
    2.9894    5.8572   12.2914 C   0  0  0  0  0  0  0  0  0  0  0  0
    2.0905    4.9577   11.6923 C   0  0  0  0  0  0  0  0  0  0  0  0
    0.7138    5.3125   12.1241 C   0  0  0  0  0  0  0  0  0  0  0  0
   -0.5228    4.7825   11.8317 C   0  0  0  0  0  0  0  0  0  0  0  0
   -1.6496    5.3400   12.3815 C   0  0  0  0  0  0  0  0  0  0  0  0
   -1.5554    6.4234   13.2213 C   0  0  0  0  0  0  0  0  0  0  0  0
   -0.3231    6.9497   13.5102 C   0  0  0  0  0  0  0  0  0  0  0  0
    0.8302    6.4060   12.9687 C   0  0  0  0  0  0  0  0  0  0  0  0
    2.2415    6.7955   13.1223 C   0  0  0  0  0  0  0  0  0  0  0  0
    2.5595    6.6641   14.4728 O   0  0  0  0  0  0  0  0  0  0  0  0
    2.5489    3.9730   10.8596 C   0  0  0  0  0  0  0  0  0  0  0  0
    3.9330    3.8663   10.6015 C   0  0  0  0  0  0  0  0  0  0  0  0
    2.3895    7.5441   14.9074 H   0  0  0  0  0  0  0  0  0  0  0  0
    1.6803    2.9750   10.2596 C   0  0  0  0  0  0  0  0  0  0  0  0
    1.1267    3.0595    8.9778 C   0  0  0  0  0  0  0  0  0  0  0  0
    0.4431    1.9570    8.7126 N   0  0  0  0  0  0  0  0  0  0  0  0
    0.5292    1.1624    9.7654 N   0  0  0  0  0  0  0  0  0  0  0  0
    1.2691    1.7361   10.7287 C   0  0  0  0  0  0  0  0  0  0  0  0
   -0.1207   -0.1447    9.7961 C   0  0  0  0  0  0  0  0  0  0  0  0
    0.8040   -1.2358    9.2916 C   0  0  0  0  0  0  0  0  0  0  0  0
   -1.3996   -0.1134    8.9947 C   0  0  0  0  0  0  0  0  0  0  0  0
    2.5120    8.1992   12.6991 C   0  0  0  0  0  0  0  0  0  0  0  0
    1.9213    8.4266   11.4784 F   0  0  0  0  0  0  0  0  0  0  0  0
    3.8574    8.4719   12.5558 F   0  0  0  0  0  0  0  0  0  0  0  0
    1.9816    9.1194   13.5877 F   0  0  0  0  0  0  0  0  0  0  0  0
    6.6189    4.4321    9.5497 C   0  0  0  0  0  0  0  0  0  0  0  0
    6.2177    4.6140   10.9060 O   0  0  0  0  0  0  0  0  0  0  0  0
 28 29  1  0  0  0
 29  1  1  0  0  0
  1  2  2  0  0  0
  2  3  1  0  0  0
  3  4  2  0  0  0
  4  5  1  0  0  0
  5  6  2  0  0  0
  6  7  1  0  0  0
  7  8  2  0  0  0
  8  9  1  0  0  0
  9 10  2  0  0  0
 10 11  1  0  0  0
 11 12  1  0  0  0
 11 24  1  0  0  0
 24 25  1  0  0  0
 24 26  1  0  0  0
 24 27  1  0  0  0
  4 13  1  0  0  0
 13 14  2  0  0  0
 13 16  1  0  0  0
 16 17  1  0  0  0
 17 18  2  0  0  0
 18 19  1  0  0  0
 19 20  1  0  0  0
 19 21  1  0  0  0
 21 22  1  0  0  0
 21 23  1  0  0  0
 14  1  1  0  0  0
 20 16  2  0  0  0
 11  3  1  0  0  0
 10  5  1  0  0  0
 12 15  1  0  0  0
M  END
> <minimizedAffinity>
-5.53822

> <CNNscore>
0.3623359203

> <CNNaffinity>
5.1291246414

> <CNN_VS>
1.8584661484

> <CNNaffinity_variance>
0.2704534829

$$$$
[H]c1nc([H])c(N2C(=O)N(c3c([H])c([H])c(Cl)c([H])c3[H])C([H])([H])C2([H])[H])c(C2([H])C([H])([H])C2([H])[H])c1[H]


 22 25  0  0  0  0  0  0  0  0999 V2000
    4.1559    4.3157   19.1751 N   0  0  0  0  0  0  0  0  0  0  0  0
    3.1032    5.2894   19.1273 C   0  0  0  0  0  0  0  0  0  0  0  0
    2.7930    5.4805   17.6543 C   0  0  0  0  0  0  0  0  0  0  0  0
    3.4950    4.4621   16.9274 N   0  0  0  0  0  0  0  0  0  0  0  0
    4.6139    4.1713   17.8249 C   0  0  0  0  0  0  0  0  0  0  0  0
    5.7751    3.8521   17.5207 O   0  0  0  0  0  0  0  0  0  0  0  0
    5.7791    2.0346   24.4324 Cl  0  0  0  0  0  0  0  0  0  0  0  0
    5.3265    2.6656   22.8485 C   0  0  0  0  0  0  0  0  0  0  0  0
    5.6573    1.9879   21.6726 C   0  0  0  0  0  0  0  0  0  0  0  0
    5.2813    2.5027   20.4350 C   0  0  0  0  0  0  0  0  0  0  0  0
    4.5903    3.6694   20.3718 C   0  0  0  0  0  0  0  0  0  0  0  0
    4.2760    4.3237   21.5698 C   0  0  0  0  0  0  0  0  0  0  0  0
    4.6289    3.8450   22.7941 C   0  0  0  0  0  0  0  0  0  0  0  0
    3.2967    3.7814   15.7023 C   0  0  0  0  0  0  0  0  0  0  0  0
    3.6383    4.4199   14.4833 C   0  0  0  0  0  0  0  0  0  0  0  0
    3.5360    3.8207   13.2957 N   0  0  0  0  0  0  0  0  0  0  0  0
    3.1057    2.5703   13.1558 C   0  0  0  0  0  0  0  0  0  0  0  0
    2.7590    1.9016   14.2998 C   0  0  0  0  0  0  0  0  0  0  0  0
    2.8569    2.5195   15.5720 C   0  0  0  0  0  0  0  0  0  0  0  0
    2.3590    1.6960   16.7232 C   0  0  0  0  0  0  0  0  0  0  0  0
    3.3405    1.0050   17.6105 C   0  0  0  0  0  0  0  0  0  0  0  0
    2.7463    0.1840   16.5609 C   0  0  0  0  0  0  0  0  0  0  0  0
  7  8  1  0  0  0
  8  9  2  0  0  0
  9 10  1  0  0  0
 10 11  2  0  0  0
 11 12  1  0  0  0
 12 13  2  0  0  0
 11  1  1  0  0  0
  1  2  1  0  0  0
  2  3  1  0  0  0
  3  4  1  0  0  0
  4  5  1  0  0  0
  5  6  2  0  0  0
  4 14  1  0  0  0
 14 15  2  0  0  0
 15 16  1  0  0  0
 16 17  2  0  0  0
 17 18  1  0  0  0
 18 19  2  0  0  0
 19 20  1  0  0  0
 20 21  1  0  0  0
 21 22  1  0  0  0
 13  8  1  0  0  0
  5  1  1  0  0  0
 19 14  1  0  0  0
 22 20  1  0  0  0
M  END
> <minimizedAffinity>
-7.48837

> <CNNscore>
0.5169152021

> <CNNaffinity>
5.9632163048

> <CNN_VS>
3.0824770927

> <CNNaffinity_variance>
0.2025059909

$$$$
[H]c1nc([H])c(N2C(=O)N(c3c([H])c([H])c(Cl)c([H])c3[H])C([H])([H])C2([H])[H])c(C2([H])C([H])([H])C2([H])[H])c1[H]


 22 25  0  0  0  0  0  0  0  0999 V2000
    3.2558    3.1274   16.4945 N   0  0  0  0  0  0  0  0  0  0  0  0
    3.7789    2.9348   15.1725 C   0  0  0  0  0  0  0  0  0  0  0  0
    3.8218    4.3168   14.5472 C   0  0  0  0  0  0  0  0  0  0  0  0
    3.5519    5.2707   15.5842 N   0  0  0  0  0  0  0  0  0  0  0  0
    2.7656    4.4737   16.5268 C   0  0  0  0  0  0  0  0  0  0  0  0
    1.8282    4.8494   17.2499 O   0  0  0  0  0  0  0  0  0  0  0  0
    3.6285   -0.7438   21.0058 Cl  0  0  0  0  0  0  0  0  0  0  0  0
    3.4876    0.3624   19.6390 C   0  0  0  0  0  0  0  0  0  0  0  0
    2.7618    0.0192   18.4959 C   0  0  0  0  0  0  0  0  0  0  0  0
    2.6587    0.9133   17.4338 C   0  0  0  0  0  0  0  0  0  0  0  0
    3.2674    2.1242   17.5104 C   0  0  0  0  0  0  0  0  0  0  0  0
    3.9880    2.4358   18.6705 C   0  0  0  0  0  0  0  0  0  0  0  0
    4.1059    1.5834   19.7250 C   0  0  0  0  0  0  0  0  0  0  0  0
    3.8936    6.6237   15.8215 C   0  0  0  0  0  0  0  0  0  0  0  0
    3.5382    7.6128   14.8698 C   0  0  0  0  0  0  0  0  0  0  0  0
    3.7728    8.9135   15.0516 N   0  0  0  0  0  0  0  0  0  0  0  0
    4.3596    9.3925   16.1445 C   0  0  0  0  0  0  0  0  0  0  0  0
    4.7275    8.4833   17.1006 C   0  0  0  0  0  0  0  0  0  0  0  0
    4.4907    7.0964   16.9273 C   0  0  0  0  0  0  0  0  0  0  0  0
    5.0271    6.2147   18.0165 C   0  0  0  0  0  0  0  0  0  0  0  0
    6.3666    6.5086   18.6062 C   0  0  0  0  0  0  0  0  0  0  0  0
    6.3407    5.4813   17.5704 C   0  0  0  0  0  0  0  0  0  0  0  0
  7  8  1  0  0  0
  8  9  2  0  0  0
  9 10  1  0  0  0
 10 11  2  0  0  0
 11 12  1  0  0  0
 12 13  2  0  0  0
 11  1  1  0  0  0
  1  2  1  0  0  0
  2  3  1  0  0  0
  3  4  1  0  0  0
  4  5  1  0  0  0
  5  6  2  0  0  0
  4 14  1  0  0  0
 14 15  2  0  0  0
 15 16  1  0  0  0
 16 17  2  0  0  0
 17 18  1  0  0  0
 18 19  2  0  0  0
 19 20  1  0  0  0
 20 21  1  0  0  0
 21 22  1  0  0  0
 13  8  1  0  0  0
  5  1  1  0  0  0
 19 14  1  0  0  0
 22 20  1  0  0  0
M  END
> <minimizedAffinity>
-6.62236

> <CNNscore>
0.4036788046

> <CNNaffinity>
5.8094205856

> <CNN_VS>
2.3451399803

> <CNNaffinity_variance>
0.1930409819

$$$$
[H]c1nc([H])c(N2C(=O)N(c3c([H])c([H])c(Cl)c([H])c3[H])C([H])([H])C2([H])[H])c(C2([H])C([H])([H])C2([H])[H])c1[H]


 22 25  0  0  0  0  0  0  0  0999 V2000
    3.1880    1.2903   17.5530 N   0  0  0  0  0  0  0  0  0  0  0  0
    2.3909    0.2120   18.0633 C   0  0  0  0  0  0  0  0  0  0  0  0
    2.8212    0.0369   19.5080 C   0  0  0  0  0  0  0  0  0  0  0  0
    3.6637    1.1475   19.8473 N   0  0  0  0  0  0  0  0  0  0  0  0
    4.2003    1.5266   18.5395 C   0  0  0  0  0  0  0  0  0  0  0  0
    5.3275    1.9775   18.2770 O   0  0  0  0  0  0  0  0  0  0  0  0
    2.0816    4.4414   12.6212 Cl  0  0  0  0  0  0  0  0  0  0  0  0
    2.4124    3.4593   14.0486 C   0  0  0  0  0  0  0  0  0  0  0  0
    2.6701    2.0901   13.9471 C   0  0  0  0  0  0  0  0  0  0  0  0
    2.9366    1.3384   15.0882 C   0  0  0  0  0  0  0  0  0  0  0  0
    2.9451    1.9399   16.3050 C   0  0  0  0  0  0  0  0  0  0  0  0
    2.6816    3.3141   16.3712 C   0  0  0  0  0  0  0  0  0  0  0  0
    2.4187    4.0752   15.2738 C   0  0  0  0  0  0  0  0  0  0  0  0
    3.9820    1.8427   21.0385 C   0  0  0  0  0  0  0  0  0  0  0  0
    3.9895    1.1474   22.2742 C   0  0  0  0  0  0  0  0  0  0  0  0
    4.3371    1.7201   23.4279 N   0  0  0  0  0  0  0  0  0  0  0  0
    4.7085    2.9939   23.5153 C   0  0  0  0  0  0  0  0  0  0  0  0
    4.7198    3.7182   22.3529 C   0  0  0  0  0  0  0  0  0  0  0  0
    4.3516    3.1311   21.1161 C   0  0  0  0  0  0  0  0  0  0  0  0
    4.3268    4.0688   19.9450 C   0  0  0  0  0  0  0  0  0  0  0  0
    4.8481    5.4583   20.1057 C   0  0  0  0  0  0  0  0  0  0  0  0
    3.4011    5.3065   20.2166 C   0  0  0  0  0  0  0  0  0  0  0  0
  7  8  1  0  0  0
  8  9  2  0  0  0
  9 10  1  0  0  0
 10 11  2  0  0  0
 11 12  1  0  0  0
 12 13  2  0  0  0
 11  1  1  0  0  0
  1  2  1  0  0  0
  2  3  1  0  0  0
  3  4  1  0  0  0
  4  5  1  0  0  0
  5  6  2  0  0  0
  4 14  1  0  0  0
 14 15  2  0  0  0
 15 16  1  0  0  0
 16 17  2  0  0  0
 17 18  1  0  0  0
 18 19  2  0  0  0
 19 20  1  0  0  0
 20 21  1  0  0  0
 21 22  1  0  0  0
 13  8  1  0  0  0
  5  1  1  0  0  0
 19 14  1  0  0  0
 22 20  1  0  0  0
M  END
> <minimizedAffinity>
-6.88703

> <CNNscore>
0.3724128306

> <CNNaffinity>
6.0377683640

> <CNN_VS>
2.2485423088

> <CNNaffinity_variance>
0.2756535411

$$$$
[H]c1nc([H])c(N2C(=O)N(c3c([H])c([H])c(Cl)c([H])c3[H])C([H])([H])C2([H])[H])c(C2([H])C([H])([H])C2([H])[H])c1[H]


 22 25  0  0  0  0  0  0  0  0999 V2000
    4.2562    3.2951   17.0377 N   0  0  0  0  0  0  0  0  0  0  0  0
    5.0305    4.5014   17.0991 C   0  0  0  0  0  0  0  0  0  0  0  0
    4.7034    5.2594   15.8259 C   0  0  0  0  0  0  0  0  0  0  0  0
    3.5981    4.5950   15.1972 N   0  0  0  0  0  0  0  0  0  0  0  0
    3.7447    3.2286   15.7006 C   0  0  0  0  0  0  0  0  0  0  0  0
    3.4866    2.1653   15.1128 O   0  0  0  0  0  0  0  0  0  0  0  0
    3.2571   -0.7401   21.3034 Cl  0  0  0  0  0  0  0  0  0  0  0  0
    3.5770    0.4906   20.0807 C   0  0  0  0  0  0  0  0  0  0  0  0
    4.2459    1.6754   20.3973 C   0  0  0  0  0  0  0  0  0  0  0  0
    4.4936    2.6275   19.4123 C   0  0  0  0  0  0  0  0  0  0  0  0
    4.0821    2.4026   18.1385 C   0  0  0  0  0  0  0  0  0  0  0  0
    3.4132    1.2048   17.8557 C   0  0  0  0  0  0  0  0  0  0  0  0
    3.1574    0.2551   18.7966 C   0  0  0  0  0  0  0  0  0  0  0  0
    2.5437    4.9877   14.3383 C   0  0  0  0  0  0  0  0  0  0  0  0
    1.4332    5.6912   14.8694 C   0  0  0  0  0  0  0  0  0  0  0  0
    0.4320    6.1456   14.1138 N   0  0  0  0  0  0  0  0  0  0  0  0
    0.3927    5.9776   12.7952 C   0  0  0  0  0  0  0  0  0  0  0  0
    1.4390    5.3030   12.2241 C   0  0  0  0  0  0  0  0  0  0  0  0
    2.5120    4.8090   13.0080 C   0  0  0  0  0  0  0  0  0  0  0  0
    3.5401    4.0147   12.2572 C   0  0  0  0  0  0  0  0  0  0  0  0
    3.3090    3.6876   10.8192 C   0  0  0  0  0  0  0  0  0  0  0  0
    2.9641    2.6379   11.7723 C   0  0  0  0  0  0  0  0  0  0  0  0
  7  8  1  0  0  0
  8  9  2  0  0  0
  9 10  1  0  0  0
 10 11  2  0  0  0
 11 12  1  0  0  0
 12 13  2  0  0  0
 11  1  1  0  0  0
  1  2  1  0  0  0
  2  3  1  0  0  0
  3  4  1  0  0  0
  4  5  1  0  0  0
  5  6  2  0  0  0
  4 14  1  0  0  0
 14 15  2  0  0  0
 15 16  1  0  0  0
 16 17  2  0  0  0
 17 18  1  0  0  0
 18 19  2  0  0  0
 19 20  1  0  0  0
 20 21  1  0  0  0
 21 22  1  0  0  0
 13  8  1  0  0  0
  5  1  1  0  0  0
 19 14  1  0  0  0
 22 20  1  0  0  0
M  END
> <minimizedAffinity>
-5.76260

> <CNNscore>
0.3264220357

> <CNNaffinity>
5.6227169037

> <CNN_VS>
1.8353786469

> <CNNaffinity_variance>
0.2025892735

$$$$
[H]c1nc([H])c(N2C(=O)N(c3c([H])c([H])c(Cl)c([H])c3[H])C([H])([H])C2([H])[H])c(C2([H])C([H])([H])C2([H])[H])c1[H]


 22 25  0  0  0  0  0  0  0  0999 V2000
    3.3625    4.8879   14.3206 N   0  0  0  0  0  0  0  0  0  0  0  0
    3.3441    6.2046   14.8903 C   0  0  0  0  0  0  0  0  0  0  0  0
    3.0486    7.1431   13.7351 C   0  0  0  0  0  0  0  0  0  0  0  0
    2.6800    6.3385   12.6059 N   0  0  0  0  0  0  0  0  0  0  0  0
    3.3639    5.0785   12.9002 C   0  0  0  0  0  0  0  0  0  0  0  0
    3.8738    4.2796   12.0974 O   0  0  0  0  0  0  0  0  0  0  0  0
    3.0237   -0.3062   17.2159 Cl  0  0  0  0  0  0  0  0  0  0  0  0
    3.1614    1.2516   16.3999 C   0  0  0  0  0  0  0  0  0  0  0  0
    4.0185    2.2483   16.8725 C   0  0  0  0  0  0  0  0  0  0  0  0
    4.1154    3.4665   16.2057 C   0  0  0  0  0  0  0  0  0  0  0  0
    3.3723    3.6859   15.0911 C   0  0  0  0  0  0  0  0  0  0  0  0
    2.5224    2.6658   14.6451 C   0  0  0  0  0  0  0  0  0  0  0  0
    2.4069    1.4647   15.2748 C   0  0  0  0  0  0  0  0  0  0  0  0
    1.8697    6.5227   11.4599 C   0  0  0  0  0  0  0  0  0  0  0  0
    2.4375    7.0703   10.2817 C   0  0  0  0  0  0  0  0  0  0  0  0
    1.7530    7.2177    9.1461 N   0  0  0  0  0  0  0  0  0  0  0  0
    0.4780    6.8606    9.0234 C   0  0  0  0  0  0  0  0  0  0  0  0
   -0.1260    6.3256   10.1302 C   0  0  0  0  0  0  0  0  0  0  0  0
    0.5812    6.1625   11.3481 C   0  0  0  0  0  0  0  0  0  0  0  0
   -0.2343    5.6468   12.4972 C   0  0  0  0  0  0  0  0  0  0  0  0
   -1.6698    6.0392   12.6135 C   0  0  0  0  0  0  0  0  0  0  0  0
   -0.7328    6.8138   13.4203 C   0  0  0  0  0  0  0  0  0  0  0  0
  7  8  1  0  0  0
  8  9  2  0  0  0
  9 10  1  0  0  0
 10 11  2  0  0  0
 11 12  1  0  0  0
 12 13  2  0  0  0
 11  1  1  0  0  0
  1  2  1  0  0  0
  2  3  1  0  0  0
  3  4  1  0  0  0
  4  5  1  0  0  0
  5  6  2  0  0  0
  4 14  1  0  0  0
 14 15  2  0  0  0
 15 16  1  0  0  0
 16 17  2  0  0  0
 17 18  1  0  0  0
 18 19  2  0  0  0
 19 20  1  0  0  0
 20 21  1  0  0  0
 21 22  1  0  0  0
 13  8  1  0  0  0
  5  1  1  0  0  0
 19 14  1  0  0  0
 22 20  1  0  0  0
M  END
> <minimizedAffinity>
-5.87044

> <CNNscore>
0.3139066100

> <CNNaffinity>
4.8659577370

> <CNN_VS>
1.5274562836

> <CNNaffinity_variance>
0.2353191674

$$$$
[H]c1nc([H])c(N2C(=O)N(c3c([H])c([H])c(Cl)c([H])c3[H])C([H])([H])C2([H])[H])c(C2([H])C([H])([H])C2([H])[H])c1[H]


 22 25  0  0  0  0  0  0  0  0999 V2000
    2.5990    2.7148   13.6883 N   0  0  0  0  0  0  0  0  0  0  0  0
    1.3552    2.1499   13.2499 C   0  0  0  0  0  0  0  0  0  0  0  0
    1.3023    2.3954   11.7533 C   0  0  0  0  0  0  0  0  0  0  0  0
    2.5928    2.8720   11.3461 N   0  0  0  0  0  0  0  0  0  0  0  0
    3.0906    3.4802   12.5808 C   0  0  0  0  0  0  0  0  0  0  0  0
    3.8133    4.4830   12.7019 O   0  0  0  0  0  0  0  0  0  0  0  0
    4.6651    1.3679   19.1099 Cl  0  0  0  0  0  0  0  0  0  0  0  0
    4.0795    1.8197   17.5084 C   0  0  0  0  0  0  0  0  0  0  0  0
    4.4255    3.0403   16.9238 C   0  0  0  0  0  0  0  0  0  0  0  0
    3.9569    3.3699   15.6550 C   0  0  0  0  0  0  0  0  0  0  0  0
    3.1594    2.5003   14.9838 C   0  0  0  0  0  0  0  0  0  0  0  0
    2.8309    1.2858   15.5996 C   0  0  0  0  0  0  0  0  0  0  0  0
    3.2742    0.9353   16.8378 C   0  0  0  0  0  0  0  0  0  0  0  0
    3.3517    2.8279   10.1521 C   0  0  0  0  0  0  0  0  0  0  0  0
    3.6513    4.0332    9.4681 C   0  0  0  0  0  0  0  0  0  0  0  0
    4.4103    4.0771    8.3717 N   0  0  0  0  0  0  0  0  0  0  0  0
    4.9522    2.9911    7.8284 C   0  0  0  0  0  0  0  0  0  0  0  0
    4.6967    1.7951    8.4451 C   0  0  0  0  0  0  0  0  0  0  0  0
    3.8907    1.7246    9.6092 C   0  0  0  0  0  0  0  0  0  0  0  0
    3.6262    0.3392   10.1213 C   0  0  0  0  0  0  0  0  0  0  0  0
    3.8333   -0.8300    9.2166 C   0  0  0  0  0  0  0  0  0  0  0  0
    2.4591   -0.3537    9.3337 C   0  0  0  0  0  0  0  0  0  0  0  0
  7  8  1  0  0  0
  8  9  2  0  0  0
  9 10  1  0  0  0
 10 11  2  0  0  0
 11 12  1  0  0  0
 12 13  2  0  0  0
 11  1  1  0  0  0
  1  2  1  0  0  0
  2  3  1  0  0  0
  3  4  1  0  0  0
  4  5  1  0  0  0
  5  6  2  0  0  0
  4 14  1  0  0  0
 14 15  2  0  0  0
 15 16  1  0  0  0
 16 17  2  0  0  0
 17 18  1  0  0  0
 18 19  2  0  0  0
 19 20  1  0  0  0
 20 21  1  0  0  0
 21 22  1  0  0  0
 13  8  1  0  0  0
  5  1  1  0  0  0
 19 14  1  0  0  0
 22 20  1  0  0  0
M  END
> <minimizedAffinity>
-5.73440

> <CNNscore>
0.3134286702

> <CNNaffinity>
5.1704683304

> <CNN_VS>
1.6205730438

> <CNNaffinity_variance>
0.2046588957

$$$$
[H]c1nc([H])c(N2C(=O)N(c3c([H])c([H])c(Cl)c([H])c3[H])C([H])([H])C2([H])[H])c(C2([H])C([H])([H])C2([H])[H])c1[H]


 22 25  0  0  0  0  0  0  0  0999 V2000
    3.1557    4.9744   12.9956 N   0  0  0  0  0  0  0  0  0  0  0  0
    2.4463    5.9459   13.7776 C   0  0  0  0  0  0  0  0  0  0  0  0
    1.9751    5.2056   15.0155 C   0  0  0  0  0  0  0  0  0  0  0  0
    2.6141    3.9211   15.0223 N   0  0  0  0  0  0  0  0  0  0  0  0
    2.8684    3.7058   13.5972 C   0  0  0  0  0  0  0  0  0  0  0  0
    2.8500    2.6335   12.9706 O   0  0  0  0  0  0  0  0  0  0  0  0
    6.1717    6.6926    8.1553 Cl  0  0  0  0  0  0  0  0  0  0  0  0
    5.3168    6.1392    9.5957 C   0  0  0  0  0  0  0  0  0  0  0  0
    5.7816    5.0580   10.3484 C   0  0  0  0  0  0  0  0  0  0  0  0
    5.0933    4.6458   11.4860 C   0  0  0  0  0  0  0  0  0  0  0  0
    3.9645    5.2981   11.8645 C   0  0  0  0  0  0  0  0  0  0  0  0
    3.5256    6.3771   11.0866 C   0  0  0  0  0  0  0  0  0  0  0  0
    4.1774    6.8038    9.9704 C   0  0  0  0  0  0  0  0  0  0  0  0
    3.0045    2.9960   16.0200 C   0  0  0  0  0  0  0  0  0  0  0  0
    2.2062    1.8495   16.2626 C   0  0  0  0  0  0  0  0  0  0  0  0
    2.5404    0.9046   17.1432 N   0  0  0  0  0  0  0  0  0  0  0  0
    3.6543    0.9583   17.8676 C   0  0  0  0  0  0  0  0  0  0  0  0
    4.4664    2.0447   17.6776 C   0  0  0  0  0  0  0  0  0  0  0  0
    4.1297    3.0621   16.7495 C   0  0  0  0  0  0  0  0  0  0  0  0
    5.0687    4.2319   16.7140 C   0  0  0  0  0  0  0  0  0  0  0  0
    5.8164    4.6112   17.9491 C   0  0  0  0  0  0  0  0  0  0  0  0
    4.6024    5.3754   17.6823 C   0  0  0  0  0  0  0  0  0  0  0  0
  7  8  1  0  0  0
  8  9  2  0  0  0
  9 10  1  0  0  0
 10 11  2  0  0  0
 11 12  1  0  0  0
 12 13  2  0  0  0
 11  1  1  0  0  0
  1  2  1  0  0  0
  2  3  1  0  0  0
  3  4  1  0  0  0
  4  5  1  0  0  0
  5  6  2  0  0  0
  4 14  1  0  0  0
 14 15  2  0  0  0
 15 16  1  0  0  0
 16 17  2  0  0  0
 17 18  1  0  0  0
 18 19  2  0  0  0
 19 20  1  0  0  0
 20 21  1  0  0  0
 21 22  1  0  0  0
 13  8  1  0  0  0
  5  1  1  0  0  0
 19 14  1  0  0  0
 22 20  1  0  0  0
M  END
> <minimizedAffinity>
-5.47099

> <CNNscore>
0.3090728521

> <CNNaffinity>
5.2277398109

> <CNN_VS>
1.6157524586

> <CNNaffinity_variance>
0.3279023767

$$$$
[H]c1nc([H])c(N2C(=O)N(c3c([H])c([H])c(Cl)c([H])c3[H])C([H])([H])C2([H])[H])c(C2([H])C([H])([H])C2([H])[H])c1[H]


 22 25  0  0  0  0  0  0  0  0999 V2000
    3.7841    3.8448   17.0366 N   0  0  0  0  0  0  0  0  0  0  0  0
    4.8285    4.2419   16.1365 C   0  0  0  0  0  0  0  0  0  0  0  0
    4.1912    4.2651   14.7596 C   0  0  0  0  0  0  0  0  0  0  0  0
    2.7751    4.1145   14.9343 N   0  0  0  0  0  0  0  0  0  0  0  0
    2.7055    3.3953   16.2071 C   0  0  0  0  0  0  0  0  0  0  0  0
    1.8784    2.5368   16.5559 O   0  0  0  0  0  0  0  0  0  0  0  0
    4.0888    4.6751   22.9269 Cl  0  0  0  0  0  0  0  0  0  0  0  0
    4.0186    4.3741   21.1901 C   0  0  0  0  0  0  0  0  0  0  0  0
    4.3340    3.1232   20.6542 C   0  0  0  0  0  0  0  0  0  0  0  0
    4.2629    2.9086   19.2806 C   0  0  0  0  0  0  0  0  0  0  0  0
    3.8856    3.9210   18.4587 C   0  0  0  0  0  0  0  0  0  0  0  0
    3.5774    5.1628   19.0289 C   0  0  0  0  0  0  0  0  0  0  0  0
    3.6368    5.4026   20.3674 C   0  0  0  0  0  0  0  0  0  0  0  0
    1.6238    4.5118   14.2131 C   0  0  0  0  0  0  0  0  0  0  0  0
    1.1091    5.8220   14.3823 C   0  0  0  0  0  0  0  0  0  0  0  0
    0.0655    6.2873   13.6937 N   0  0  0  0  0  0  0  0  0  0  0  0
   -0.5800    5.5595   12.7870 C   0  0  0  0  0  0  0  0  0  0  0  0
   -0.1287    4.2829   12.5803 C   0  0  0  0  0  0  0  0  0  0  0  0
    0.9766    3.7668   13.3027 C   0  0  0  0  0  0  0  0  0  0  0  0
    1.3003    2.3266   13.0339 C   0  0  0  0  0  0  0  0  0  0  0  0
    2.5500    1.9804   12.2946 C   0  0  0  0  0  0  0  0  0  0  0  0
    1.3299    2.0194   11.4953 C   0  0  0  0  0  0  0  0  0  0  0  0
  7  8  1  0  0  0
  8  9  2  0  0  0
  9 10  1  0  0  0
 10 11  2  0  0  0
 11 12  1  0  0  0
 12 13  2  0  0  0
 11  1  1  0  0  0
  1  2  1  0  0  0
  2  3  1  0  0  0
  3  4  1  0  0  0
  4  5  1  0  0  0
  5  6  2  0  0  0
  4 14  1  0  0  0
 14 15  2  0  0  0
 15 16  1  0  0  0
 16 17  2  0  0  0
 17 18  1  0  0  0
 18 19  2  0  0  0
 19 20  1  0  0  0
 20 21  1  0  0  0
 21 22  1  0  0  0
 13  8  1  0  0  0
  5  1  1  0  0  0
 19 14  1  0  0  0
 22 20  1  0  0  0
M  END
> <minimizedAffinity>
-5.91907

> <CNNscore>
0.2907016873

> <CNNaffinity>
5.3702707291

> <CNN_VS>
1.5611467361

> <CNNaffinity_variance>
0.5458259583

$$$$
[H]c1nc([H])c(N2C(=O)N(c3c([H])c([H])c(Cl)c([H])c3[H])C([H])([H])C2([H])[H])c(C2([H])C([H])([H])C2([H])[H])c1[H]


 22 25  0  0  0  0  0  0  0  0999 V2000
    4.4551    4.1786   17.0874 N   0  0  0  0  0  0  0  0  0  0  0  0
    5.8384    4.5324   17.2287 C   0  0  0  0  0  0  0  0  0  0  0  0
    6.0057    4.9469   18.6788 C   0  0  0  0  0  0  0  0  0  0  0  0
    4.7972    4.6019   19.3708 N   0  0  0  0  0  0  0  0  0  0  0  0
    3.8138    4.6288   18.2873 C   0  0  0  0  0  0  0  0  0  0  0  0
    2.6219    4.9734   18.3448 O   0  0  0  0  0  0  0  0  0  0  0  0
    2.2782    1.8370   12.0620 Cl  0  0  0  0  0  0  0  0  0  0  0  0
    2.9072    2.4812   13.5789 C   0  0  0  0  0  0  0  0  0  0  0  0
    2.9001    1.7218   14.7515 C   0  0  0  0  0  0  0  0  0  0  0  0
    3.4100    2.2501   15.9342 C   0  0  0  0  0  0  0  0  0  0  0  0
    3.9158    3.5098   15.9471 C   0  0  0  0  0  0  0  0  0  0  0  0
    3.9064    4.2440   14.7543 C   0  0  0  0  0  0  0  0  0  0  0  0
    3.4159    3.7546   13.5828 C   0  0  0  0  0  0  0  0  0  0  0  0
    4.4619    4.2630   20.7036 C   0  0  0  0  0  0  0  0  0  0  0  0
    4.1499    5.2901   21.6299 C   0  0  0  0  0  0  0  0  0  0  0  0
    3.7672    5.0456   22.8843 N   0  0  0  0  0  0  0  0  0  0  0  0
    3.6443    3.8144   23.3716 C   0  0  0  0  0  0  0  0  0  0  0  0
    3.9338    2.7792   22.5228 C   0  0  0  0  0  0  0  0  0  0  0  0
    4.3450    3.0157   21.1868 C   0  0  0  0  0  0  0  0  0  0  0  0
    4.7125    1.7896   20.4039 C   0  0  0  0  0  0  0  0  0  0  0  0
    4.6449    0.4511   21.0612 C   0  0  0  0  0  0  0  0  0  0  0  0
    5.9657    1.0694   21.0149 C   0  0  0  0  0  0  0  0  0  0  0  0
  7  8  1  0  0  0
  8  9  2  0  0  0
  9 10  1  0  0  0
 10 11  2  0  0  0
 11 12  1  0  0  0
 12 13  2  0  0  0
 11  1  1  0  0  0
  1  2  1  0  0  0
  2  3  1  0  0  0
  3  4  1  0  0  0
  4  5  1  0  0  0
  5  6  2  0  0  0
  4 14  1  0  0  0
 14 15  2  0  0  0
 15 16  1  0  0  0
 16 17  2  0  0  0
 17 18  1  0  0  0
 18 19  2  0  0  0
 19 20  1  0  0  0
 20 21  1  0  0  0
 21 22  1  0  0  0
 13  8  1  0  0  0
  5  1  1  0  0  0
 19 14  1  0  0  0
 22 20  1  0  0  0
M  END
> <minimizedAffinity>
-7.64957

> <CNNscore>
0.2879464328

> <CNNaffinity>
5.7526860237

> <CNN_VS>
1.6564654112

> <CNNaffinity_variance>
0.2173866928

$$$$
[H]N=C(N([H])[H])N([H])C([H])([H])C([H])([H])C([H])([H])[C@@]([H])(C(=O)N([H])[C@]([H])(C(=O)O[H])C([H])([H])c1c([H])c([H])c([H])c([H])c1[H])N([H])C(=O)[C@@]([H])(N([H])C(=O)[C@@]([H])(N([H])C(=O)[C@@]([H])(N([H])C(=O)[C@@]([H])(N([H])C(=O)C([H])([H])[H])C([H])([H])C([H])([H])C([H])([H])N([H])C(=N[H])N([H])[H])C([H])(C([H])([H])[H])C([H])([H])[H])C([H])([H])C([H])([H])C([H])([H])N([H])C(=N[H])N([H])[H])C([H])([H])C([H])([H])C([H])([H])N([H])C(=N[H])N([H])[H]


 89 89  0  0  0  0  0  0  0  0999 V2000
    4.9112    7.8329   16.0947 C   0  0  0  0  0  0  0  0  0  0  0  0
    6.0419    7.5479   16.5467 O   0  0  0  0  0  0  0  0  0  0  0  0
    3.7769    7.2283   16.7290 N   0  0  0  0  0  0  0  0  0  0  0  0
    2.8562    7.4208   16.3383 H   0  0  0  0  0  0  0  0  0  0  0  0
    3.9910    6.3502   17.8242 C   0  0  0  0  0  0  0  0  0  0  0  0
    3.3417    5.0124   17.5939 C   0  0  0  0  0  0  0  0  0  0  0  0
    2.0972    5.0207   17.4214 O   0  0  0  0  0  0  0  0  0  0  0  0
    4.0503    3.8226   17.5624 N   0  0  0  0  0  0  0  0  0  0  0  0
    5.0611    3.7645   17.6960 H   0  0  0  0  0  0  0  0  0  0  0  0
    3.3358    2.5296   17.3218 C   0  0  0  0  0  0  0  0  0  0  0  0
    3.7767    1.6192   18.3667 C   0  0  0  0  0  0  0  0  0  0  0  0
    3.8366    0.3737   18.0268 O   0  0  0  0  0  0  0  0  0  0  0  0
    4.1303    1.9061   19.6693 N   0  0  0  0  0  0  0  0  0  0  0  0
    4.0533    2.8639   20.0648 H   0  0  0  0  0  0  0  0  0  0  0  0
    4.5791    0.8392   20.6053 C   0  0  0  0  0  0  0  0  0  0  0  0
    3.4240    0.1536   21.1993 C   0  0  0  0  0  0  0  0  0  0  0  0
    2.8419   -0.9491   20.5689 O   0  0  0  0  0  0  0  0  0  0  0  0
    2.9312    0.5385   22.2841 O   0  0  0  0  0  0  0  0  0  0  0  0
    3.5206   -1.6658   20.2733 H   0  0  0  0  0  0  0  0  0  0  0  0
    5.5180    1.4037   21.6282 C   0  0  0  0  0  0  0  0  0  0  0  0
    5.2091    2.8077   21.9423 C   0  0  0  0  0  0  0  0  0  0  0  0
    4.0858    3.2749   22.5657 C   0  0  0  0  0  0  0  0  0  0  0  0
    3.8540    4.6036   22.8400 C   0  0  0  0  0  0  0  0  0  0  0  0
    4.8103    5.5199   22.4640 C   0  0  0  0  0  0  0  0  0  0  0  0
    5.9713    5.1021   21.8281 C   0  0  0  0  0  0  0  0  0  0  0  0
    6.1585    3.7590   21.5747 C   0  0  0  0  0  0  0  0  0  0  0  0
    3.4809    2.1372   15.8904 C   0  0  0  0  0  0  0  0  0  0  0  0
    2.1987    2.2039   15.1476 C   0  0  0  0  0  0  0  0  0  0  0  0
    2.4205    2.4763   13.6549 C   0  0  0  0  0  0  0  0  0  0  0  0
    1.9025    3.8256   13.4318 N   0  0  0  0  0  0  0  0  0  0  0  0
    1.0132    3.9237   12.8857 H   0  0  0  0  0  0  0  0  0  0  0  0
    2.5569    4.9747   13.9191 C   0  0  0  0  0  0  0  0  0  0  0  0
    3.9749    5.0742   13.8920 N   0  0  0  0  0  0  0  0  0  0  0  0
    1.8857    5.9705   14.4088 N   0  0  0  0  0  0  0  0  0  0  0  0
    4.4765    5.5112   13.0975 H   0  0  0  0  0  0  0  0  0  0  0  0
    4.4891    4.6767   14.7306 H   0  0  0  0  0  0  0  0  0  0  0  0
    0.8523    5.8917   14.4288 H   0  0  0  0  0  0  0  0  0  0  0  0
    3.8591    6.8305   19.1963 C   0  0  0  0  0  0  0  0  0  0  0  0
    4.3691    8.0520   19.7744 C   0  0  0  0  0  0  0  0  0  0  0  0
    5.7320    8.3107   20.2077 C   0  0  0  0  0  0  0  0  0  0  0  0
    6.3489    9.5271   19.7870 N   0  0  0  0  0  0  0  0  0  0  0  0
    5.9143   10.4751   20.0022 H   0  0  0  0  0  0  0  0  0  0  0  0
    7.5627    9.5727   19.0582 C   0  0  0  0  0  0  0  0  0  0  0  0
    8.1933    8.3742   18.6425 N   0  0  0  0  0  0  0  0  0  0  0  0
    8.1040   10.6875   18.7657 N   0  0  0  0  0  0  0  0  0  0  0  0
    9.1728    8.1978   18.8748 H   0  0  0  0  0  0  0  0  0  0  0  0
    7.6315    7.6875   18.1006 H   0  0  0  0  0  0  0  0  0  0  0  0
    7.6439   11.5706   19.0687 H   0  0  0  0  0  0  0  0  0  0  0  0
    4.8184    8.7683   14.9412 C   0  0  0  0  0  0  0  0  0  0  0  0
    6.1456    8.7486   12.7777 C   0  0  0  0  0  0  0  0  0  0  0  0
    6.2705   10.0205   12.9315 O   0  0  0  0  0  0  0  0  0  0  0  0
    5.4115    8.1075   13.7987 N   0  0  0  0  0  0  0  0  0  0  0  0
    5.2829    7.0618   13.7163 H   0  0  0  0  0  0  0  0  0  0  0  0
    6.7552    8.1139   11.6134 C   0  0  0  0  0  0  0  0  0  0  0  0
    5.6410    7.8910    9.3464 C   0  0  0  0  0  0  0  0  0  0  0  0
    5.5308    6.6515    9.2888 O   0  0  0  0  0  0  0  0  0  0  0  0
    6.2042    8.6390   10.4033 N   0  0  0  0  0  0  0  0  0  0  0  0
    6.2164    9.7021   10.2727 H   0  0  0  0  0  0  0  0  0  0  0  0
    5.0946    8.6528    8.1228 C   0  0  0  0  0  0  0  0  0  0  0  0
    7.3032    9.2025    4.9566 C   0  0  0  0  0  0  0  0  0  0  0  0
    6.3270    9.4023    6.0334 C   0  0  0  0  0  0  0  0  0  0  0  0
    5.6751   10.4876    6.0682 O   0  0  0  0  0  0  0  0  0  0  0  0
    6.0440    8.4660    7.0631 N   0  0  0  0  0  0  0  0  0  0  0  0
    6.5891    7.5762    7.0239 H   0  0  0  0  0  0  0  0  0  0  0  0
    3.7857    7.9993    7.8631 C   0  0  0  0  0  0  0  0  0  0  0  0
    2.5241    8.5560    8.3614 C   0  0  0  0  0  0  0  0  0  0  0  0
    2.1137    8.2297    9.7584 C   0  0  0  0  0  0  0  0  0  0  0  0
    1.1499    7.2190    9.8890 N   0  0  0  0  0  0  0  0  0  0  0  0
    0.8002    6.6992    9.0367 H   0  0  0  0  0  0  0  0  0  0  0  0
    0.6273    6.8794   11.1758 C   0  0  0  0  0  0  0  0  0  0  0  0
    0.5886    7.8989   12.1751 N   0  0  0  0  0  0  0  0  0  0  0  0
    0.2126    5.7072   11.4167 N   0  0  0  0  0  0  0  0  0  0  0  0
    0.5997    7.6570   13.1846 H   0  0  0  0  0  0  0  0  0  0  0  0
    0.5501    8.8919   11.8719 H   0  0  0  0  0  0  0  0  0  0  0  0
   -0.1705    5.4326   12.3416 H   0  0  0  0  0  0  0  0  0  0  0  0
    8.2521    8.1733   11.6597 C   0  0  0  0  0  0  0  0  0  0  0  0
    8.7133    8.4859   13.0818 C   0  0  0  0  0  0  0  0  0  0  0  0
    8.9430    6.9321   11.1474 C   0  0  0  0  0  0  0  0  0  0  0  0
    3.4232    9.1932   14.6804 C   0  0  0  0  0  0  0  0  0  0  0  0
    3.2862   10.6956   14.6279 C   0  0  0  0  0  0  0  0  0  0  0  0
    4.0178   11.2961   15.8099 C   0  0  0  0  0  0  0  0  0  0  0  0
    3.1040   12.1904   16.5433 N   0  0  0  0  0  0  0  0  0  0  0  0
    2.8696   13.1213   16.1302 H   0  0  0  0  0  0  0  0  0  0  0  0
    2.5779   11.7554   17.7797 C   0  0  0  0  0  0  0  0  0  0  0  0
    3.4871   11.4434   18.8488 N   0  0  0  0  0  0  0  0  0  0  0  0
    1.3294   11.6252   17.9891 N   0  0  0  0  0  0  0  0  0  0  0  0
    3.9000   12.2368   19.3646 H   0  0  0  0  0  0  0  0  0  0  0  0
    3.7419   10.4772   19.1156 H   0  0  0  0  0  0  0  0  0  0  0  0
    0.5760   11.8160   17.3029 H   0  0  0  0  0  0  0  0  0  0  0  0
 60 61  1  0  0  0
 61 62  2  0  0  0
 61 63  1  0  0  0
 63 59  1  0  0  0
 59 65  1  0  0  0
 65 66  1  0  0  0
 66 67  1  0  0  0
 67 68  1  0  0  0
 68 70  1  0  0  0
 70 71  1  0  0  0
 70 72  2  0  0  0
 59 55  1  0  0  0
 55 56  2  0  0  0
 55 57  1  0  0  0
 57 54  1  0  0  0
 54 76  1  0  0  0
 76 77  1  0  0  0
 76 78  1  0  0  0
 54 50  1  0  0  0
 50 51  2  0  0  0
 50 52  1  0  0  0
 52 49  1  0  0  0
 49 79  1  0  0  0
 79 80  1  0  0  0
 80 81  1  0  0  0
 81 82  1  0  0  0
 82 84  1  0  0  0
 84 85  1  0  0  0
 84 86  2  0  0  0
 49  1  1  0  0  0
  1  2  2  0  0  0
  1  3  1  0  0  0
  3  5  1  0  0  0
  5 38  1  0  0  0
 38 39  1  0  0  0
 39 40  1  0  0  0
 40 41  1  0  0  0
 41 43  1  0  0  0
 43 44  1  0  0  0
 43 45  2  0  0  0
  5  6  1  0  0  0
  6  7  2  0  0  0
  6  8  1  0  0  0
  8 10  1  0  0  0
 10 27  1  0  0  0
 27 28  1  0  0  0
 28 29  1  0  0  0
 29 30  1  0  0  0
 30 32  1  0  0  0
 32 33  1  0  0  0
 32 34  2  0  0  0
 10 11  1  0  0  0
 11 12  2  0  0  0
 11 13  1  0  0  0
 13 15  1  0  0  0
 15 20  1  0  0  0
 20 21  1  0  0  0
 21 22  2  0  0  0
 22 23  1  0  0  0
 23 24  2  0  0  0
 24 25  1  0  0  0
 25 26  2  0  0  0
 15 16  1  0  0  0
 16 17  1  0  0  0
 16 18  2  0  0  0
 26 21  1  0  0  0
 63 64  1  0  0  0
 68 69  1  0  0  0
 71 73  1  0  0  0
 71 74  1  0  0  0
 72 75  1  0  0  0
 57 58  1  0  0  0
 52 53  1  0  0  0
 82 83  1  0  0  0
 85 87  1  0  0  0
 85 88  1  0  0  0
 86 89  1  0  0  0
  3  4  1  0  0  0
 41 42  1  0  0  0
 44 46  1  0  0  0
 44 47  1  0  0  0
 45 48  1  0  0  0
  8  9  1  0  0  0
 30 31  1  0  0  0
 33 35  1  0  0  0
 33 36  1  0  0  0
 34 37  1  0  0  0
 13 14  1  0  0  0
 17 19  1  0  0  0
M  END
> <minimizedAffinity>
-7.98525

> <CNNscore>
0.4718685448

> <CNNaffinity>
7.2876000404

> <CNN_VS>
3.4387891293

> <CNNaffinity_variance>
0.8033761978

$$$$
[H]N=C(N([H])[H])N([H])C([H])([H])C([H])([H])C([H])([H])[C@@]([H])(C(=O)N([H])[C@]([H])(C(=O)O[H])C([H])([H])c1c([H])c([H])c([H])c([H])c1[H])N([H])C(=O)[C@@]([H])(N([H])C(=O)[C@@]([H])(N([H])C(=O)[C@@]([H])(N([H])C(=O)[C@@]([H])(N([H])C(=O)C([H])([H])[H])C([H])([H])C([H])([H])C([H])([H])N([H])C(=N[H])N([H])[H])C([H])(C([H])([H])[H])C([H])([H])[H])C([H])([H])C([H])([H])C([H])([H])N([H])C(=N[H])N([H])[H])C([H])([H])C([H])([H])C([H])([H])N([H])C(=N[H])N([H])[H]


 89 89  0  0  0  0  0  0  0  0999 V2000
    4.0630    6.9426   17.5716 C   0  0  0  0  0  0  0  0  0  0  0  0
    5.2621    6.8856   17.2208 O   0  0  0  0  0  0  0  0  0  0  0  0
    3.1006    6.2867   16.7362 N   0  0  0  0  0  0  0  0  0  0  0  0
    2.1178    6.3666   16.9916 H   0  0  0  0  0  0  0  0  0  0  0  0
    3.5507    5.6133   15.5699 C   0  0  0  0  0  0  0  0  0  0  0  0
    3.0032    6.2480   14.3202 C   0  0  0  0  0  0  0  0  0  0  0  0
    2.6698    7.4559   14.4103 O   0  0  0  0  0  0  0  0  0  0  0  0
    2.8681    5.5664   13.1218 N   0  0  0  0  0  0  0  0  0  0  0  0
    3.1256    4.5858   12.9987 H   0  0  0  0  0  0  0  0  0  0  0  0
    2.3205    6.2666   11.9178 C   0  0  0  0  0  0  0  0  0  0  0  0
    1.0927    5.5714   11.5647 C   0  0  0  0  0  0  0  0  0  0  0  0
    0.5319    4.9152   12.5266 O   0  0  0  0  0  0  0  0  0  0  0  0
    0.4543    5.5132   10.3428 N   0  0  0  0  0  0  0  0  0  0  0  0
    0.8550    5.9482    9.4885 H   0  0  0  0  0  0  0  0  0  0  0  0
   -0.8176    4.7602   10.1661 C   0  0  0  0  0  0  0  0  0  0  0  0
   -0.5558    3.4281    9.6057 C   0  0  0  0  0  0  0  0  0  0  0  0
   -1.4689    2.3848    9.7782 O   0  0  0  0  0  0  0  0  0  0  0  0
    0.4907    3.1927    8.9597 O   0  0  0  0  0  0  0  0  0  0  0  0
   -2.4409    2.6406    9.5514 H   0  0  0  0  0  0  0  0  0  0  0  0
   -1.7888    5.5604    9.3520 C   0  0  0  0  0  0  0  0  0  0  0  0
   -3.0622    5.7653   10.0603 C   0  0  0  0  0  0  0  0  0  0  0  0
   -3.2803    5.6212   11.4021 C   0  0  0  0  0  0  0  0  0  0  0  0
   -4.4959    5.8337   12.0115 C   0  0  0  0  0  0  0  0  0  0  0  0
   -5.5587    6.2145   11.2234 C   0  0  0  0  0  0  0  0  0  0  0  0
   -5.3950    6.3769    9.8546 C   0  0  0  0  0  0  0  0  0  0  0  0
   -4.1566    6.1521    9.2897 C   0  0  0  0  0  0  0  0  0  0  0  0
    3.3981    6.4263   10.8993 C   0  0  0  0  0  0  0  0  0  0  0  0
    4.4912    5.4376   11.0653 C   0  0  0  0  0  0  0  0  0  0  0  0
    5.7995    5.9254   10.4312 C   0  0  0  0  0  0  0  0  0  0  0  0
    6.3000    6.9597   11.3360 N   0  0  0  0  0  0  0  0  0  0  0  0
    5.5985    7.4987   11.8980 H   0  0  0  0  0  0  0  0  0  0  0  0
    7.6735    7.2471   11.4665 C   0  0  0  0  0  0  0  0  0  0  0  0
    8.6231    6.7014   10.5600 N   0  0  0  0  0  0  0  0  0  0  0  0
    8.1099    8.0127   12.4180 N   0  0  0  0  0  0  0  0  0  0  0  0
    8.9201    7.2111    9.7080 H   0  0  0  0  0  0  0  0  0  0  0  0
    9.0099    5.7445   10.8055 H   0  0  0  0  0  0  0  0  0  0  0  0
    7.4138    8.4057   13.0779 H   0  0  0  0  0  0  0  0  0  0  0  0
    3.5726    4.1546   15.5179 C   0  0  0  0  0  0  0  0  0  0  0  0
    2.4738    3.2324   15.6861 C   0  0  0  0  0  0  0  0  0  0  0  0
    2.4860    1.8024   15.4262 C   0  0  0  0  0  0  0  0  0  0  0  0
    2.0923    0.9266   16.4822 N   0  0  0  0  0  0  0  0  0  0  0  0
    1.1286    0.4740   16.4998 H   0  0  0  0  0  0  0  0  0  0  0  0
    2.9318    0.5982   17.5749 C   0  0  0  0  0  0  0  0  0  0  0  0
    2.4911   -0.3110   18.5679 N   0  0  0  0  0  0  0  0  0  0  0  0
    4.0917    1.1126   17.6813 N   0  0  0  0  0  0  0  0  0  0  0  0
    2.5132   -0.0487   19.5555 H   0  0  0  0  0  0  0  0  0  0  0  0
    2.1470   -1.2427   18.2610 H   0  0  0  0  0  0  0  0  0  0  0  0
    4.4197    1.7808   16.9538 H   0  0  0  0  0  0  0  0  0  0  0  0
    3.7179    7.6798   18.8173 C   0  0  0  0  0  0  0  0  0  0  0  0
    4.1785    5.7453   20.3946 C   0  0  0  0  0  0  0  0  0  0  0  0
    3.2378    5.1185   19.7788 O   0  0  0  0  0  0  0  0  0  0  0  0
    4.4285    7.0460   19.9068 N   0  0  0  0  0  0  0  0  0  0  0  0
    5.1935    7.6000   20.3808 H   0  0  0  0  0  0  0  0  0  0  0  0
    4.8741    5.0772   21.4901 C   0  0  0  0  0  0  0  0  0  0  0  0
    6.8167    6.5266   22.2358 C   0  0  0  0  0  0  0  0  0  0  0  0
    7.6550    6.2144   21.3690 O   0  0  0  0  0  0  0  0  0  0  0  0
    5.4991    6.0322   22.3509 N   0  0  0  0  0  0  0  0  0  0  0  0
    4.9227    6.4155   23.1684 H   0  0  0  0  0  0  0  0  0  0  0  0
    7.3012    7.5617   23.2701 C   0  0  0  0  0  0  0  0  0  0  0  0
   10.1554    6.8554   25.8314 C   0  0  0  0  0  0  0  0  0  0  0  0
    9.0165    7.4694   25.1398 C   0  0  0  0  0  0  0  0  0  0  0  0
    8.5110    8.5257   25.6220 O   0  0  0  0  0  0  0  0  0  0  0  0
    8.4173    6.9715   23.9523 N   0  0  0  0  0  0  0  0  0  0  0  0
    8.8423    6.0995   23.5657 H   0  0  0  0  0  0  0  0  0  0  0  0
    7.6727    8.7357   22.4386 C   0  0  0  0  0  0  0  0  0  0  0  0
    6.6687    9.5481   21.7445 C   0  0  0  0  0  0  0  0  0  0  0  0
    6.9885   10.0423   20.3734 C   0  0  0  0  0  0  0  0  0  0  0  0
    8.1259    9.4811   19.7743 N   0  0  0  0  0  0  0  0  0  0  0  0
    9.0830    9.6280   20.2001 H   0  0  0  0  0  0  0  0  0  0  0  0
    8.0059    8.7039   18.5802 C   0  0  0  0  0  0  0  0  0  0  0  0
    7.6516    7.3265   18.7085 N   0  0  0  0  0  0  0  0  0  0  0  0
    8.2093    9.2271   17.4448 N   0  0  0  0  0  0  0  0  0  0  0  0
    7.9163    6.6374   17.9785 H   0  0  0  0  0  0  0  0  0  0  0  0
    7.1225    7.0249   19.5503 H   0  0  0  0  0  0  0  0  0  0  0  0
    8.1302    8.6867   16.5619 H   0  0  0  0  0  0  0  0  0  0  0  0
    3.9848    4.1143   22.2168 C   0  0  0  0  0  0  0  0  0  0  0  0
    4.4412    2.6824   21.9441 C   0  0  0  0  0  0  0  0  0  0  0  0
    3.8847    4.3564   23.7040 C   0  0  0  0  0  0  0  0  0  0  0  0
    4.0275    9.1249   18.7122 C   0  0  0  0  0  0  0  0  0  0  0  0
    3.4725    9.7353   17.4482 C   0  0  0  0  0  0  0  0  0  0  0  0
    4.6233   10.2197   16.5915 C   0  0  0  0  0  0  0  0  0  0  0  0
    4.3522    9.8878   15.1811 N   0  0  0  0  0  0  0  0  0  0  0  0
    3.3958   10.0607   14.7970 H   0  0  0  0  0  0  0  0  0  0  0  0
    5.3969    9.3473   14.3995 C   0  0  0  0  0  0  0  0  0  0  0  0
    6.2855    8.3882   14.9975 N   0  0  0  0  0  0  0  0  0  0  0  0
    5.5882    9.6746   13.1846 N   0  0  0  0  0  0  0  0  0  0  0  0
    5.9366    7.4223   15.1028 H   0  0  0  0  0  0  0  0  0  0  0  0
    7.2392    8.6214   15.3228 H   0  0  0  0  0  0  0  0  0  0  0  0
    5.0209   10.3522   12.6424 H   0  0  0  0  0  0  0  0  0  0  0  0
 60 61  1  0  0  0
 61 62  2  0  0  0
 61 63  1  0  0  0
 63 59  1  0  0  0
 59 65  1  0  0  0
 65 66  1  0  0  0
 66 67  1  0  0  0
 67 68  1  0  0  0
 68 70  1  0  0  0
 70 71  1  0  0  0
 70 72  2  0  0  0
 59 55  1  0  0  0
 55 56  2  0  0  0
 55 57  1  0  0  0
 57 54  1  0  0  0
 54 76  1  0  0  0
 76 77  1  0  0  0
 76 78  1  0  0  0
 54 50  1  0  0  0
 50 51  2  0  0  0
 50 52  1  0  0  0
 52 49  1  0  0  0
 49 79  1  0  0  0
 79 80  1  0  0  0
 80 81  1  0  0  0
 81 82  1  0  0  0
 82 84  1  0  0  0
 84 85  1  0  0  0
 84 86  2  0  0  0
 49  1  1  0  0  0
  1  2  2  0  0  0
  1  3  1  0  0  0
  3  5  1  0  0  0
  5 38  1  0  0  0
 38 39  1  0  0  0
 39 40  1  0  0  0
 40 41  1  0  0  0
 41 43  1  0  0  0
 43 44  1  0  0  0
 43 45  2  0  0  0
  5  6  1  0  0  0
  6  7  2  0  0  0
  6  8  1  0  0  0
  8 10  1  0  0  0
 10 27  1  0  0  0
 27 28  1  0  0  0
 28 29  1  0  0  0
 29 30  1  0  0  0
 30 32  1  0  0  0
 32 33  1  0  0  0
 32 34  2  0  0  0
 10 11  1  0  0  0
 11 12  2  0  0  0
 11 13  1  0  0  0
 13 15  1  0  0  0
 15 20  1  0  0  0
 20 21  1  0  0  0
 21 22  2  0  0  0
 22 23  1  0  0  0
 23 24  2  0  0  0
 24 25  1  0  0  0
 25 26  2  0  0  0
 15 16  1  0  0  0
 16 17  1  0  0  0
 16 18  2  0  0  0
 26 21  1  0  0  0
 63 64  1  0  0  0
 68 69  1  0  0  0
 71 73  1  0  0  0
 71 74  1  0  0  0
 72 75  1  0  0  0
 57 58  1  0  0  0
 52 53  1  0  0  0
 82 83  1  0  0  0
 85 87  1  0  0  0
 85 88  1  0  0  0
 86 89  1  0  0  0
  3  4  1  0  0  0
 41 42  1  0  0  0
 44 46  1  0  0  0
 44 47  1  0  0  0
 45 48  1  0  0  0
  8  9  1  0  0  0
 30 31  1  0  0  0
 33 35  1  0  0  0
 33 36  1  0  0  0
 34 37  1  0  0  0
 13 14  1  0  0  0
 17 19  1  0  0  0
M  END
> <minimizedAffinity>
-7.44395

> <CNNscore>
0.2659620345

> <CNNaffinity>
6.8789672852

> <CNN_VS>
1.8295441866

> <CNNaffinity_variance>
0.6496673822

$$$$
[H]N=C(N([H])[H])N([H])C([H])([H])C([H])([H])C([H])([H])[C@@]([H])(C(=O)N([H])[C@]([H])(C(=O)O[H])C([H])([H])c1c([H])c([H])c([H])c([H])c1[H])N([H])C(=O)[C@@]([H])(N([H])C(=O)[C@@]([H])(N([H])C(=O)[C@@]([H])(N([H])C(=O)[C@@]([H])(N([H])C(=O)C([H])([H])[H])C([H])([H])C([H])([H])C([H])([H])N([H])C(=N[H])N([H])[H])C([H])(C([H])([H])[H])C([H])([H])[H])C([H])([H])C([H])([H])C([H])([H])N([H])C(=N[H])N([H])[H])C([H])([H])C([H])([H])C([H])([H])N([H])C(=N[H])N([H])[H]


 89 89  0  0  0  0  0  0  0  0999 V2000
    4.0023    4.7773   15.9162 C   0  0  0  0  0  0  0  0  0  0  0  0
    4.9268    3.9856   16.2034 O   0  0  0  0  0  0  0  0  0  0  0  0
    3.0807    4.3713   14.8962 N   0  0  0  0  0  0  0  0  0  0  0  0
    2.3519    5.0294   14.6260 H   0  0  0  0  0  0  0  0  0  0  0  0
    3.2602    3.1078   14.2735 C   0  0  0  0  0  0  0  0  0  0  0  0
    3.3705    3.2401   12.7786 C   0  0  0  0  0  0  0  0  0  0  0  0
    4.1350    4.1427   12.3552 O   0  0  0  0  0  0  0  0  0  0  0  0
    2.6852    2.4236   11.8939 N   0  0  0  0  0  0  0  0  0  0  0  0
    2.0542    1.6769   12.1889 H   0  0  0  0  0  0  0  0  0  0  0  0
    2.8500    2.6111   10.4182 C   0  0  0  0  0  0  0  0  0  0  0  0
    1.6327    3.2549    9.9502 C   0  0  0  0  0  0  0  0  0  0  0  0
    1.0289    2.6564    8.9768 O   0  0  0  0  0  0  0  0  0  0  0  0
    1.0439    4.4189   10.4000 N   0  0  0  0  0  0  0  0  0  0  0  0
    1.4819    5.0132   11.1313 H   0  0  0  0  0  0  0  0  0  0  0  0
   -0.2250    4.9260    9.8095 C   0  0  0  0  0  0  0  0  0  0  0  0
   -0.1126    6.3560    9.4937 C   0  0  0  0  0  0  0  0  0  0  0  0
   -1.1272    7.0194    8.7990 O   0  0  0  0  0  0  0  0  0  0  0  0
    0.8935    7.0171    9.8379 O   0  0  0  0  0  0  0  0  0  0  0  0
   -2.0704    6.8497    9.1773 H   0  0  0  0  0  0  0  0  0  0  0  0
   -1.3815    4.6115   10.7095 C   0  0  0  0  0  0  0  0  0  0  0  0
   -1.3595    5.4231   11.9367 C   0  0  0  0  0  0  0  0  0  0  0  0
   -2.3525    6.2487   12.3853 C   0  0  0  0  0  0  0  0  0  0  0  0
   -2.2781    6.9806   13.5485 C   0  0  0  0  0  0  0  0  0  0  0  0
   -1.1346    6.8767   14.3081 C   0  0  0  0  0  0  0  0  0  0  0  0
   -0.0941    6.0528   13.9016 C   0  0  0  0  0  0  0  0  0  0  0  0
   -0.2155    5.3387   12.7274 C   0  0  0  0  0  0  0  0  0  0  0  0
    3.2932    1.3293    9.7979 C   0  0  0  0  0  0  0  0  0  0  0  0
    4.6021    1.4505    9.1108 C   0  0  0  0  0  0  0  0  0  0  0  0
    4.8029    2.8486    8.5137 C   0  0  0  0  0  0  0  0  0  0  0  0
    6.2520    3.0424    8.4740 N   0  0  0  0  0  0  0  0  0  0  0  0
    6.8120    2.4154    7.8482 H   0  0  0  0  0  0  0  0  0  0  0  0
    6.9022    4.0283    9.2430 C   0  0  0  0  0  0  0  0  0  0  0  0
    6.4514    4.3477   10.5530 N   0  0  0  0  0  0  0  0  0  0  0  0
    7.9258    4.6739    8.7768 N   0  0  0  0  0  0  0  0  0  0  0  0
    6.8424    3.8841   11.3932 H   0  0  0  0  0  0  0  0  0  0  0  0
    5.6934    5.0870   10.6210 H   0  0  0  0  0  0  0  0  0  0  0  0
    8.2488    4.4392    7.8202 H   0  0  0  0  0  0  0  0  0  0  0  0
    2.4728    1.9540   14.6971 C   0  0  0  0  0  0  0  0  0  0  0  0
    2.2601    1.4527   16.0349 C   0  0  0  0  0  0  0  0  0  0  0  0
    3.0058    0.3981   16.7014 C   0  0  0  0  0  0  0  0  0  0  0  0
    2.8996    0.2976   18.1212 N   0  0  0  0  0  0  0  0  0  0  0  0
    2.1840   -0.3422   18.5820 H   0  0  0  0  0  0  0  0  0  0  0  0
    3.7171    1.0301   19.0166 C   0  0  0  0  0  0  0  0  0  0  0  0
    4.6052    2.0200   18.5283 N   0  0  0  0  0  0  0  0  0  0  0  0
    3.6666    0.8117   20.2701 N   0  0  0  0  0  0  0  0  0  0  0  0
    5.5965    1.9925   18.7754 H   0  0  0  0  0  0  0  0  0  0  0  0
    4.2186    2.7656   17.9158 H   0  0  0  0  0  0  0  0  0  0  0  0
    3.0153    0.0857   20.6333 H   0  0  0  0  0  0  0  0  0  0  0  0
    3.9213    6.0738   16.6420 C   0  0  0  0  0  0  0  0  0  0  0  0
    4.2209    5.6473   19.1260 C   0  0  0  0  0  0  0  0  0  0  0  0
    2.9465    5.4721   19.1724 O   0  0  0  0  0  0  0  0  0  0  0  0
    4.7212    5.9496   17.8414 N   0  0  0  0  0  0  0  0  0  0  0  0
    5.7633    6.1013   17.7531 H   0  0  0  0  0  0  0  0  0  0  0  0
    4.9978    5.5159   20.3546 C   0  0  0  0  0  0  0  0  0  0  0  0
    6.2694    7.5445   21.1902 C   0  0  0  0  0  0  0  0  0  0  0  0
    7.4099    7.2607   20.7774 O   0  0  0  0  0  0  0  0  0  0  0  0
    5.0980    6.7730   21.0279 N   0  0  0  0  0  0  0  0  0  0  0  0
    4.2045    7.1784   21.4577 H   0  0  0  0  0  0  0  0  0  0  0  0
    6.1636    8.8819   21.9493 C   0  0  0  0  0  0  0  0  0  0  0  0
    9.2299   11.1981   22.6118 C   0  0  0  0  0  0  0  0  0  0  0  0
    7.9030   10.5768   22.6896 C   0  0  0  0  0  0  0  0  0  0  0  0
    7.0747   11.0184   23.5398 O   0  0  0  0  0  0  0  0  0  0  0  0
    7.4571    9.4994   21.8789 N   0  0  0  0  0  0  0  0  0  0  0  0
    8.1498    9.1436   21.1831 H   0  0  0  0  0  0  0  0  0  0  0  0
    5.1153    9.6234   21.2017 C   0  0  0  0  0  0  0  0  0  0  0  0
    5.3688   10.2157   19.8847 C   0  0  0  0  0  0  0  0  0  0  0  0
    4.4137   11.2451   19.3802 C   0  0  0  0  0  0  0  0  0  0  0  0
    4.6523   11.7106   18.0787 N   0  0  0  0  0  0  0  0  0  0  0  0
    5.1311   12.6407   17.9220 H   0  0  0  0  0  0  0  0  0  0  0  0
    4.2506   10.9339   16.9474 C   0  0  0  0  0  0  0  0  0  0  0  0
    2.9180   10.4213   16.9241 N   0  0  0  0  0  0  0  0  0  0  0  0
    5.0574   10.7102   15.9970 N   0  0  0  0  0  0  0  0  0  0  0  0
    2.6825    9.5725   16.3746 H   0  0  0  0  0  0  0  0  0  0  0  0
    2.1851   10.9149   17.4706 H   0  0  0  0  0  0  0  0  0  0  0  0
    4.7933   10.1491   15.1645 H   0  0  0  0  0  0  0  0  0  0  0  0
    4.4845    4.4124   21.2294 C   0  0  0  0  0  0  0  0  0  0  0  0
    5.6309    3.4763   21.6069 C   0  0  0  0  0  0  0  0  0  0  0  0
    3.7636    4.8824   22.4702 C   0  0  0  0  0  0  0  0  0  0  0  0
    4.3519    7.2121   15.7970 C   0  0  0  0  0  0  0  0  0  0  0  0
    3.3378    7.5437   14.7291 C   0  0  0  0  0  0  0  0  0  0  0  0
    4.0475    7.6520   13.3959 C   0  0  0  0  0  0  0  0  0  0  0  0
    4.7168    8.9623   13.3070 N   0  0  0  0  0  0  0  0  0  0  0  0
    4.1451    9.8296   13.4211 H   0  0  0  0  0  0  0  0  0  0  0  0
    6.1087    8.9973   13.0703 C   0  0  0  0  0  0  0  0  0  0  0  0
    6.5787    9.2236   11.7305 N   0  0  0  0  0  0  0  0  0  0  0  0
    6.9685    8.8349   13.9943 N   0  0  0  0  0  0  0  0  0  0  0  0
    6.5482   10.1929   11.3764 H   0  0  0  0  0  0  0  0  0  0  0  0
    6.9361    8.4707   11.1179 H   0  0  0  0  0  0  0  0  0  0  0  0
    6.7586    8.6639   14.9951 H   0  0  0  0  0  0  0  0  0  0  0  0
 60 61  1  0  0  0
 61 62  2  0  0  0
 61 63  1  0  0  0
 63 59  1  0  0  0
 59 65  1  0  0  0
 65 66  1  0  0  0
 66 67  1  0  0  0
 67 68  1  0  0  0
 68 70  1  0  0  0
 70 71  1  0  0  0
 70 72  2  0  0  0
 59 55  1  0  0  0
 55 56  2  0  0  0
 55 57  1  0  0  0
 57 54  1  0  0  0
 54 76  1  0  0  0
 76 77  1  0  0  0
 76 78  1  0  0  0
 54 50  1  0  0  0
 50 51  2  0  0  0
 50 52  1  0  0  0
 52 49  1  0  0  0
 49 79  1  0  0  0
 79 80  1  0  0  0
 80 81  1  0  0  0
 81 82  1  0  0  0
 82 84  1  0  0  0
 84 85  1  0  0  0
 84 86  2  0  0  0
 49  1  1  0  0  0
  1  2  2  0  0  0
  1  3  1  0  0  0
  3  5  1  0  0  0
  5 38  1  0  0  0
 38 39  1  0  0  0
 39 40  1  0  0  0
 40 41  1  0  0  0
 41 43  1  0  0  0
 43 44  1  0  0  0
 43 45  2  0  0  0
  5  6  1  0  0  0
  6  7  2  0  0  0
  6  8  1  0  0  0
  8 10  1  0  0  0
 10 27  1  0  0  0
 27 28  1  0  0  0
 28 29  1  0  0  0
 29 30  1  0  0  0
 30 32  1  0  0  0
 32 33  1  0  0  0
 32 34  2  0  0  0
 10 11  1  0  0  0
 11 12  2  0  0  0
 11 13  1  0  0  0
 13 15  1  0  0  0
 15 20  1  0  0  0
 20 21  1  0  0  0
 21 22  2  0  0  0
 22 23  1  0  0  0
 23 24  2  0  0  0
 24 25  1  0  0  0
 25 26  2  0  0  0
 15 16  1  0  0  0
 16 17  1  0  0  0
 16 18  2  0  0  0
 26 21  1  0  0  0
 63 64  1  0  0  0
 68 69  1  0  0  0
 71 73  1  0  0  0
 71 74  1  0  0  0
 72 75  1  0  0  0
 57 58  1  0  0  0
 52 53  1  0  0  0
 82 83  1  0  0  0
 85 87  1  0  0  0
 85 88  1  0  0  0
 86 89  1  0  0  0
  3  4  1  0  0  0
 41 42  1  0  0  0
 44 46  1  0  0  0
 44 47  1  0  0  0
 45 48  1  0  0  0
  8  9  1  0  0  0
 30 31  1  0  0  0
 33 35  1  0  0  0
 33 36  1  0  0  0
 34 37  1  0  0  0
 13 14  1  0  0  0
 17 19  1  0  0  0
M  END
> <minimizedAffinity>
-7.17641

> <CNNscore>
0.2503407300

> <CNNaffinity>
7.1063928604

> <CNN_VS>
1.7790195942

> <CNNaffinity_variance>
1.0444297791

$$$$
[H]N=C(N([H])[H])N([H])C([H])([H])C([H])([H])C([H])([H])[C@@]([H])(C(=O)N([H])[C@]([H])(C(=O)O[H])C([H])([H])c1c([H])c([H])c([H])c([H])c1[H])N([H])C(=O)[C@@]([H])(N([H])C(=O)[C@@]([H])(N([H])C(=O)[C@@]([H])(N([H])C(=O)[C@@]([H])(N([H])C(=O)C([H])([H])[H])C([H])([H])C([H])([H])C([H])([H])N([H])C(=N[H])N([H])[H])C([H])(C([H])([H])[H])C([H])([H])[H])C([H])([H])C([H])([H])C([H])([H])N([H])C(=N[H])N([H])[H])C([H])([H])C([H])([H])C([H])([H])N([H])C(=N[H])N([H])[H]


 89 89  0  0  0  0  0  0  0  0999 V2000
    3.1711    7.2840   13.9721 C   0  0  0  0  0  0  0  0  0  0  0  0
    4.1661    7.3821   13.2209 O   0  0  0  0  0  0  0  0  0  0  0  0
    3.3917    7.4345   15.3804 N   0  0  0  0  0  0  0  0  0  0  0  0
    2.5939    7.3117   16.0014 H   0  0  0  0  0  0  0  0  0  0  0  0
    4.7099    7.6857   15.8449 C   0  0  0  0  0  0  0  0  0  0  0  0
    5.0184    6.8918   17.0854 C   0  0  0  0  0  0  0  0  0  0  0  0
    6.0733    7.1995   17.6944 O   0  0  0  0  0  0  0  0  0  0  0  0
    4.2017    5.8774   17.5575 N   0  0  0  0  0  0  0  0  0  0  0  0
    3.3351    5.5916   17.0989 H   0  0  0  0  0  0  0  0  0  0  0  0
    4.5711    5.1349   18.8034 C   0  0  0  0  0  0  0  0  0  0  0  0
    4.5811    3.7241   18.4499 C   0  0  0  0  0  0  0  0  0  0  0  0
    5.5640    3.3485   17.6995 O   0  0  0  0  0  0  0  0  0  0  0  0
    3.6802    2.7397   18.8010 N   0  0  0  0  0  0  0  0  0  0  0  0
    2.8190    2.9466   19.3443 H   0  0  0  0  0  0  0  0  0  0  0  0
    3.8591    1.3296   18.3587 C   0  0  0  0  0  0  0  0  0  0  0  0
    2.9894    1.0333   17.2128 C   0  0  0  0  0  0  0  0  0  0  0  0
    2.0439    0.0066   17.2760 O   0  0  0  0  0  0  0  0  0  0  0  0
    3.0721    1.6918   16.1510 O   0  0  0  0  0  0  0  0  0  0  0  0
    1.4577    0.0321   18.1229 H   0  0  0  0  0  0  0  0  0  0  0  0
    3.6551    0.3918   19.5099 C   0  0  0  0  0  0  0  0  0  0  0  0
    4.2242    0.9227   20.7587 C   0  0  0  0  0  0  0  0  0  0  0  0
    3.5344    1.2585   21.8902 C   0  0  0  0  0  0  0  0  0  0  0  0
    4.1236    1.7457   23.0347 C   0  0  0  0  0  0  0  0  0  0  0  0
    5.4909    1.9057   23.0426 C   0  0  0  0  0  0  0  0  0  0  0  0
    6.2424    1.5802   21.9218 C   0  0  0  0  0  0  0  0  0  0  0  0
    5.6062    1.0951   20.7979 C   0  0  0  0  0  0  0  0  0  0  0  0
    3.7236    5.6066   19.9362 C   0  0  0  0  0  0  0  0  0  0  0  0
    4.0326    4.9100   21.2087 C   0  0  0  0  0  0  0  0  0  0  0  0
    4.5360    5.8834   22.2814 C   0  0  0  0  0  0  0  0  0  0  0  0
    5.8958    6.2330   21.8720 N   0  0  0  0  0  0  0  0  0  0  0  0
    6.2061    5.9473   20.9124 H   0  0  0  0  0  0  0  0  0  0  0  0
    6.7834    6.9269   22.7186 C   0  0  0  0  0  0  0  0  0  0  0  0
    6.4713    8.2303   23.1930 N   0  0  0  0  0  0  0  0  0  0  0  0
    7.9098    6.3988   23.0852 N   0  0  0  0  0  0  0  0  0  0  0  0
    5.9895    8.3812   24.0979 H   0  0  0  0  0  0  0  0  0  0  0  0
    6.7600    9.0382   22.5688 H   0  0  0  0  0  0  0  0  0  0  0  0
    8.1338    5.4495   22.7343 H   0  0  0  0  0  0  0  0  0  0  0  0
    5.2364    9.0466   15.8813 C   0  0  0  0  0  0  0  0  0  0  0  0
    4.5920   10.2475   16.3599 C   0  0  0  0  0  0  0  0  0  0  0  0
    4.7074   10.8317   17.6857 C   0  0  0  0  0  0  0  0  0  0  0  0
    5.1061    9.9808   18.7599 N   0  0  0  0  0  0  0  0  0  0  0  0
    6.1322    9.7725   18.9536 H   0  0  0  0  0  0  0  0  0  0  0  0
    4.1882    9.3511   19.6360 C   0  0  0  0  0  0  0  0  0  0  0  0
    2.8832    9.0250   19.1915 N   0  0  0  0  0  0  0  0  0  0  0  0
    4.5203    9.0688   20.8324 N   0  0  0  0  0  0  0  0  0  0  0  0
    2.0645    9.3410   19.7154 H   0  0  0  0  0  0  0  0  0  0  0  0
    2.7880    8.4613   18.3233 H   0  0  0  0  0  0  0  0  0  0  0  0
    5.4782    9.3061   21.1631 H   0  0  0  0  0  0  0  0  0  0  0  0
    1.8397    7.0192   13.3626 C   0  0  0  0  0  0  0  0  0  0  0  0
    1.8151    7.6622   10.9073 C   0  0  0  0  0  0  0  0  0  0  0  0
    1.3820    8.8121   11.2910 O   0  0  0  0  0  0  0  0  0  0  0  0
    2.0527    6.7491   11.9570 N   0  0  0  0  0  0  0  0  0  0  0  0
    2.4103    5.7910   11.6910 H   0  0  0  0  0  0  0  0  0  0  0  0
    2.0177    7.4227    9.4819 C   0  0  0  0  0  0  0  0  0  0  0  0
   -0.2528    6.7487    8.5759 C   0  0  0  0  0  0  0  0  0  0  0  0
   -0.3205    5.5884    9.0242 O   0  0  0  0  0  0  0  0  0  0  0  0
    0.8118    7.6595    8.7517 N   0  0  0  0  0  0  0  0  0  0  0  0
    0.6936    8.6166    8.2855 H   0  0  0  0  0  0  0  0  0  0  0  0
   -1.4739    7.2028    7.7521 C   0  0  0  0  0  0  0  0  0  0  0  0
   -0.1644    9.3416    4.7662 C   0  0  0  0  0  0  0  0  0  0  0  0
   -0.6756    8.9399    6.0814 C   0  0  0  0  0  0  0  0  0  0  0  0
   -0.8688    9.8345    6.9568 O   0  0  0  0  0  0  0  0  0  0  0  0
   -0.9776    7.6071    6.4678 N   0  0  0  0  0  0  0  0  0  0  0  0
   -0.8126    6.8789    5.7377 H   0  0  0  0  0  0  0  0  0  0  0  0
   -2.3275    5.9878    7.6981 C   0  0  0  0  0  0  0  0  0  0  0  0
   -3.5548    5.8617    8.4902 C   0  0  0  0  0  0  0  0  0  0  0  0
   -3.7695    4.6014    9.2598 C   0  0  0  0  0  0  0  0  0  0  0  0
   -2.9743    4.4446   10.4046 N   0  0  0  0  0  0  0  0  0  0  0  0
   -2.0901    3.8654   10.3671 H   0  0  0  0  0  0  0  0  0  0  0  0
   -3.3496    5.0653   11.6368 C   0  0  0  0  0  0  0  0  0  0  0  0
   -2.3202    5.6534   12.4330 N   0  0  0  0  0  0  0  0  0  0  0  0
   -4.5608    5.0895   12.0063 N   0  0  0  0  0  0  0  0  0  0  0  0
   -2.4362    5.7627   13.4588 H   0  0  0  0  0  0  0  0  0  0  0  0
   -1.4485    5.9703   11.9648 H   0  0  0  0  0  0  0  0  0  0  0  0
   -4.8615    5.5319   12.8960 H   0  0  0  0  0  0  0  0  0  0  0  0
    3.1953    8.1794    8.9462 C   0  0  0  0  0  0  0  0  0  0  0  0
    4.2387    7.2008    8.4109 C   0  0  0  0  0  0  0  0  0  0  0  0
    2.8522    9.2053    7.8926 C   0  0  0  0  0  0  0  0  0  0  0  0
    1.1262    5.9136   14.0435 C   0  0  0  0  0  0  0  0  0  0  0  0
    0.9941    4.6943   13.1634 C   0  0  0  0  0  0  0  0  0  0  0  0
    1.4861    3.4829   13.9271 C   0  0  0  0  0  0  0  0  0  0  0  0
    2.7985    3.0736   13.3954 N   0  0  0  0  0  0  0  0  0  0  0  0
    2.8644    2.1923   12.8378 H   0  0  0  0  0  0  0  0  0  0  0  0
    3.9208    3.8893   13.6596 C   0  0  0  0  0  0  0  0  0  0  0  0
    4.6670    4.4219   12.5521 N   0  0  0  0  0  0  0  0  0  0  0  0
    4.3031    4.1732   14.8398 N   0  0  0  0  0  0  0  0  0  0  0  0
    4.2625    5.2317   12.0555 H   0  0  0  0  0  0  0  0  0  0  0  0
    5.5723    4.0339   12.2366 H   0  0  0  0  0  0  0  0  0  0  0  0
    3.8533    3.8520   15.7170 H   0  0  0  0  0  0  0  0  0  0  0  0
 60 61  1  0  0  0
 61 62  2  0  0  0
 61 63  1  0  0  0
 63 59  1  0  0  0
 59 65  1  0  0  0
 65 66  1  0  0  0
 66 67  1  0  0  0
 67 68  1  0  0  0
 68 70  1  0  0  0
 70 71  1  0  0  0
 70 72  2  0  0  0
 59 55  1  0  0  0
 55 56  2  0  0  0
 55 57  1  0  0  0
 57 54  1  0  0  0
 54 76  1  0  0  0
 76 77  1  0  0  0
 76 78  1  0  0  0
 54 50  1  0  0  0
 50 51  2  0  0  0
 50 52  1  0  0  0
 52 49  1  0  0  0
 49 79  1  0  0  0
 79 80  1  0  0  0
 80 81  1  0  0  0
 81 82  1  0  0  0
 82 84  1  0  0  0
 84 85  1  0  0  0
 84 86  2  0  0  0
 49  1  1  0  0  0
  1  2  2  0  0  0
  1  3  1  0  0  0
  3  5  1  0  0  0
  5 38  1  0  0  0
 38 39  1  0  0  0
 39 40  1  0  0  0
 40 41  1  0  0  0
 41 43  1  0  0  0
 43 44  1  0  0  0
 43 45  2  0  0  0
  5  6  1  0  0  0
  6  7  2  0  0  0
  6  8  1  0  0  0
  8 10  1  0  0  0
 10 27  1  0  0  0
 27 28  1  0  0  0
 28 29  1  0  0  0
 29 30  1  0  0  0
 30 32  1  0  0  0
 32 33  1  0  0  0
 32 34  2  0  0  0
 10 11  1  0  0  0
 11 12  2  0  0  0
 11 13  1  0  0  0
 13 15  1  0  0  0
 15 20  1  0  0  0
 20 21  1  0  0  0
 21 22  2  0  0  0
 22 23  1  0  0  0
 23 24  2  0  0  0
 24 25  1  0  0  0
 25 26  2  0  0  0
 15 16  1  0  0  0
 16 17  1  0  0  0
 16 18  2  0  0  0
 26 21  1  0  0  0
 63 64  1  0  0  0
 68 69  1  0  0  0
 71 73  1  0  0  0
 71 74  1  0  0  0
 72 75  1  0  0  0
 57 58  1  0  0  0
 52 53  1  0  0  0
 82 83  1  0  0  0
 85 87  1  0  0  0
 85 88  1  0  0  0
 86 89  1  0  0  0
  3  4  1  0  0  0
 41 42  1  0  0  0
 44 46  1  0  0  0
 44 47  1  0  0  0
 45 48  1  0  0  0
  8  9  1  0  0  0
 30 31  1  0  0  0
 33 35  1  0  0  0
 33 36  1  0  0  0
 34 37  1  0  0  0
 13 14  1  0  0  0
 17 19  1  0  0  0
M  END
> <minimizedAffinity>
-7.52614

> <CNNscore>
0.2365243286

> <CNNaffinity>
6.8406195641

> <CNN_VS>
1.6179729700

> <CNNaffinity_variance>
1.1026628017

$$$$
[H]N=C(N([H])[H])N([H])C([H])([H])C([H])([H])C([H])([H])[C@@]([H])(C(=O)N([H])[C@]([H])(C(=O)O[H])C([H])([H])c1c([H])c([H])c([H])c([H])c1[H])N([H])C(=O)[C@@]([H])(N([H])C(=O)[C@@]([H])(N([H])C(=O)[C@@]([H])(N([H])C(=O)[C@@]([H])(N([H])C(=O)C([H])([H])[H])C([H])([H])C([H])([H])C([H])([H])N([H])C(=N[H])N([H])[H])C([H])(C([H])([H])[H])C([H])([H])[H])C([H])([H])C([H])([H])C([H])([H])N([H])C(=N[H])N([H])[H])C([H])([H])C([H])([H])C([H])([H])N([H])C(=N[H])N([H])[H]


 89 89  0  0  0  0  0  0  0  0999 V2000
    2.6170    5.3473   15.1866 C   0  0  0  0  0  0  0  0  0  0  0  0
    1.8297    4.7028   15.9138 O   0  0  0  0  0  0  0  0  0  0  0  0
    3.9388    5.5789   15.6903 N   0  0  0  0  0  0  0  0  0  0  0  0
    4.5710    6.1409   15.1229 H   0  0  0  0  0  0  0  0  0  0  0  0
    4.2835    5.0705   16.9705 C   0  0  0  0  0  0  0  0  0  0  0  0
    4.3923    6.1715   17.9905 C   0  0  0  0  0  0  0  0  0  0  0  0
    3.5695    6.1338   18.9391 O   0  0  0  0  0  0  0  0  0  0  0  0
    5.3395    7.1797   17.9178 N   0  0  0  0  0  0  0  0  0  0  0  0
    6.0290    7.2526   17.1680 H   0  0  0  0  0  0  0  0  0  0  0  0
    5.3907    8.2389   18.9740 C   0  0  0  0  0  0  0  0  0  0  0  0
    5.9307    7.6019   20.1648 C   0  0  0  0  0  0  0  0  0  0  0  0
    7.2205    7.5786   20.2436 O   0  0  0  0  0  0  0  0  0  0  0  0
    5.2520    7.0147   21.2129 N   0  0  0  0  0  0  0  0  0  0  0  0
    4.2173    6.9190   21.2171 H   0  0  0  0  0  0  0  0  0  0  0  0
    5.9749    6.4207   22.3707 C   0  0  0  0  0  0  0  0  0  0  0  0
    6.8625    7.4135   22.9901 C   0  0  0  0  0  0  0  0  0  0  0  0
    6.4353    8.7275   23.1977 O   0  0  0  0  0  0  0  0  0  0  0  0
    8.0232    7.1093   23.3478 O   0  0  0  0  0  0  0  0  0  0  0  0
    5.5124    8.7986   23.6504 H   0  0  0  0  0  0  0  0  0  0  0  0
    6.6900    5.1712   21.9539 C   0  0  0  0  0  0  0  0  0  0  0  0
    5.8344    3.9806   22.0785 C   0  0  0  0  0  0  0  0  0  0  0  0
    5.9753    2.8016   21.4010 C   0  0  0  0  0  0  0  0  0  0  0  0
    5.1453    1.7160   21.5645 C   0  0  0  0  0  0  0  0  0  0  0  0
    4.1090    1.8217   22.4647 C   0  0  0  0  0  0  0  0  0  0  0  0
    3.9184    2.9951   23.1813 C   0  0  0  0  0  0  0  0  0  0  0  0
    4.7771    4.0565   22.9827 C   0  0  0  0  0  0  0  0  0  0  0  0
    4.0764    8.9401   19.0427 C   0  0  0  0  0  0  0  0  0  0  0  0
    4.2123   10.3732   19.4005 C   0  0  0  0  0  0  0  0  0  0  0  0
    5.2959   11.0667   18.5660 C   0  0  0  0  0  0  0  0  0  0  0  0
    6.1687   11.7203   19.5407 N   0  0  0  0  0  0  0  0  0  0  0  0
    5.8914   12.6706   19.8851 H   0  0  0  0  0  0  0  0  0  0  0  0
    7.3511   11.1190   20.0165 C   0  0  0  0  0  0  0  0  0  0  0  0
    8.4867   10.9737   19.1735 N   0  0  0  0  0  0  0  0  0  0  0  0
    7.4354   10.6783   21.2333 N   0  0  0  0  0  0  0  0  0  0  0  0
    9.2375   11.6872   19.1410 H   0  0  0  0  0  0  0  0  0  0  0  0
    8.5217   10.0942   18.5811 H   0  0  0  0  0  0  0  0  0  0  0  0
    6.6037   10.7842   21.8428 H   0  0  0  0  0  0  0  0  0  0  0  0
    5.3159    4.0478   17.1087 C   0  0  0  0  0  0  0  0  0  0  0  0
    5.1656    2.6658   17.5010 C   0  0  0  0  0  0  0  0  0  0  0  0
    3.9667    2.0313   18.0229 C   0  0  0  0  0  0  0  0  0  0  0  0
    2.7566    2.1725   17.2793 N   0  0  0  0  0  0  0  0  0  0  0  0
    2.1175    3.0140   17.4107 H   0  0  0  0  0  0  0  0  0  0  0  0
    2.3118    1.2213   16.3285 C   0  0  0  0  0  0  0  0  0  0  0  0
    1.9596    1.6298   15.0185 N   0  0  0  0  0  0  0  0  0  0  0  0
    2.2224   -0.0114   16.6348 N   0  0  0  0  0  0  0  0  0  0  0  0
    1.0480    1.3833   14.6276 H   0  0  0  0  0  0  0  0  0  0  0  0
    2.6516    2.1837   14.4754 H   0  0  0  0  0  0  0  0  0  0  0  0
    2.4806   -0.3160   17.5959 H   0  0  0  0  0  0  0  0  0  0  0  0
    2.1355    5.8271   13.8629 C   0  0  0  0  0  0  0  0  0  0  0  0
    1.3815    4.2343   12.0362 C   0  0  0  0  0  0  0  0  0  0  0  0
    2.3605    4.6929   11.3374 O   0  0  0  0  0  0  0  0  0  0  0  0
    1.2656    4.8052   13.3218 N   0  0  0  0  0  0  0  0  0  0  0  0
    0.4763    4.4595   13.9336 H   0  0  0  0  0  0  0  0  0  0  0  0
    0.5225    3.2047   11.4597 C   0  0  0  0  0  0  0  0  0  0  0  0
   -1.5647    4.5888   11.0618 C   0  0  0  0  0  0  0  0  0  0  0  0
   -1.8253    4.9158   12.2352 O   0  0  0  0  0  0  0  0  0  0  0  0
   -0.4834    3.7903   10.6296 N   0  0  0  0  0  0  0  0  0  0  0  0
   -0.4233    3.6106    9.5753 H   0  0  0  0  0  0  0  0  0  0  0  0
   -2.5423    5.1307   10.0004 C   0  0  0  0  0  0  0  0  0  0  0  0
   -6.0562    6.5068   10.9823 C   0  0  0  0  0  0  0  0  0  0  0  0
   -4.9574    5.8754   10.2431 C   0  0  0  0  0  0  0  0  0  0  0  0
   -5.1944    5.3968    9.0947 O   0  0  0  0  0  0  0  0  0  0  0  0
   -3.6232    5.7496   10.7131 N   0  0  0  0  0  0  0  0  0  0  0  0
   -3.4413    6.1468   11.6616 H   0  0  0  0  0  0  0  0  0  0  0  0
   -1.7169    6.0953    9.2284 C   0  0  0  0  0  0  0  0  0  0  0  0
   -2.0588    6.4926    7.8591 C   0  0  0  0  0  0  0  0  0  0  0  0
   -0.9823    6.4577    6.8264 C   0  0  0  0  0  0  0  0  0  0  0  0
   -0.9099    7.5777    5.9850 N   0  0  0  0  0  0  0  0  0  0  0  0
   -1.3645    7.5603    5.0301 H   0  0  0  0  0  0  0  0  0  0  0  0
   -0.2200    8.7567    6.4074 C   0  0  0  0  0  0  0  0  0  0  0  0
    1.2077    8.7282    6.4274 N   0  0  0  0  0  0  0  0  0  0  0  0
   -0.8614    9.7928    6.7527 N   0  0  0  0  0  0  0  0  0  0  0  0
    1.7448    9.3549    7.0570 H   0  0  0  0  0  0  0  0  0  0  0  0
    1.7012    8.0649    5.7982 H   0  0  0  0  0  0  0  0  0  0  0  0
   -0.3869   10.6618    7.0644 H   0  0  0  0  0  0  0  0  0  0  0  0
    1.3128    2.1340   10.7703 C   0  0  0  0  0  0  0  0  0  0  0  0
    1.5390    2.5179    9.3094 C   0  0  0  0  0  0  0  0  0  0  0  0
    2.6287    1.8035   11.4334 C   0  0  0  0  0  0  0  0  0  0  0  0
    1.4612    7.1428   13.9598 C   0  0  0  0  0  0  0  0  0  0  0  0
    1.4180    7.8593   12.6319 C   0  0  0  0  0  0  0  0  0  0  0  0
    2.8135    8.3337   12.2851 C   0  0  0  0  0  0  0  0  0  0  0  0
    3.2349    7.7160   11.0149 N   0  0  0  0  0  0  0  0  0  0  0  0
    4.1262    7.1710   10.9901 H   0  0  0  0  0  0  0  0  0  0  0  0
    2.4169    7.8837    9.8759 C   0  0  0  0  0  0  0  0  0  0  0  0
    1.7876    6.7275    9.2978 N   0  0  0  0  0  0  0  0  0  0  0  0
    2.2131    9.0178    9.3355 N   0  0  0  0  0  0  0  0  0  0  0  0
    0.9522    6.3552    9.7767 H   0  0  0  0  0  0  0  0  0  0  0  0
    2.1314    6.2609    8.4411 H   0  0  0  0  0  0  0  0  0  0  0  0
    2.6081    9.9217    9.6547 H   0  0  0  0  0  0  0  0  0  0  0  0
 60 61  1  0  0  0
 61 62  2  0  0  0
 61 63  1  0  0  0
 63 59  1  0  0  0
 59 65  1  0  0  0
 65 66  1  0  0  0
 66 67  1  0  0  0
 67 68  1  0  0  0
 68 70  1  0  0  0
 70 71  1  0  0  0
 70 72  2  0  0  0
 59 55  1  0  0  0
 55 56  2  0  0  0
 55 57  1  0  0  0
 57 54  1  0  0  0
 54 76  1  0  0  0
 76 77  1  0  0  0
 76 78  1  0  0  0
 54 50  1  0  0  0
 50 51  2  0  0  0
 50 52  1  0  0  0
 52 49  1  0  0  0
 49 79  1  0  0  0
 79 80  1  0  0  0
 80 81  1  0  0  0
 81 82  1  0  0  0
 82 84  1  0  0  0
 84 85  1  0  0  0
 84 86  2  0  0  0
 49  1  1  0  0  0
  1  2  2  0  0  0
  1  3  1  0  0  0
  3  5  1  0  0  0
  5 38  1  0  0  0
 38 39  1  0  0  0
 39 40  1  0  0  0
 40 41  1  0  0  0
 41 43  1  0  0  0
 43 44  1  0  0  0
 43 45  2  0  0  0
  5  6  1  0  0  0
  6  7  2  0  0  0
  6  8  1  0  0  0
  8 10  1  0  0  0
 10 27  1  0  0  0
 27 28  1  0  0  0
 28 29  1  0  0  0
 29 30  1  0  0  0
 30 32  1  0  0  0
 32 33  1  0  0  0
 32 34  2  0  0  0
 10 11  1  0  0  0
 11 12  2  0  0  0
 11 13  1  0  0  0
 13 15  1  0  0  0
 15 20  1  0  0  0
 20 21  1  0  0  0
 21 22  2  0  0  0
 22 23  1  0  0  0
 23 24  2  0  0  0
 24 25  1  0  0  0
 25 26  2  0  0  0
 15 16  1  0  0  0
 16 17  1  0  0  0
 16 18  2  0  0  0
 26 21  1  0  0  0
 63 64  1  0  0  0
 68 69  1  0  0  0
 71 73  1  0  0  0
 71 74  1  0  0  0
 72 75  1  0  0  0
 57 58  1  0  0  0
 52 53  1  0  0  0
 82 83  1  0  0  0
 85 87  1  0  0  0
 85 88  1  0  0  0
 86 89  1  0  0  0
  3  4  1  0  0  0
 41 42  1  0  0  0
 44 46  1  0  0  0
 44 47  1  0  0  0
 45 48  1  0  0  0
  8  9  1  0  0  0
 30 31  1  0  0  0
 33 35  1  0  0  0
 33 36  1  0  0  0
 34 37  1  0  0  0
 13 14  1  0  0  0
 17 19  1  0  0  0
M  END
> <minimizedAffinity>
-6.99363

> <CNNscore>
0.1851815134

> <CNNaffinity>
6.9842209816

> <CNN_VS>
1.2933486700

> <CNNaffinity_variance>
0.9887436032

$$$$
[H]N=C(N([H])[H])N([H])C([H])([H])C([H])([H])C([H])([H])[C@@]([H])(C(=O)N([H])[C@]([H])(C(=O)O[H])C([H])([H])c1c([H])c([H])c([H])c([H])c1[H])N([H])C(=O)[C@@]([H])(N([H])C(=O)[C@@]([H])(N([H])C(=O)[C@@]([H])(N([H])C(=O)[C@@]([H])(N([H])C(=O)C([H])([H])[H])C([H])([H])C([H])([H])C([H])([H])N([H])C(=N[H])N([H])[H])C([H])(C([H])([H])[H])C([H])([H])[H])C([H])([H])C([H])([H])C([H])([H])N([H])C(=N[H])N([H])[H])C([H])([H])C([H])([H])C([H])([H])N([H])C(=N[H])N([H])[H]


 89 89  0  0  0  0  0  0  0  0999 V2000
    4.0769    4.9132   16.9026 C   0  0  0  0  0  0  0  0  0  0  0  0
    5.0535    4.1945   16.5964 O   0  0  0  0  0  0  0  0  0  0  0  0
    2.9728    4.9481   15.9893 N   0  0  0  0  0  0  0  0  0  0  0  0
    2.1934    5.5654   16.2104 H   0  0  0  0  0  0  0  0  0  0  0  0
    3.0415    4.1742   14.8007 C   0  0  0  0  0  0  0  0  0  0  0  0
    2.7606    5.0099   13.5812 C   0  0  0  0  0  0  0  0  0  0  0  0
    3.3745    6.1033   13.5029 O   0  0  0  0  0  0  0  0  0  0  0  0
    1.8846    4.6196   12.5816 N   0  0  0  0  0  0  0  0  0  0  0  0
    1.3637    3.7414   12.5995 H   0  0  0  0  0  0  0  0  0  0  0  0
    1.6602    5.5020   11.3937 C   0  0  0  0  0  0  0  0  0  0  0  0
    0.3026    6.0099   11.5132 C   0  0  0  0  0  0  0  0  0  0  0  0
   -0.0373    6.8934   10.6334 O   0  0  0  0  0  0  0  0  0  0  0  0
   -0.6635    5.6811   12.4419 N   0  0  0  0  0  0  0  0  0  0  0  0
   -0.4734    5.0334   13.2318 H   0  0  0  0  0  0  0  0  0  0  0  0
   -2.0196    6.2939   12.4020 C   0  0  0  0  0  0  0  0  0  0  0  0
   -2.3410    6.9214   13.6905 C   0  0  0  0  0  0  0  0  0  0  0  0
   -1.4705    6.8137   14.7781 O   0  0  0  0  0  0  0  0  0  0  0  0
   -3.4015    7.5681   13.8481 O   0  0  0  0  0  0  0  0  0  0  0  0
   -0.4906    7.0365   14.5506 H   0  0  0  0  0  0  0  0  0  0  0  0
   -3.0371    5.2814   11.9708 C   0  0  0  0  0  0  0  0  0  0  0  0
   -3.9112    5.7995   10.9065 C   0  0  0  0  0  0  0  0  0  0  0  0
   -3.5575    6.0448    9.6090 C   0  0  0  0  0  0  0  0  0  0  0  0
   -4.4232    6.5248    8.6527 C   0  0  0  0  0  0  0  0  0  0  0  0
   -5.7254    6.7741    9.0234 C   0  0  0  0  0  0  0  0  0  0  0  0
   -6.1407    6.5428   10.3275 C   0  0  0  0  0  0  0  0  0  0  0  0
   -5.2358    6.0610   11.2507 C   0  0  0  0  0  0  0  0  0  0  0  0
    2.0743    4.7850   10.1533 C   0  0  0  0  0  0  0  0  0  0  0  0
    3.3368    5.3145    9.5827 C   0  0  0  0  0  0  0  0  0  0  0  0
    3.5205    6.8045    9.8953 C   0  0  0  0  0  0  0  0  0  0  0  0
    4.9407    6.9565   10.2097 N   0  0  0  0  0  0  0  0  0  0  0  0
    5.6185    6.3153    9.7320 H   0  0  0  0  0  0  0  0  0  0  0  0
    5.4118    7.9209   11.1230 C   0  0  0  0  0  0  0  0  0  0  0  0
    6.6583    8.5733   10.9179 N   0  0  0  0  0  0  0  0  0  0  0  0
    4.7248    8.2373   12.1765 N   0  0  0  0  0  0  0  0  0  0  0  0
    6.7256    9.4766   10.4146 H   0  0  0  0  0  0  0  0  0  0  0  0
    7.5141    8.0834   11.3096 H   0  0  0  0  0  0  0  0  0  0  0  0
    3.8181    7.7568   12.3228 H   0  0  0  0  0  0  0  0  0  0  0  0
    2.4389    2.8459   14.7449 C   0  0  0  0  0  0  0  0  0  0  0  0
    3.0401    1.5717   15.0632 C   0  0  0  0  0  0  0  0  0  0  0  0
    3.4356    1.0968   16.3787 C   0  0  0  0  0  0  0  0  0  0  0  0
    2.4121    0.6339   17.2591 N   0  0  0  0  0  0  0  0  0  0  0  0
    1.3845    0.6622   16.9818 H   0  0  0  0  0  0  0  0  0  0  0  0
    2.6729    0.1143   18.5509 C   0  0  0  0  0  0  0  0  0  0  0  0
    3.5816    0.7715   19.4165 N   0  0  0  0  0  0  0  0  0  0  0  0
    2.0964   -0.9473   18.9533 N   0  0  0  0  0  0  0  0  0  0  0  0
    4.3594    0.2580   19.8361 H   0  0  0  0  0  0  0  0  0  0  0  0
    3.4329    1.7826   19.6068 H   0  0  0  0  0  0  0  0  0  0  0  0
    1.4277   -1.4331   18.3209 H   0  0  0  0  0  0  0  0  0  0  0  0
    4.1251    5.6772   18.1787 C   0  0  0  0  0  0  0  0  0  0  0  0
    4.9285    4.7764   20.4115 C   0  0  0  0  0  0  0  0  0  0  0  0
    3.7977    5.1642   20.8888 O   0  0  0  0  0  0  0  0  0  0  0  0
    5.0978    5.0317   19.0337 N   0  0  0  0  0  0  0  0  0  0  0  0
    6.0111    4.7300   18.5960 H   0  0  0  0  0  0  0  0  0  0  0  0
    5.8875    4.1298   21.3018 C   0  0  0  0  0  0  0  0  0  0  0  0
    7.2606    6.2208   21.7175 C   0  0  0  0  0  0  0  0  0  0  0  0
    7.4766    6.5663   20.5403 O   0  0  0  0  0  0  0  0  0  0  0  0
    6.5264    5.0925   22.1436 N   0  0  0  0  0  0  0  0  0  0  0  0
    6.4501    4.9536   23.2030 H   0  0  0  0  0  0  0  0  0  0  0  0
    7.8704    7.1433   22.7912 C   0  0  0  0  0  0  0  0  0  0  0  0
   11.1902    9.0906   22.1643 C   0  0  0  0  0  0  0  0  0  0  0  0
   10.0947    8.3674   22.8196 C   0  0  0  0  0  0  0  0  0  0  0  0
   10.1582    8.1717   24.0692 O   0  0  0  0  0  0  0  0  0  0  0  0
    8.9453    7.8552   22.1610 N   0  0  0  0  0  0  0  0  0  0  0  0
    8.9057    8.0219   21.1309 H   0  0  0  0  0  0  0  0  0  0  0  0
    6.7349    8.0176   23.1834 C   0  0  0  0  0  0  0  0  0  0  0  0
    5.7503    8.5001   22.2099 C   0  0  0  0  0  0  0  0  0  0  0  0
    6.0518    9.7599   21.4693 C   0  0  0  0  0  0  0  0  0  0  0  0
    6.3185    9.6119   20.1002 N   0  0  0  0  0  0  0  0  0  0  0  0
    6.9379    8.8260   19.7573 H   0  0  0  0  0  0  0  0  0  0  0  0
    5.7571   10.5220   19.1511 C   0  0  0  0  0  0  0  0  0  0  0  0
    6.6526   11.3062   18.3621 N   0  0  0  0  0  0  0  0  0  0  0  0
    4.5018   10.6255   19.0185 N   0  0  0  0  0  0  0  0  0  0  0  0
    6.3539   12.2167   17.9627 H   0  0  0  0  0  0  0  0  0  0  0  0
    7.6134   10.9477   18.1953 H   0  0  0  0  0  0  0  0  0  0  0  0
    4.0669   11.2784   18.3385 H   0  0  0  0  0  0  0  0  0  0  0  0
    5.2729    2.9922   22.0597 C   0  0  0  0  0  0  0  0  0  0  0  0
    6.2046    1.7826   22.0219 C   0  0  0  0  0  0  0  0  0  0  0  0
    4.9001    3.3203   23.4857 C   0  0  0  0  0  0  0  0  0  0  0  0
    4.4358    7.1090   17.9584 C   0  0  0  0  0  0  0  0  0  0  0  0
    5.7028    7.3001   17.1605 C   0  0  0  0  0  0  0  0  0  0  0  0
    5.5267    8.4877   16.2377 C   0  0  0  0  0  0  0  0  0  0  0  0
    4.4335    8.2079   15.2894 N   0  0  0  0  0  0  0  0  0  0  0  0
    4.5278    7.3983   14.6354 H   0  0  0  0  0  0  0  0  0  0  0  0
    3.2968    9.0460   15.2995 C   0  0  0  0  0  0  0  0  0  0  0  0
    2.2628    8.8239   14.3255 N   0  0  0  0  0  0  0  0  0  0  0  0
    3.1479    9.9943   16.1351 N   0  0  0  0  0  0  0  0  0  0  0  0
    1.6171    8.0360   14.4932 H   0  0  0  0  0  0  0  0  0  0  0  0
    2.1430    9.4067   13.4795 H   0  0  0  0  0  0  0  0  0  0  0  0
    3.8181   10.2559   16.8816 H   0  0  0  0  0  0  0  0  0  0  0  0
 60 61  1  0  0  0
 61 62  2  0  0  0
 61 63  1  0  0  0
 63 59  1  0  0  0
 59 65  1  0  0  0
 65 66  1  0  0  0
 66 67  1  0  0  0
 67 68  1  0  0  0
 68 70  1  0  0  0
 70 71  1  0  0  0
 70 72  2  0  0  0
 59 55  1  0  0  0
 55 56  2  0  0  0
 55 57  1  0  0  0
 57 54  1  0  0  0
 54 76  1  0  0  0
 76 77  1  0  0  0
 76 78  1  0  0  0
 54 50  1  0  0  0
 50 51  2  0  0  0
 50 52  1  0  0  0
 52 49  1  0  0  0
 49 79  1  0  0  0
 79 80  1  0  0  0
 80 81  1  0  0  0
 81 82  1  0  0  0
 82 84  1  0  0  0
 84 85  1  0  0  0
 84 86  2  0  0  0
 49  1  1  0  0  0
  1  2  2  0  0  0
  1  3  1  0  0  0
  3  5  1  0  0  0
  5 38  1  0  0  0
 38 39  1  0  0  0
 39 40  1  0  0  0
 40 41  1  0  0  0
 41 43  1  0  0  0
 43 44  1  0  0  0
 43 45  2  0  0  0
  5  6  1  0  0  0
  6  7  2  0  0  0
  6  8  1  0  0  0
  8 10  1  0  0  0
 10 27  1  0  0  0
 27 28  1  0  0  0
 28 29  1  0  0  0
 29 30  1  0  0  0
 30 32  1  0  0  0
 32 33  1  0  0  0
 32 34  2  0  0  0
 10 11  1  0  0  0
 11 12  2  0  0  0
 11 13  1  0  0  0
 13 15  1  0  0  0
 15 20  1  0  0  0
 20 21  1  0  0  0
 21 22  2  0  0  0
 22 23  1  0  0  0
 23 24  2  0  0  0
 24 25  1  0  0  0
 25 26  2  0  0  0
 15 16  1  0  0  0
 16 17  1  0  0  0
 16 18  2  0  0  0
 26 21  1  0  0  0
 63 64  1  0  0  0
 68 69  1  0  0  0
 71 73  1  0  0  0
 71 74  1  0  0  0
 72 75  1  0  0  0
 57 58  1  0  0  0
 52 53  1  0  0  0
 82 83  1  0  0  0
 85 87  1  0  0  0
 85 88  1  0  0  0
 86 89  1  0  0  0
  3  4  1  0  0  0
 41 42  1  0  0  0
 44 46  1  0  0  0
 44 47  1  0  0  0
 45 48  1  0  0  0
  8  9  1  0  0  0
 30 31  1  0  0  0
 33 35  1  0  0  0
 33 36  1  0  0  0
 34 37  1  0  0  0
 13 14  1  0  0  0
 17 19  1  0  0  0
M  END
> <minimizedAffinity>
-7.46968

> <CNNscore>
0.1784418970

> <CNNaffinity>
7.0037727356

> <CNN_VS>
1.2497664690

> <CNNaffinity_variance>
0.9488292933

$$$$
[H]N=C(N([H])[H])N([H])C([H])([H])C([H])([H])C([H])([H])[C@@]([H])(C(=O)N([H])[C@]([H])(C(=O)O[H])C([H])([H])c1c([H])c([H])c([H])c([H])c1[H])N([H])C(=O)[C@@]([H])(N([H])C(=O)[C@@]([H])(N([H])C(=O)[C@@]([H])(N([H])C(=O)[C@@]([H])(N([H])C(=O)C([H])([H])[H])C([H])([H])C([H])([H])C([H])([H])N([H])C(=N[H])N([H])[H])C([H])(C([H])([H])[H])C([H])([H])[H])C([H])([H])C([H])([H])C([H])([H])N([H])C(=N[H])N([H])[H])C([H])([H])C([H])([H])C([H])([H])N([H])C(=N[H])N([H])[H]


 89 89  0  0  0  0  0  0  0  0999 V2000
    4.2728    8.2130   15.5735 C   0  0  0  0  0  0  0  0  0  0  0  0
    5.4813    8.5346   15.5889 O   0  0  0  0  0  0  0  0  0  0  0  0
    3.5155    8.4407   16.7689 N   0  0  0  0  0  0  0  0  0  0  0  0
    2.5422    8.1405   16.7784 H   0  0  0  0  0  0  0  0  0  0  0  0
    4.1657    9.0136   17.8938 C   0  0  0  0  0  0  0  0  0  0  0  0
    4.7965    7.9592   18.7626 C   0  0  0  0  0  0  0  0  0  0  0  0
    5.9728    8.1830   19.1431 O   0  0  0  0  0  0  0  0  0  0  0  0
    4.1405    6.8000   19.1431 N   0  0  0  0  0  0  0  0  0  0  0  0
    3.1855    6.5739   18.8607 H   0  0  0  0  0  0  0  0  0  0  0  0
    4.8311    5.7985   20.0149 C   0  0  0  0  0  0  0  0  0  0  0  0
    4.9148    4.5711   19.2392 C   0  0  0  0  0  0  0  0  0  0  0  0
    5.9611    4.4609   18.4886 O   0  0  0  0  0  0  0  0  0  0  0  0
    4.0256    3.5171   19.1923 N   0  0  0  0  0  0  0  0  0  0  0  0
    3.1212    3.5336   19.7036 H   0  0  0  0  0  0  0  0  0  0  0  0
    4.2839    2.3200   18.3460 C   0  0  0  0  0  0  0  0  0  0  0  0
    3.3318    2.2616   17.2292 C   0  0  0  0  0  0  0  0  0  0  0  0
    2.9990    1.0428   16.6328 O   0  0  0  0  0  0  0  0  0  0  0  0
    2.7940    3.3007   16.7829 O   0  0  0  0  0  0  0  0  0  0  0  0
    2.7461    0.3051   17.3062 H   0  0  0  0  0  0  0  0  0  0  0  0
    4.2834    1.0780   19.1850 C   0  0  0  0  0  0  0  0  0  0  0  0
    4.6524    1.3580   20.5816 C   0  0  0  0  0  0  0  0  0  0  0  0
    5.9068    1.6250   21.0549 C   0  0  0  0  0  0  0  0  0  0  0  0
    6.1914    1.8871   22.3758 C   0  0  0  0  0  0  0  0  0  0  0  0
    5.1509    1.8801   23.2772 C   0  0  0  0  0  0  0  0  0  0  0  0
    3.8560    1.6158   22.8527 C   0  0  0  0  0  0  0  0  0  0  0  0
    3.6205    1.3588   21.5178 C   0  0  0  0  0  0  0  0  0  0  0  0
    4.1884    5.7797   21.3605 C   0  0  0  0  0  0  0  0  0  0  0  0
    5.1644    5.5627   22.4561 C   0  0  0  0  0  0  0  0  0  0  0  0
    6.4619    6.3465   22.2244 C   0  0  0  0  0  0  0  0  0  0  0  0
    6.5402    7.2927   23.3369 N   0  0  0  0  0  0  0  0  0  0  0  0
    6.9030    6.9392   24.2546 H   0  0  0  0  0  0  0  0  0  0  0  0
    6.1450    8.6395   23.2106 C   0  0  0  0  0  0  0  0  0  0  0  0
    5.3789    9.0741   22.0945 N   0  0  0  0  0  0  0  0  0  0  0  0
    6.4718    9.5199   24.1050 N   0  0  0  0  0  0  0  0  0  0  0  0
    4.3434    9.1018   22.1206 H   0  0  0  0  0  0  0  0  0  0  0  0
    5.9272    9.3685   21.2352 H   0  0  0  0  0  0  0  0  0  0  0  0
    7.0328    9.1985   24.9152 H   0  0  0  0  0  0  0  0  0  0  0  0
    3.5279   10.0851   18.6527 C   0  0  0  0  0  0  0  0  0  0  0  0
    4.0998   11.3340   19.0994 C   0  0  0  0  0  0  0  0  0  0  0  0
    4.9638   12.2209   18.3382 C   0  0  0  0  0  0  0  0  0  0  0  0
    6.3656   12.1798   18.6031 N   0  0  0  0  0  0  0  0  0  0  0  0
    6.8693   12.9970   19.0638 H   0  0  0  0  0  0  0  0  0  0  0  0
    7.1874   11.0732   18.2763 C   0  0  0  0  0  0  0  0  0  0  0  0
    8.0576   10.5169   19.2460 N   0  0  0  0  0  0  0  0  0  0  0  0
    7.1568   10.5624   17.1103 N   0  0  0  0  0  0  0  0  0  0  0  0
    9.0525   10.4017   19.0425 H   0  0  0  0  0  0  0  0  0  0  0  0
    7.6543   10.2347   20.1616 H   0  0  0  0  0  0  0  0  0  0  0  0
    6.5187   10.9676   16.3949 H   0  0  0  0  0  0  0  0  0  0  0  0
    3.7074    7.6208   14.3309 C   0  0  0  0  0  0  0  0  0  0  0  0
    4.7408    7.6200   12.0127 C   0  0  0  0  0  0  0  0  0  0  0  0
    3.5941    8.0180   11.5842 O   0  0  0  0  0  0  0  0  0  0  0  0
    4.8041    7.4205   13.4085 N   0  0  0  0  0  0  0  0  0  0  0  0
    5.7266    7.0942   13.8076 H   0  0  0  0  0  0  0  0  0  0  0  0
    5.8252    7.4267   11.0551 C   0  0  0  0  0  0  0  0  0  0  0  0
    5.3103    8.1093    8.6677 C   0  0  0  0  0  0  0  0  0  0  0  0
    4.9468    7.0093    8.2098 O   0  0  0  0  0  0  0  0  0  0  0  0
    5.7343    8.3740    9.9883 N   0  0  0  0  0  0  0  0  0  0  0  0
    6.0149    9.3863   10.1981 H   0  0  0  0  0  0  0  0  0  0  0  0
    5.2796    9.2774    7.6626 C   0  0  0  0  0  0  0  0  0  0  0  0
    7.3242    9.1968    4.3431 C   0  0  0  0  0  0  0  0  0  0  0  0
    6.6158    9.6665    5.5389 C   0  0  0  0  0  0  0  0  0  0  0  0
    6.5630   10.9118    5.7634 O   0  0  0  0  0  0  0  0  0  0  0  0
    5.9716    8.8291    6.4880 N   0  0  0  0  0  0  0  0  0  0  0  0
    6.0236    7.8047    6.2923 H   0  0  0  0  0  0  0  0  0  0  0  0
    3.8285    9.5061    7.4402 C   0  0  0  0  0  0  0  0  0  0  0  0
    3.1694    9.1591    6.1772 C   0  0  0  0  0  0  0  0  0  0  0  0
    2.2913    7.9530    6.1496 C   0  0  0  0  0  0  0  0  0  0  0  0
    1.9381    7.4288    7.4018 N   0  0  0  0  0  0  0  0  0  0  0  0
    2.6504    6.9071    7.9842 H   0  0  0  0  0  0  0  0  0  0  0  0
    0.6103    7.5925    7.9064 C   0  0  0  0  0  0  0  0  0  0  0  0
   -0.2935    8.4121    7.1643 N   0  0  0  0  0  0  0  0  0  0  0  0
    0.2520    7.0251    8.9805 N   0  0  0  0  0  0  0  0  0  0  0  0
   -1.0947    8.8799    7.6303 H   0  0  0  0  0  0  0  0  0  0  0  0
   -0.1333    8.5333    6.1449 H   0  0  0  0  0  0  0  0  0  0  0  0
   -0.7047    7.1272    9.3704 H   0  0  0  0  0  0  0  0  0  0  0  0
    7.1675    7.4091   11.7215 C   0  0  0  0  0  0  0  0  0  0  0  0
    8.1731    6.6722   10.8390 C   0  0  0  0  0  0  0  0  0  0  0  0
    7.6991    8.7729   12.0926 C   0  0  0  0  0  0  0  0  0  0  0  0
    2.9657    6.3668   14.6000 C   0  0  0  0  0  0  0  0  0  0  0  0
    1.5752    6.3909   14.0130 C   0  0  0  0  0  0  0  0  0  0  0  0
    1.4255    5.2246   13.0590 C   0  0  0  0  0  0  0  0  0  0  0  0
    1.5911    5.7047   11.6752 N   0  0  0  0  0  0  0  0  0  0  0  0
    1.1220    6.5940   11.3902 H   0  0  0  0  0  0  0  0  0  0  0  0
    2.3792    4.9438   10.7839 C   0  0  0  0  0  0  0  0  0  0  0  0
    2.5640    3.5422   11.0453 N   0  0  0  0  0  0  0  0  0  0  0  0
    2.9367    5.4468    9.7564 N   0  0  0  0  0  0  0  0  0  0  0  0
    1.7824    2.9103   10.8091 H   0  0  0  0  0  0  0  0  0  0  0  0
    3.4286    3.1486   11.4545 H   0  0  0  0  0  0  0  0  0  0  0  0
    2.8813    6.4389    9.4606 H   0  0  0  0  0  0  0  0  0  0  0  0
 60 61  1  0  0  0
 61 62  2  0  0  0
 61 63  1  0  0  0
 63 59  1  0  0  0
 59 65  1  0  0  0
 65 66  1  0  0  0
 66 67  1  0  0  0
 67 68  1  0  0  0
 68 70  1  0  0  0
 70 71  1  0  0  0
 70 72  2  0  0  0
 59 55  1  0  0  0
 55 56  2  0  0  0
 55 57  1  0  0  0
 57 54  1  0  0  0
 54 76  1  0  0  0
 76 77  1  0  0  0
 76 78  1  0  0  0
 54 50  1  0  0  0
 50 51  2  0  0  0
 50 52  1  0  0  0
 52 49  1  0  0  0
 49 79  1  0  0  0
 79 80  1  0  0  0
 80 81  1  0  0  0
 81 82  1  0  0  0
 82 84  1  0  0  0
 84 85  1  0  0  0
 84 86  2  0  0  0
 49  1  1  0  0  0
  1  2  2  0  0  0
  1  3  1  0  0  0
  3  5  1  0  0  0
  5 38  1  0  0  0
 38 39  1  0  0  0
 39 40  1  0  0  0
 40 41  1  0  0  0
 41 43  1  0  0  0
 43 44  1  0  0  0
 43 45  2  0  0  0
  5  6  1  0  0  0
  6  7  2  0  0  0
  6  8  1  0  0  0
  8 10  1  0  0  0
 10 27  1  0  0  0
 27 28  1  0  0  0
 28 29  1  0  0  0
 29 30  1  0  0  0
 30 32  1  0  0  0
 32 33  1  0  0  0
 32 34  2  0  0  0
 10 11  1  0  0  0
 11 12  2  0  0  0
 11 13  1  0  0  0
 13 15  1  0  0  0
 15 20  1  0  0  0
 20 21  1  0  0  0
 21 22  2  0  0  0
 22 23  1  0  0  0
 23 24  2  0  0  0
 24 25  1  0  0  0
 25 26  2  0  0  0
 15 16  1  0  0  0
 16 17  1  0  0  0
 16 18  2  0  0  0
 26 21  1  0  0  0
 63 64  1  0  0  0
 68 69  1  0  0  0
 71 73  1  0  0  0
 71 74  1  0  0  0
 72 75  1  0  0  0
 57 58  1  0  0  0
 52 53  1  0  0  0
 82 83  1  0  0  0
 85 87  1  0  0  0
 85 88  1  0  0  0
 86 89  1  0  0  0
  3  4  1  0  0  0
 41 42  1  0  0  0
 44 46  1  0  0  0
 44 47  1  0  0  0
 45 48  1  0  0  0
  8  9  1  0  0  0
 30 31  1  0  0  0
 33 35  1  0  0  0
 33 36  1  0  0  0
 34 37  1  0  0  0
 13 14  1  0  0  0
 17 19  1  0  0  0
M  END
> <minimizedAffinity>
-7.32171

> <CNNscore>
0.1636599898

> <CNNaffinity>
6.7026252747

> <CNN_VS>
1.0969516039

> <CNNaffinity_variance>
1.0280144215

$$$$
[H]N=C(N([H])[H])N([H])C([H])([H])C([H])([H])C([H])([H])[C@@]([H])(C(=O)N([H])[C@]([H])(C(=O)O[H])C([H])([H])c1c([H])c([H])c([H])c([H])c1[H])N([H])C(=O)[C@@]([H])(N([H])C(=O)[C@@]([H])(N([H])C(=O)[C@@]([H])(N([H])C(=O)[C@@]([H])(N([H])C(=O)C([H])([H])[H])C([H])([H])C([H])([H])C([H])([H])N([H])C(=N[H])N([H])[H])C([H])(C([H])([H])[H])C([H])([H])[H])C([H])([H])C([H])([H])C([H])([H])N([H])C(=N[H])N([H])[H])C([H])([H])C([H])([H])C([H])([H])N([H])C(=N[H])N([H])[H]


 89 89  0  0  0  0  0  0  0  0999 V2000
    3.9247    5.0917   15.6741 C   0  0  0  0  0  0  0  0  0  0  0  0
    3.2354    4.0838   15.4036 O   0  0  0  0  0  0  0  0  0  0  0  0
    3.7143    6.2660   14.8795 N   0  0  0  0  0  0  0  0  0  0  0  0
    4.3031    7.0761   15.0650 H   0  0  0  0  0  0  0  0  0  0  0  0
    2.7463    6.2270   13.8414 C   0  0  0  0  0  0  0  0  0  0  0  0
    3.3611    6.5309   12.5020 C   0  0  0  0  0  0  0  0  0  0  0  0
    2.5724    6.5733   11.5249 O   0  0  0  0  0  0  0  0  0  0  0  0
    4.7156    6.7614   12.3257 N   0  0  0  0  0  0  0  0  0  0  0  0
    5.3953    6.7389   13.0875 H   0  0  0  0  0  0  0  0  0  0  0  0
    5.2543    7.0641   10.9625 C   0  0  0  0  0  0  0  0  0  0  0  0
    5.6440    5.7874   10.3850 C   0  0  0  0  0  0  0  0  0  0  0  0
    6.9137    5.5463   10.3807 O   0  0  0  0  0  0  0  0  0  0  0  0
    4.8424    4.8073    9.8364 N   0  0  0  0  0  0  0  0  0  0  0  0
    3.8161    4.9287    9.7286 H   0  0  0  0  0  0  0  0  0  0  0  0
    5.4175    3.5423    9.3026 C   0  0  0  0  0  0  0  0  0  0  0  0
    5.8072    3.7052    7.8959 C   0  0  0  0  0  0  0  0  0  0  0  0
    7.0532    4.2366    7.5534 O   0  0  0  0  0  0  0  0  0  0  0  0
    5.0348    3.3728    6.9682 O   0  0  0  0  0  0  0  0  0  0  0  0
    7.8424    3.8039    8.0548 H   0  0  0  0  0  0  0  0  0  0  0  0
    4.4673    2.4040    9.5217 C   0  0  0  0  0  0  0  0  0  0  0  0
    3.1879    2.8576   10.0896 C   0  0  0  0  0  0  0  0  0  0  0  0
    2.1434    3.4124    9.4042 C   0  0  0  0  0  0  0  0  0  0  0  0
    0.9641    3.8128    9.9902 C   0  0  0  0  0  0  0  0  0  0  0  0
    0.8260    3.6456   11.3497 C   0  0  0  0  0  0  0  0  0  0  0  0
    1.8541    3.0867   12.0964 C   0  0  0  0  0  0  0  0  0  0  0  0
    3.0177    2.7007   11.4636 C   0  0  0  0  0  0  0  0  0  0  0  0
    6.2516    8.1691   11.0532 C   0  0  0  0  0  0  0  0  0  0  0  0
    6.6445    8.4699   12.4515 C   0  0  0  0  0  0  0  0  0  0  0  0
    8.1684    8.5213   12.6148 C   0  0  0  0  0  0  0  0  0  0  0  0
    8.7054    8.1459   11.3073 N   0  0  0  0  0  0  0  0  0  0  0  0
    8.3997    8.7043   10.4746 H   0  0  0  0  0  0  0  0  0  0  0  0
    9.6025    7.0718   11.1407 C   0  0  0  0  0  0  0  0  0  0  0  0
    9.7594    6.4408    9.8763 N   0  0  0  0  0  0  0  0  0  0  0  0
   10.3062    6.6268   12.1350 N   0  0  0  0  0  0  0  0  0  0  0  0
   10.4876    6.7409    9.2029 H   0  0  0  0  0  0  0  0  0  0  0  0
    9.0897    5.6462    9.6624 H   0  0  0  0  0  0  0  0  0  0  0  0
   10.1860    7.0885   13.0553 H   0  0  0  0  0  0  0  0  0  0  0  0
    1.4333    6.8367   14.0286 C   0  0  0  0  0  0  0  0  0  0  0  0
    0.1324    6.2156   13.9386 C   0  0  0  0  0  0  0  0  0  0  0  0
   -1.0837    6.8084   13.4075 C   0  0  0  0  0  0  0  0  0  0  0  0
   -1.5911    6.3031   12.1729 N   0  0  0  0  0  0  0  0  0  0  0  0
   -1.1023    6.5003   11.2478 H   0  0  0  0  0  0  0  0  0  0  0  0
   -2.7664    5.5181   12.0775 C   0  0  0  0  0  0  0  0  0  0  0  0
   -4.0277    6.0755   12.4027 N   0  0  0  0  0  0  0  0  0  0  0  0
   -2.7084    4.3038   11.6988 N   0  0  0  0  0  0  0  0  0  0  0  0
   -4.6364    5.6155   13.0828 H   0  0  0  0  0  0  0  0  0  0  0  0
   -4.3087    6.9590   11.9325 H   0  0  0  0  0  0  0  0  0  0  0  0
   -1.7840    3.8904   11.4585 H   0  0  0  0  0  0  0  0  0  0  0  0
    4.9073    5.0066   16.7884 C   0  0  0  0  0  0  0  0  0  0  0  0
    4.5885    7.0824   18.2138 C   0  0  0  0  0  0  0  0  0  0  0  0
    5.3672    7.6809   17.3816 O   0  0  0  0  0  0  0  0  0  0  0  0
    4.3490    5.7241   17.9141 N   0  0  0  0  0  0  0  0  0  0  0  0
    3.7143    5.1904   18.5692 H   0  0  0  0  0  0  0  0  0  0  0  0
    4.0436    7.8353   19.3391 C   0  0  0  0  0  0  0  0  0  0  0  0
    5.5712    6.4698   20.8333 C   0  0  0  0  0  0  0  0  0  0  0  0
    6.4785    6.2080   20.0209 O   0  0  0  0  0  0  0  0  0  0  0  0
    4.4049    7.2245   20.5801 N   0  0  0  0  0  0  0  0  0  0  0  0
    3.7320    7.3413   21.4053 H   0  0  0  0  0  0  0  0  0  0  0  0
    5.7772    5.8970   22.2494 C   0  0  0  0  0  0  0  0  0  0  0  0
    4.2359    2.3175   22.3801 C   0  0  0  0  0  0  0  0  0  0  0  0
    4.4118    3.7700   22.4894 C   0  0  0  0  0  0  0  0  0  0  0  0
    3.4450    4.4682   22.9158 O   0  0  0  0  0  0  0  0  0  0  0  0
    5.5959    4.4769   22.1502 N   0  0  0  0  0  0  0  0  0  0  0  0
    6.3848    3.8900   21.7986 H   0  0  0  0  0  0  0  0  0  0  0  0
    7.1702    6.2911   22.5840 C   0  0  0  0  0  0  0  0  0  0  0  0
    7.4832    7.5612   23.2463 C   0  0  0  0  0  0  0  0  0  0  0  0
    8.0397    8.6694   22.4163 C   0  0  0  0  0  0  0  0  0  0  0  0
    8.6291    8.2841   21.2032 N   0  0  0  0  0  0  0  0  0  0  0  0
    9.2220    7.4098   21.1498 H   0  0  0  0  0  0  0  0  0  0  0  0
    8.4363    9.0689   20.0236 C   0  0  0  0  0  0  0  0  0  0  0  0
    8.1132    8.3888   18.8102 N   0  0  0  0  0  0  0  0  0  0  0  0
    8.5503   10.3298   20.0599 N   0  0  0  0  0  0  0  0  0  0  0  0
    8.3359    8.8093   17.8875 H   0  0  0  0  0  0  0  0  0  0  0  0
    7.6501    7.4605   18.8679 H   0  0  0  0  0  0  0  0  0  0  0  0
    8.4170   10.9240   19.2192 H   0  0  0  0  0  0  0  0  0  0  0  0
    4.3981    9.2898   19.2671 C   0  0  0  0  0  0  0  0  0  0  0  0
    3.1930   10.0921   18.7804 C   0  0  0  0  0  0  0  0  0  0  0  0
    4.9247    9.8694   20.5582 C   0  0  0  0  0  0  0  0  0  0  0  0
    5.2423    3.6040   17.1286 C   0  0  0  0  0  0  0  0  0  0  0  0
    4.7633    3.2232   18.5085 C   0  0  0  0  0  0  0  0  0  0  0  0
    4.0497    1.8901   18.4292 C   0  0  0  0  0  0  0  0  0  0  0  0
    3.8954    1.5051   17.0147 N   0  0  0  0  0  0  0  0  0  0  0  0
    4.7041    1.6344   16.3656 H   0  0  0  0  0  0  0  0  0  0  0  0
    2.6580    0.9747   16.5881 C   0  0  0  0  0  0  0  0  0  0  0  0
    2.0391   -0.0589   17.3728 N   0  0  0  0  0  0  0  0  0  0  0  0
    2.0653    1.3717   15.5342 N   0  0  0  0  0  0  0  0  0  0  0  0
    1.5560    0.2302   18.2382 H   0  0  0  0  0  0  0  0  0  0  0  0
    2.0598   -1.0599   17.1135 H   0  0  0  0  0  0  0  0  0  0  0  0
    2.4066    2.1054   14.8861 H   0  0  0  0  0  0  0  0  0  0  0  0
 60 61  1  0  0  0
 61 62  2  0  0  0
 61 63  1  0  0  0
 63 59  1  0  0  0
 59 65  1  0  0  0
 65 66  1  0  0  0
 66 67  1  0  0  0
 67 68  1  0  0  0
 68 70  1  0  0  0
 70 71  1  0  0  0
 70 72  2  0  0  0
 59 55  1  0  0  0
 55 56  2  0  0  0
 55 57  1  0  0  0
 57 54  1  0  0  0
 54 76  1  0  0  0
 76 77  1  0  0  0
 76 78  1  0  0  0
 54 50  1  0  0  0
 50 51  2  0  0  0
 50 52  1  0  0  0
 52 49  1  0  0  0
 49 79  1  0  0  0
 79 80  1  0  0  0
 80 81  1  0  0  0
 81 82  1  0  0  0
 82 84  1  0  0  0
 84 85  1  0  0  0
 84 86  2  0  0  0
 49  1  1  0  0  0
  1  2  2  0  0  0
  1  3  1  0  0  0
  3  5  1  0  0  0
  5 38  1  0  0  0
 38 39  1  0  0  0
 39 40  1  0  0  0
 40 41  1  0  0  0
 41 43  1  0  0  0
 43 44  1  0  0  0
 43 45  2  0  0  0
  5  6  1  0  0  0
  6  7  2  0  0  0
  6  8  1  0  0  0
  8 10  1  0  0  0
 10 27  1  0  0  0
 27 28  1  0  0  0
 28 29  1  0  0  0
 29 30  1  0  0  0
 30 32  1  0  0  0
 32 33  1  0  0  0
 32 34  2  0  0  0
 10 11  1  0  0  0
 11 12  2  0  0  0
 11 13  1  0  0  0
 13 15  1  0  0  0
 15 20  1  0  0  0
 20 21  1  0  0  0
 21 22  2  0  0  0
 22 23  1  0  0  0
 23 24  2  0  0  0
 24 25  1  0  0  0
 25 26  2  0  0  0
 15 16  1  0  0  0
 16 17  1  0  0  0
 16 18  2  0  0  0
 26 21  1  0  0  0
 63 64  1  0  0  0
 68 69  1  0  0  0
 71 73  1  0  0  0
 71 74  1  0  0  0
 72 75  1  0  0  0
 57 58  1  0  0  0
 52 53  1  0  0  0
 82 83  1  0  0  0
 85 87  1  0  0  0
 85 88  1  0  0  0
 86 89  1  0  0  0
  3  4  1  0  0  0
 41 42  1  0  0  0
 44 46  1  0  0  0
 44 47  1  0  0  0
 45 48  1  0  0  0
  8  9  1  0  0  0
 30 31  1  0  0  0
 33 35  1  0  0  0
 33 36  1  0  0  0
 34 37  1  0  0  0
 13 14  1  0  0  0
 17 19  1  0  0  0
M  END
> <minimizedAffinity>
-7.26899

> <CNNscore>
0.1589634269

> <CNNaffinity>
6.8393783569

> <CNN_VS>
1.0872110128

> <CNNaffinity_variance>
1.2673542500

$$$$
[H]N=C(N([H])[H])N([H])C([H])([H])C([H])([H])C([H])([H])[C@@]([H])(C(=O)N([H])[C@]([H])(C(=O)O[H])C([H])([H])c1c([H])c([H])c([H])c([H])c1[H])N([H])C(=O)[C@@]([H])(N([H])C(=O)[C@@]([H])(N([H])C(=O)[C@@]([H])(N([H])C(=O)[C@@]([H])(N([H])C(=O)C([H])([H])[H])C([H])([H])C([H])([H])C([H])([H])N([H])C(=N[H])N([H])[H])C([H])(C([H])([H])[H])C([H])([H])[H])C([H])([H])C([H])([H])C([H])([H])N([H])C(=N[H])N([H])[H])C([H])([H])C([H])([H])C([H])([H])N([H])C(=N[H])N([H])[H]


 89 89  0  0  0  0  0  0  0  0999 V2000
    2.7698    4.9382   14.7544 C   0  0  0  0  0  0  0  0  0  0  0  0
    2.0199    4.3982   15.5970 O   0  0  0  0  0  0  0  0  0  0  0  0
    4.0382    5.4211   15.2154 N   0  0  0  0  0  0  0  0  0  0  0  0
    4.6352    5.9016   14.5446 H   0  0  0  0  0  0  0  0  0  0  0  0
    4.3754    5.2625   16.5856 C   0  0  0  0  0  0  0  0  0  0  0  0
    4.7320    6.5787   17.2220 C   0  0  0  0  0  0  0  0  0  0  0  0
    5.6375    7.2420   16.6575 O   0  0  0  0  0  0  0  0  0  0  0  0
    4.1106    7.0611   18.3622 N   0  0  0  0  0  0  0  0  0  0  0  0
    3.3700    6.5601   18.8556 H   0  0  0  0  0  0  0  0  0  0  0  0
    4.5149    8.3834   18.9349 C   0  0  0  0  0  0  0  0  0  0  0  0
    5.1967    8.0945   20.1867 C   0  0  0  0  0  0  0  0  0  0  0  0
    4.7405    8.7187   21.2224 O   0  0  0  0  0  0  0  0  0  0  0  0
    6.2662    7.2526   20.4131 N   0  0  0  0  0  0  0  0  0  0  0  0
    6.7515    6.7554   19.6404 H   0  0  0  0  0  0  0  0  0  0  0  0
    6.8304    7.0630   21.7775 C   0  0  0  0  0  0  0  0  0  0  0  0
    7.9364    8.0001   22.0140 C   0  0  0  0  0  0  0  0  0  0  0  0
    8.7996    8.3673   20.9785 O   0  0  0  0  0  0  0  0  0  0  0  0
    8.1347    8.4936   23.1475 O   0  0  0  0  0  0  0  0  0  0  0  0
    8.3157    8.6564   20.1160 H   0  0  0  0  0  0  0  0  0  0  0  0
    7.2180    5.6305   21.9874 C   0  0  0  0  0  0  0  0  0  0  0  0
    6.0489    4.7787   22.2575 C   0  0  0  0  0  0  0  0  0  0  0  0
    4.8488    5.1820   22.7732 C   0  0  0  0  0  0  0  0  0  0  0  0
    3.7853    4.3379   22.9986 C   0  0  0  0  0  0  0  0  0  0  0  0
    3.9372    3.0056   22.6867 C   0  0  0  0  0  0  0  0  0  0  0  0
    5.1339    2.5401   22.1594 C   0  0  0  0  0  0  0  0  0  0  0  0
    6.1716    3.4250   21.9514 C   0  0  0  0  0  0  0  0  0  0  0  0
    3.3464    9.3100   18.9268 C   0  0  0  0  0  0  0  0  0  0  0  0
    3.6766   10.6397   18.3586 C   0  0  0  0  0  0  0  0  0  0  0  0
    4.2041   10.5289   16.9230 C   0  0  0  0  0  0  0  0  0  0  0  0
    3.0754   10.0287   16.1389 N   0  0  0  0  0  0  0  0  0  0  0  0
    2.1153   10.3598   16.3981 H   0  0  0  0  0  0  0  0  0  0  0  0
    3.2415    9.1281   15.0678 C   0  0  0  0  0  0  0  0  0  0  0  0
    4.4938    9.0032   14.4063 N   0  0  0  0  0  0  0  0  0  0  0  0
    2.2575    8.3920   14.6531 N   0  0  0  0  0  0  0  0  0  0  0  0
    5.1956    8.2975   14.6947 H   0  0  0  0  0  0  0  0  0  0  0  0
    4.6680    9.6723   13.6015 H   0  0  0  0  0  0  0  0  0  0  0  0
    1.3460    8.4890   15.1370 H   0  0  0  0  0  0  0  0  0  0  0  0
    5.2295    4.1598   17.0161 C   0  0  0  0  0  0  0  0  0  0  0  0
    4.9876    3.1890   18.0580 C   0  0  0  0  0  0  0  0  0  0  0  0
    4.4580    1.8455   17.8941 C   0  0  0  0  0  0  0  0  0  0  0  0
    3.0549    1.7008   17.6767 N   0  0  0  0  0  0  0  0  0  0  0  0
    2.3427    2.2263   18.2688 H   0  0  0  0  0  0  0  0  0  0  0  0
    2.5045    0.8588   16.6794 C   0  0  0  0  0  0  0  0  0  0  0  0
    2.2880    1.3495   15.3681 N   0  0  0  0  0  0  0  0  0  0  0  0
    2.1973   -0.3482   16.9443 N   0  0  0  0  0  0  0  0  0  0  0  0
    1.3679    1.2676   14.9308 H   0  0  0  0  0  0  0  0  0  0  0  0
    3.0875    1.7920   14.8725 H   0  0  0  0  0  0  0  0  0  0  0  0
    2.3550   -0.7130   17.9062 H   0  0  0  0  0  0  0  0  0  0  0  0
    2.3015    5.0444   13.3460 C   0  0  0  0  0  0  0  0  0  0  0  0
    4.0123    6.2170   11.8830 C   0  0  0  0  0  0  0  0  0  0  0  0
    3.3701    7.3039   12.1344 O   0  0  0  0  0  0  0  0  0  0  0  0
    3.4750    5.0667   12.4997 N   0  0  0  0  0  0  0  0  0  0  0  0
    3.9692    4.1495   12.3232 H   0  0  0  0  0  0  0  0  0  0  0  0
    5.1911    6.2748   11.0244 C   0  0  0  0  0  0  0  0  0  0  0  0
    5.7133    4.2375    9.6075 C   0  0  0  0  0  0  0  0  0  0  0  0
    6.5829    3.7036   10.3219 O   0  0  0  0  0  0  0  0  0  0  0  0
    5.0233    5.4398    9.8762 N   0  0  0  0  0  0  0  0  0  0  0  0
    4.3093    5.7470    9.1392 H   0  0  0  0  0  0  0  0  0  0  0  0
    5.3809    3.4797    8.3071 C   0  0  0  0  0  0  0  0  0  0  0  0
    2.9802    0.8631    9.9180 C   0  0  0  0  0  0  0  0  0  0  0  0
    3.6132    2.1285    9.5301 C   0  0  0  0  0  0  0  0  0  0  0  0
    3.1177    3.2120    9.9596 O   0  0  0  0  0  0  0  0  0  0  0  0
    4.7564    2.2476    8.6959 N   0  0  0  0  0  0  0  0  0  0  0  0
    5.1543    1.3473    8.3472 H   0  0  0  0  0  0  0  0  0  0  0  0
    4.4645    4.4044    7.5910 C   0  0  0  0  0  0  0  0  0  0  0  0
    3.8237    4.0401    6.3235 C   0  0  0  0  0  0  0  0  0  0  0  0
    4.4796    4.4700    5.0540 C   0  0  0  0  0  0  0  0  0  0  0  0
    4.1139    5.7383    4.5795 N   0  0  0  0  0  0  0  0  0  0  0  0
    3.1056    5.9505    4.3408 H   0  0  0  0  0  0  0  0  0  0  0  0
    5.0999    6.7601    4.4117 C   0  0  0  0  0  0  0  0  0  0  0  0
    5.6065    7.4029    5.5820 N   0  0  0  0  0  0  0  0  0  0  0  0
    5.5081    7.0817    3.2567 N   0  0  0  0  0  0  0  0  0  0  0  0
    5.9986    8.3630    5.5358 H   0  0  0  0  0  0  0  0  0  0  0  0
    5.5742    6.8900    6.4851 H   0  0  0  0  0  0  0  0  0  0  0  0
    6.2219    7.8201    3.1053 H   0  0  0  0  0  0  0  0  0  0  0  0
    5.5706    7.6842   10.6840 C   0  0  0  0  0  0  0  0  0  0  0  0
    6.9430    8.0064   11.2719 C   0  0  0  0  0  0  0  0  0  0  0  0
    5.5480    7.9983    9.2072 C   0  0  0  0  0  0  0  0  0  0  0  0
    1.3715    3.9489   12.9851 C   0  0  0  0  0  0  0  0  0  0  0  0
    0.1185    4.4627   12.3182 C   0  0  0  0  0  0  0  0  0  0  0  0
    0.1979    5.9717   12.2221 C   0  0  0  0  0  0  0  0  0  0  0  0
   -1.0774    6.5551   12.6760 N   0  0  0  0  0  0  0  0  0  0  0  0
   -1.7931    6.8206   11.9623 H   0  0  0  0  0  0  0  0  0  0  0  0
   -1.2854    6.7341   14.0614 C   0  0  0  0  0  0  0  0  0  0  0  0
   -2.6308    6.8760   14.5479 N   0  0  0  0  0  0  0  0  0  0  0  0
   -0.3301    6.7775   14.9011 N   0  0  0  0  0  0  0  0  0  0  0  0
   -3.1972    6.0166   14.6283 H   0  0  0  0  0  0  0  0  0  0  0  0
   -3.0475    7.7849   14.8127 H   0  0  0  0  0  0  0  0  0  0  0  0
    0.6785    6.6895   14.6777 H   0  0  0  0  0  0  0  0  0  0  0  0
 60 61  1  0  0  0
 61 62  2  0  0  0
 61 63  1  0  0  0
 63 59  1  0  0  0
 59 65  1  0  0  0
 65 66  1  0  0  0
 66 67  1  0  0  0
 67 68  1  0  0  0
 68 70  1  0  0  0
 70 71  1  0  0  0
 70 72  2  0  0  0
 59 55  1  0  0  0
 55 56  2  0  0  0
 55 57  1  0  0  0
 57 54  1  0  0  0
 54 76  1  0  0  0
 76 77  1  0  0  0
 76 78  1  0  0  0
 54 50  1  0  0  0
 50 51  2  0  0  0
 50 52  1  0  0  0
 52 49  1  0  0  0
 49 79  1  0  0  0
 79 80  1  0  0  0
 80 81  1  0  0  0
 81 82  1  0  0  0
 82 84  1  0  0  0
 84 85  1  0  0  0
 84 86  2  0  0  0
 49  1  1  0  0  0
  1  2  2  0  0  0
  1  3  1  0  0  0
  3  5  1  0  0  0
  5 38  1  0  0  0
 38 39  1  0  0  0
 39 40  1  0  0  0
 40 41  1  0  0  0
 41 43  1  0  0  0
 43 44  1  0  0  0
 43 45  2  0  0  0
  5  6  1  0  0  0
  6  7  2  0  0  0
  6  8  1  0  0  0
  8 10  1  0  0  0
 10 27  1  0  0  0
 27 28  1  0  0  0
 28 29  1  0  0  0
 29 30  1  0  0  0
 30 32  1  0  0  0
 32 33  1  0  0  0
 32 34  2  0  0  0
 10 11  1  0  0  0
 11 12  2  0  0  0
 11 13  1  0  0  0
 13 15  1  0  0  0
 15 20  1  0  0  0
 20 21  1  0  0  0
 21 22  2  0  0  0
 22 23  1  0  0  0
 23 24  2  0  0  0
 24 25  1  0  0  0
 25 26  2  0  0  0
 15 16  1  0  0  0
 16 17  1  0  0  0
 16 18  2  0  0  0
 26 21  1  0  0  0
 63 64  1  0  0  0
 68 69  1  0  0  0
 71 73  1  0  0  0
 71 74  1  0  0  0
 72 75  1  0  0  0
 57 58  1  0  0  0
 52 53  1  0  0  0
 82 83  1  0  0  0
 85 87  1  0  0  0
 85 88  1  0  0  0
 86 89  1  0  0  0
  3  4  1  0  0  0
 41 42  1  0  0  0
 44 46  1  0  0  0
 44 47  1  0  0  0
 45 48  1  0  0  0
  8  9  1  0  0  0
 30 31  1  0  0  0
 33 35  1  0  0  0
 33 36  1  0  0  0
 34 37  1  0  0  0
 13 14  1  0  0  0
 17 19  1  0  0  0
M  END
> <minimizedAffinity>
-7.15623

> <CNNscore>
0.1546082199

> <CNNaffinity>
6.8376579285

> <CNN_VS>
1.0571581125

> <CNNaffinity_variance>
1.2540724277

$$$$
[H]OC(=O)[C@@]([H])(N([H])C(=O)[C@@]([H])(N([H])C(=O)[C@@]([H])(N([H])C(=O)C([H])([H])N([H])C(=O)[C@@]1([H])N(C(=O)[C@@]([H])(N([H])[H])C([H])([H])c2c([H])n([H])c3c([H])c([H])c([H])c([H])c23)C([H])([H])C([H])([H])C1([H])[H])C([H])([H])c1c([H])n([H])c2c([H])c([H])c([H])c([H])c12)C([H])([H])C([H])(C([H])([H])[H])C([H])([H])[H])C([H])([H])c1c([H])c([H])c([H])c([H])c1[H]


 68 73  0  0  0  0  0  0  0  0999 V2000
    4.2733    4.5074   16.6935 C   0  0  0  0  0  0  0  0  0  0  0  0
    3.8025    4.8329   15.3717 N   0  0  0  0  0  0  0  0  0  0  0  0
    2.4406    5.1028   15.1472 C   0  0  0  0  0  0  0  0  0  0  0  0
    1.6742    5.0467   16.1897 O   0  0  0  0  0  0  0  0  0  0  0  0
    4.4704    4.8694   14.5860 H   0  0  0  0  0  0  0  0  0  0  0  0
    1.7642    5.4308   13.9191 C   0  0  0  0  0  0  0  0  0  0  0  0
    1.1318    4.3437   13.1991 N   0  0  0  0  0  0  0  0  0  0  0  0
    1.9853    3.5684   12.3917 C   0  0  0  0  0  0  0  0  0  0  0  0
    3.2382    3.9355   12.4244 O   0  0  0  0  0  0  0  0  0  0  0  0
    0.1342    4.1975   13.3462 H   0  0  0  0  0  0  0  0  0  0  0  0
    1.6387    2.4566   11.5702 C   0  0  0  0  0  0  0  0  0  0  0  0
    2.8072    1.9646   10.7047 C   0  0  0  0  0  0  0  0  0  0  0  0
    2.1092    0.8567    9.9301 C   0  0  0  0  0  0  0  0  0  0  0  0
    0.6152    1.0315   10.1786 C   0  0  0  0  0  0  0  0  0  0  0  0
    0.5924    2.4611   10.6165 N   0  0  0  0  0  0  0  0  0  0  0  0
   -0.3017    3.3873   10.0722 C   0  0  0  0  0  0  0  0  0  0  0  0
   -0.2111    4.6083   10.4409 O   0  0  0  0  0  0  0  0  0  0  0  0
   -1.3825    3.1146    9.0928 C   0  0  0  0  0  0  0  0  0  0  0  0
   -2.5134    2.4318    9.6291 N   0  0  0  0  0  0  0  0  0  0  0  0
   -2.3358    1.9239   10.5124 H   0  0  0  0  0  0  0  0  0  0  0  0
   -2.9557    1.7594    8.9622 H   0  0  0  0  0  0  0  0  0  0  0  0
   -1.7923    4.4151    8.4128 C   0  0  0  0  0  0  0  0  0  0  0  0
   -3.2266    4.7315    8.4827 C   0  0  0  0  0  0  0  0  0  0  0  0
   -4.1603    4.5280    7.4547 C   0  0  0  0  0  0  0  0  0  0  0  0
   -5.3875    4.9028    7.8652 N   0  0  0  0  0  0  0  0  0  0  0  0
   -5.3157    5.3521    9.1355 C   0  0  0  0  0  0  0  0  0  0  0  0
   -6.2402    5.8443   10.0149 C   0  0  0  0  0  0  0  0  0  0  0  0
   -5.8713    6.2387   11.2709 C   0  0  0  0  0  0  0  0  0  0  0  0
   -4.5340    6.1494   11.6874 C   0  0  0  0  0  0  0  0  0  0  0  0
   -3.6063    5.6482   10.7846 C   0  0  0  0  0  0  0  0  0  0  0  0
   -3.9954    5.2502    9.5184 C   0  0  0  0  0  0  0  0  0  0  0  0
   -6.2961    4.8694    7.3168 H   0  0  0  0  0  0  0  0  0  0  0  0
    5.1668    6.7488   17.3342 N   0  0  0  0  0  0  0  0  0  0  0  0
    5.3734    5.3868   17.1668 C   0  0  0  0  0  0  0  0  0  0  0  0
    6.4589    4.8320   17.3989 O   0  0  0  0  0  0  0  0  0  0  0  0
    4.1617    7.0754   17.0508 H   0  0  0  0  0  0  0  0  0  0  0  0
    6.0037    7.8035   17.7961 C   0  0  0  0  0  0  0  0  0  0  0  0
    6.2157    7.5958   19.2640 C   0  0  0  0  0  0  0  0  0  0  0  0
    7.3637    7.6445   19.7960 O   0  0  0  0  0  0  0  0  0  0  0  0
    5.0863    7.3217   20.1046 N   0  0  0  0  0  0  0  0  0  0  0  0
    4.1380    7.3088   19.6985 H   0  0  0  0  0  0  0  0  0  0  0  0
    5.3043    7.0596   21.5342 C   0  0  0  0  0  0  0  0  0  0  0  0
    5.5936    8.3394   22.1502 C   0  0  0  0  0  0  0  0  0  0  0  0
    6.4606    8.5049   23.2194 O   0  0  0  0  0  0  0  0  0  0  0  0
    5.0166    9.3915   21.6959 O   0  0  0  0  0  0  0  0  0  0  0  0
    6.2614    9.2402   23.9294 H   0  0  0  0  0  0  0  0  0  0  0  0
    6.3521    6.0316   21.7703 C   0  0  0  0  0  0  0  0  0  0  0  0
    5.7700    4.8125   22.3765 C   0  0  0  0  0  0  0  0  0  0  0  0
    4.4724    4.8862   22.8801 C   0  0  0  0  0  0  0  0  0  0  0  0
    3.8474    3.7979   23.4494 C   0  0  0  0  0  0  0  0  0  0  0  0
    4.5228    2.5764   23.5316 C   0  0  0  0  0  0  0  0  0  0  0  0
    5.7906    2.5134   23.0351 C   0  0  0  0  0  0  0  0  0  0  0  0
    6.4022    3.6026   22.4707 C   0  0  0  0  0  0  0  0  0  0  0  0
    5.3793    9.1864   17.7110 C   0  0  0  0  0  0  0  0  0  0  0  0
    3.6072    9.9227   16.1116 C   0  0  0  0  0  0  0  0  0  0  0  0
    3.9140    9.2146   17.4174 C   0  0  0  0  0  0  0  0  0  0  0  0
    3.2588   10.0133   18.5489 C   0  0  0  0  0  0  0  0  0  0  0  0
    4.9356    3.1153   16.6680 C   0  0  0  0  0  0  0  0  0  0  0  0
    4.0085    2.0248   17.0135 C   0  0  0  0  0  0  0  0  0  0  0  0
    3.1744    1.4167   16.0661 C   0  0  0  0  0  0  0  0  0  0  0  0
    2.4457    0.4616   16.6603 N   0  0  0  0  0  0  0  0  0  0  0  0
    2.7609    0.4062   17.9671 C   0  0  0  0  0  0  0  0  0  0  0  0
    2.3180   -0.3868   18.9977 C   0  0  0  0  0  0  0  0  0  0  0  0
    2.8423   -0.2140   20.2520 C   0  0  0  0  0  0  0  0  0  0  0  0
    3.7970    0.7445   20.4552 C   0  0  0  0  0  0  0  0  0  0  0  0
    4.2596    1.5538   19.4380 C   0  0  0  0  0  0  0  0  0  0  0  0
    3.7395    1.3833   18.1939 C   0  0  0  0  0  0  0  0  0  0  0  0
    1.7212   -0.1687   16.2069 H   0  0  0  0  0  0  0  0  0  0  0  0
 55 56  1  0  0  0
 56 57  1  0  0  0
 56 54  1  0  0  0
 54 37  1  0  0  0
 37 33  1  0  0  0
 33 34  1  0  0  0
 34 35  2  0  0  0
 34  1  1  0  0  0
  1 58  1  0  0  0
 58 59  1  0  0  0
 59 60  2  0  0  0
 60 61  1  0  0  0
 61 62  1  0  0  0
 62 63  2  0  0  0
 63 64  1  0  0  0
 64 65  2  0  0  0
 65 66  1  0  0  0
 66 67  2  0  0  0
  1  2  1  0  0  0
  2  3  1  0  0  0
  3  4  2  0  0  0
  3  6  1  0  0  0
  6  7  1  0  0  0
  7  8  1  0  0  0
  8  9  2  0  0  0
  8 11  1  0  0  0
 11 12  1  0  0  0
 12 13  1  0  0  0
 13 14  1  0  0  0
 14 15  1  0  0  0
 15 16  1  0  0  0
 16 17  2  0  0  0
 16 18  1  0  0  0
 18 19  1  0  0  0
 18 22  1  0  0  0
 22 23  1  0  0  0
 23 24  2  0  0  0
 24 25  1  0  0  0
 25 26  1  0  0  0
 26 27  2  0  0  0
 27 28  1  0  0  0
 28 29  2  0  0  0
 29 30  1  0  0  0
 30 31  2  0  0  0
 37 38  1  0  0  0
 38 39  2  0  0  0
 38 40  1  0  0  0
 40 42  1  0  0  0
 42 47  1  0  0  0
 47 48  1  0  0  0
 48 49  2  0  0  0
 49 50  1  0  0  0
 50 51  2  0  0  0
 51 52  1  0  0  0
 52 53  2  0  0  0
 42 43  1  0  0  0
 43 44  1  0  0  0
 43 45  2  0  0  0
 67 59  1  0  0  0
 15 11  1  0  0  0
 31 23  1  0  0  0
 53 48  1  0  0  0
 67 62  1  0  0  0
 31 26  1  0  0  0
 33 36  1  0  0  0
 61 68  1  0  0  0
  2  5  1  0  0  0
  7 10  1  0  0  0
 19 20  1  0  0  0
 19 21  1  0  0  0
 25 32  1  0  0  0
 40 41  1  0  0  0
 44 46  1  0  0  0
M  END
> <minimizedAffinity>
-9.98920

> <CNNscore>
0.4357030988

> <CNNaffinity>
7.4364333153

> <CNN_VS>
3.2400770187

> <CNNaffinity_variance>
0.6941069365

$$$$
[H]OC(=O)[C@@]([H])(N([H])C(=O)[C@@]([H])(N([H])C(=O)[C@@]([H])(N([H])C(=O)C([H])([H])N([H])C(=O)[C@@]1([H])N(C(=O)[C@@]([H])(N([H])[H])C([H])([H])c2c([H])n([H])c3c([H])c([H])c([H])c([H])c23)C([H])([H])C([H])([H])C1([H])[H])C([H])([H])c1c([H])n([H])c2c([H])c([H])c([H])c([H])c12)C([H])([H])C([H])(C([H])([H])[H])C([H])([H])[H])C([H])([H])c1c([H])c([H])c([H])c([H])c1[H]


 68 73  0  0  0  0  0  0  0  0999 V2000
    3.0755    4.8983   16.6230 C   0  0  0  0  0  0  0  0  0  0  0  0
    3.2541    5.4476   15.3035 N   0  0  0  0  0  0  0  0  0  0  0  0
    2.1419    5.8546   14.5450 C   0  0  0  0  0  0  0  0  0  0  0  0
    0.9870    5.7098   15.1131 O   0  0  0  0  0  0  0  0  0  0  0  0
    4.2050    5.5438   14.9145 H   0  0  0  0  0  0  0  0  0  0  0  0
    2.0948    6.4092   13.2170 C   0  0  0  0  0  0  0  0  0  0  0  0
    3.3055    6.3357   12.4240 N   0  0  0  0  0  0  0  0  0  0  0  0
    4.3103    7.2636   12.7569 C   0  0  0  0  0  0  0  0  0  0  0  0
    4.0076    8.0509   13.7539 O   0  0  0  0  0  0  0  0  0  0  0  0
    3.3590    5.6103   11.7105 H   0  0  0  0  0  0  0  0  0  0  0  0
    5.5858    7.4277   12.1426 C   0  0  0  0  0  0  0  0  0  0  0  0
    6.3381    8.6671   12.6471 C   0  0  0  0  0  0  0  0  0  0  0  0
    7.5829    8.5887   11.7760 C   0  0  0  0  0  0  0  0  0  0  0  0
    7.2874    7.5578   10.6925 C   0  0  0  0  0  0  0  0  0  0  0  0
    5.7930    7.5477   10.7473 N   0  0  0  0  0  0  0  0  0  0  0  0
    5.0098    7.6615    9.5952 C   0  0  0  0  0  0  0  0  0  0  0  0
    3.7395    7.7219    9.7277 O   0  0  0  0  0  0  0  0  0  0  0  0
    5.4894    7.7148    8.1920 C   0  0  0  0  0  0  0  0  0  0  0  0
    5.6905    6.4415    7.5830 N   0  0  0  0  0  0  0  0  0  0  0  0
    5.8018    5.6553    8.2459 H   0  0  0  0  0  0  0  0  0  0  0  0
    6.4993    6.4131    6.9216 H   0  0  0  0  0  0  0  0  0  0  0  0
    4.5473    8.5812    7.3654 C   0  0  0  0  0  0  0  0  0  0  0  0
    4.7048    8.4608    5.9084 C   0  0  0  0  0  0  0  0  0  0  0  0
    3.7970    7.8406    5.0359 C   0  0  0  0  0  0  0  0  0  0  0  0
    4.2395    7.9342    3.7668 N   0  0  0  0  0  0  0  0  0  0  0  0
    5.4148    8.5968    3.7513 C   0  0  0  0  0  0  0  0  0  0  0  0
    6.2790    8.9602    2.7555 C   0  0  0  0  0  0  0  0  0  0  0  0
    7.4298    9.6409    3.0409 C   0  0  0  0  0  0  0  0  0  0  0  0
    7.7527    9.9819    4.3636 C   0  0  0  0  0  0  0  0  0  0  0  0
    6.8668    9.6067    5.3642 C   0  0  0  0  0  0  0  0  0  0  0  0
    5.7048    8.9211    5.0593 C   0  0  0  0  0  0  0  0  0  0  0  0
    3.7757    7.5639    2.8864 H   0  0  0  0  0  0  0  0  0  0  0  0
    4.0840    7.0277   17.4481 N   0  0  0  0  0  0  0  0  0  0  0  0
    3.3881    5.8569   17.7142 C   0  0  0  0  0  0  0  0  0  0  0  0
    2.9908    5.5470   18.8483 O   0  0  0  0  0  0  0  0  0  0  0  0
    4.3880    7.1260   16.4017 H   0  0  0  0  0  0  0  0  0  0  0  0
    4.4838    8.1215   18.2668 C   0  0  0  0  0  0  0  0  0  0  0  0
    5.2583    7.5585   19.4182 C   0  0  0  0  0  0  0  0  0  0  0  0
    6.4811    7.2442   19.3228 O   0  0  0  0  0  0  0  0  0  0  0  0
    4.5986    7.3550   20.6755 N   0  0  0  0  0  0  0  0  0  0  0  0
    3.6114    7.6334   20.7858 H   0  0  0  0  0  0  0  0  0  0  0  0
    5.3452    6.7472   21.7861 C   0  0  0  0  0  0  0  0  0  0  0  0
    6.2299    7.7736   22.3007 C   0  0  0  0  0  0  0  0  0  0  0  0
    5.8155    9.0517   22.6427 O   0  0  0  0  0  0  0  0  0  0  0  0
    7.4753    7.5026   22.4485 O   0  0  0  0  0  0  0  0  0  0  0  0
    6.4622    9.8547   22.4959 H   0  0  0  0  0  0  0  0  0  0  0  0
    6.0467    5.4996   21.3838 C   0  0  0  0  0  0  0  0  0  0  0  0
    5.6190    4.3579   22.2242 C   0  0  0  0  0  0  0  0  0  0  0  0
    4.4068    4.4622   22.9042 C   0  0  0  0  0  0  0  0  0  0  0  0
    3.9249    3.4439   23.6978 C   0  0  0  0  0  0  0  0  0  0  0  0
    4.6634    2.2645   23.8350 C   0  0  0  0  0  0  0  0  0  0  0  0
    5.8468    2.1709   23.1650 C   0  0  0  0  0  0  0  0  0  0  0  0
    6.3159    3.1904   22.3780 C   0  0  0  0  0  0  0  0  0  0  0  0
    3.3358    8.8648   18.9295 C   0  0  0  0  0  0  0  0  0  0  0  0
    3.4685   10.6204   17.1572 C   0  0  0  0  0  0  0  0  0  0  0  0
    3.2572   10.3272   18.6303 C   0  0  0  0  0  0  0  0  0  0  0  0
    4.3970   10.9924   19.4088 C   0  0  0  0  0  0  0  0  0  0  0  0
    4.1071    3.7750   16.8492 C   0  0  0  0  0  0  0  0  0  0  0  0
    3.4901    2.4690   17.1356 C   0  0  0  0  0  0  0  0  0  0  0  0
    2.7601    1.7543   16.1766 C   0  0  0  0  0  0  0  0  0  0  0  0
    2.3205    0.6077   16.7135 N   0  0  0  0  0  0  0  0  0  0  0  0
    2.7293    0.5269   17.9928 C   0  0  0  0  0  0  0  0  0  0  0  0
    2.5584   -0.4286   18.9649 C   0  0  0  0  0  0  0  0  0  0  0  0
    3.1123   -0.2340   20.2033 C   0  0  0  0  0  0  0  0  0  0  0  0
    3.8250    0.9075   20.4490 C   0  0  0  0  0  0  0  0  0  0  0  0
    4.0119    1.8824   19.4907 C   0  0  0  0  0  0  0  0  0  0  0  0
    3.4624    1.6903   18.2625 C   0  0  0  0  0  0  0  0  0  0  0  0
    1.7361   -0.1411   16.2386 H   0  0  0  0  0  0  0  0  0  0  0  0
 55 56  1  0  0  0
 56 57  1  0  0  0
 56 54  1  0  0  0
 54 37  1  0  0  0
 37 33  1  0  0  0
 33 34  1  0  0  0
 34 35  2  0  0  0
 34  1  1  0  0  0
  1 58  1  0  0  0
 58 59  1  0  0  0
 59 60  2  0  0  0
 60 61  1  0  0  0
 61 62  1  0  0  0
 62 63  2  0  0  0
 63 64  1  0  0  0
 64 65  2  0  0  0
 65 66  1  0  0  0
 66 67  2  0  0  0
  1  2  1  0  0  0
  2  3  1  0  0  0
  3  4  2  0  0  0
  3  6  1  0  0  0
  6  7  1  0  0  0
  7  8  1  0  0  0
  8  9  2  0  0  0
  8 11  1  0  0  0
 11 12  1  0  0  0
 12 13  1  0  0  0
 13 14  1  0  0  0
 14 15  1  0  0  0
 15 16  1  0  0  0
 16 17  2  0  0  0
 16 18  1  0  0  0
 18 19  1  0  0  0
 18 22  1  0  0  0
 22 23  1  0  0  0
 23 24  2  0  0  0
 24 25  1  0  0  0
 25 26  1  0  0  0
 26 27  2  0  0  0
 27 28  1  0  0  0
 28 29  2  0  0  0
 29 30  1  0  0  0
 30 31  2  0  0  0
 37 38  1  0  0  0
 38 39  2  0  0  0
 38 40  1  0  0  0
 40 42  1  0  0  0
 42 47  1  0  0  0
 47 48  1  0  0  0
 48 49  2  0  0  0
 49 50  1  0  0  0
 50 51  2  0  0  0
 51 52  1  0  0  0
 52 53  2  0  0  0
 42 43  1  0  0  0
 43 44  1  0  0  0
 43 45  2  0  0  0
 67 59  1  0  0  0
 15 11  1  0  0  0
 31 23  1  0  0  0
 53 48  1  0  0  0
 67 62  1  0  0  0
 31 26  1  0  0  0
 33 36  1  0  0  0
 61 68  1  0  0  0
  2  5  1  0  0  0
  7 10  1  0  0  0
 19 20  1  0  0  0
 19 21  1  0  0  0
 25 32  1  0  0  0
 40 41  1  0  0  0
 44 46  1  0  0  0
M  END
> <minimizedAffinity>
-10.27803

> <CNNscore>
0.3394260406

> <CNNaffinity>
7.0948190689

> <CNN_VS>
2.4081664085

> <CNNaffinity_variance>
0.4448165894

$$$$
[H]OC(=O)[C@@]([H])(N([H])C(=O)[C@@]([H])(N([H])C(=O)[C@@]([H])(N([H])C(=O)C([H])([H])N([H])C(=O)[C@@]1([H])N(C(=O)[C@@]([H])(N([H])[H])C([H])([H])c2c([H])n([H])c3c([H])c([H])c([H])c([H])c23)C([H])([H])C([H])([H])C1([H])[H])C([H])([H])c1c([H])n([H])c2c([H])c([H])c([H])c([H])c12)C([H])([H])C([H])(C([H])([H])[H])C([H])([H])[H])C([H])([H])c1c([H])c([H])c([H])c([H])c1[H]


 68 73  0  0  0  0  0  0  0  0999 V2000
    2.5642    8.1853   13.6557 C   0  0  0  0  0  0  0  0  0  0  0  0
    2.3989    9.3075   14.5434 N   0  0  0  0  0  0  0  0  0  0  0  0
    3.5059    9.8477   15.2223 C   0  0  0  0  0  0  0  0  0  0  0  0
    4.6459    9.2807   14.9849 O   0  0  0  0  0  0  0  0  0  0  0  0
    1.4618    9.7175   14.6797 H   0  0  0  0  0  0  0  0  0  0  0  0
    3.5607   10.9441   16.1539 C   0  0  0  0  0  0  0  0  0  0  0  0
    4.5176   10.8467   17.2378 N   0  0  0  0  0  0  0  0  0  0  0  0
    3.9702   10.6426   18.5186 C   0  0  0  0  0  0  0  0  0  0  0  0
    2.6676   10.5522   18.5395 O   0  0  0  0  0  0  0  0  0  0  0  0
    5.5069   10.9017   17.0004 H   0  0  0  0  0  0  0  0  0  0  0  0
    4.6657   10.5239   19.7568 C   0  0  0  0  0  0  0  0  0  0  0  0
    6.0740   11.1333   19.7131 C   0  0  0  0  0  0  0  0  0  0  0  0
    6.5493   10.7918   21.1174 C   0  0  0  0  0  0  0  0  0  0  0  0
    5.5461    9.7920   21.6814 C   0  0  0  0  0  0  0  0  0  0  0  0
    4.9334    9.2969   20.4104 N   0  0  0  0  0  0  0  0  0  0  0  0
    4.7844    7.9331   20.1431 C   0  0  0  0  0  0  0  0  0  0  0  0
    4.3219    7.5843   19.0032 O   0  0  0  0  0  0  0  0  0  0  0  0
    5.1009    6.8056   21.0544 C   0  0  0  0  0  0  0  0  0  0  0  0
    3.9651    6.1944   21.6619 N   0  0  0  0  0  0  0  0  0  0  0  0
    3.1112    6.7778   21.6724 H   0  0  0  0  0  0  0  0  0  0  0  0
    4.1350    5.8664   22.6397 H   0  0  0  0  0  0  0  0  0  0  0  0
    5.9534    5.7801   20.3172 C   0  0  0  0  0  0  0  0  0  0  0  0
    5.2702    4.5202   19.9889 C   0  0  0  0  0  0  0  0  0  0  0  0
    4.3366    4.3407   18.9563 C   0  0  0  0  0  0  0  0  0  0  0  0
    3.9302    3.0567   18.9198 N   0  0  0  0  0  0  0  0  0  0  0  0
    4.5573    2.3619   19.8917 C   0  0  0  0  0  0  0  0  0  0  0  0
    4.5156    1.0551   20.2932 C   0  0  0  0  0  0  0  0  0  0  0  0
    5.2778    0.6200   21.3414 C   0  0  0  0  0  0  0  0  0  0  0  0
    6.1205    1.5048   22.0320 C   0  0  0  0  0  0  0  0  0  0  0  0
    6.1529    2.8280   21.6141 C   0  0  0  0  0  0  0  0  0  0  0  0
    5.3783    3.2526   20.5496 C   0  0  0  0  0  0  0  0  0  0  0  0
    3.2324    2.6132   18.2538 H   0  0  0  0  0  0  0  0  0  0  0  0
    2.6947    8.0422   11.1667 N   0  0  0  0  0  0  0  0  0  0  0  0
    1.9876    8.4055   12.3042 C   0  0  0  0  0  0  0  0  0  0  0  0
    0.8588    8.9196   12.2656 O   0  0  0  0  0  0  0  0  0  0  0  0
    3.6872    7.6350   11.3818 H   0  0  0  0  0  0  0  0  0  0  0  0
    2.3866    8.0990    9.7781 C   0  0  0  0  0  0  0  0  0  0  0  0
    1.6435    6.8454    9.4334 C   0  0  0  0  0  0  0  0  0  0  0  0
    2.1131    5.9756    8.6420 O   0  0  0  0  0  0  0  0  0  0  0  0
    0.3488    6.6165   10.0068 N   0  0  0  0  0  0  0  0  0  0  0  0
   -0.0400    7.2958   10.6788 H   0  0  0  0  0  0  0  0  0  0  0  0
   -0.4033    5.4143    9.6206 C   0  0  0  0  0  0  0  0  0  0  0  0
   -1.4982    5.8625    8.7831 C   0  0  0  0  0  0  0  0  0  0  0  0
   -2.4294    5.0124    8.2067 O   0  0  0  0  0  0  0  0  0  0  0  0
   -1.6241    7.1170    8.5448 O   0  0  0  0  0  0  0  0  0  0  0  0
   -2.8252    5.2463    7.2723 H   0  0  0  0  0  0  0  0  0  0  0  0
   -0.8380    4.6139   10.7957 C   0  0  0  0  0  0  0  0  0  0  0  0
   -1.7364    5.4024   11.6697 C   0  0  0  0  0  0  0  0  0  0  0  0
   -1.1649    6.1263   12.7148 C   0  0  0  0  0  0  0  0  0  0  0  0
   -1.9231    6.8975   13.5689 C   0  0  0  0  0  0  0  0  0  0  0  0
   -3.3087    6.9653   13.3945 C   0  0  0  0  0  0  0  0  0  0  0  0
   -3.8585    6.2556   12.3689 C   0  0  0  0  0  0  0  0  0  0  0  0
   -3.0942    5.4920   11.5253 C   0  0  0  0  0  0  0  0  0  0  0  0
    3.5987    8.0667    8.8621 C   0  0  0  0  0  0  0  0  0  0  0  0
    2.4363    9.7098    7.3824 C   0  0  0  0  0  0  0  0  0  0  0  0
    3.7597    9.2510    7.9646 C   0  0  0  0  0  0  0  0  0  0  0  0
    4.6511    8.7989    6.8033 C   0  0  0  0  0  0  0  0  0  0  0  0
    1.7440    6.9927   14.1869 C   0  0  0  0  0  0  0  0  0  0  0  0
    2.5791    5.8563   14.6103 C   0  0  0  0  0  0  0  0  0  0  0  0
    3.7618    6.0224   15.3430 C   0  0  0  0  0  0  0  0  0  0  0  0
    4.3078    4.8231   15.5874 N   0  0  0  0  0  0  0  0  0  0  0  0
    3.5360    3.8618   15.0485 C   0  0  0  0  0  0  0  0  0  0  0  0
    3.6398    2.4923   15.0213 C   0  0  0  0  0  0  0  0  0  0  0  0
    2.6719    1.7573   14.3881 C   0  0  0  0  0  0  0  0  0  0  0  0
    1.6202    2.4002   13.7948 C   0  0  0  0  0  0  0  0  0  0  0  0
    1.4917    3.7738   13.8079 C   0  0  0  0  0  0  0  0  0  0  0  0
    2.4516    4.5034   14.4352 C   0  0  0  0  0  0  0  0  0  0  0  0
    5.2077    4.6227   16.1145 H   0  0  0  0  0  0  0  0  0  0  0  0
 55 56  1  0  0  0
 56 57  1  0  0  0
 56 54  1  0  0  0
 54 37  1  0  0  0
 37 33  1  0  0  0
 33 34  1  0  0  0
 34 35  2  0  0  0
 34  1  1  0  0  0
  1 58  1  0  0  0
 58 59  1  0  0  0
 59 60  2  0  0  0
 60 61  1  0  0  0
 61 62  1  0  0  0
 62 63  2  0  0  0
 63 64  1  0  0  0
 64 65  2  0  0  0
 65 66  1  0  0  0
 66 67  2  0  0  0
  1  2  1  0  0  0
  2  3  1  0  0  0
  3  4  2  0  0  0
  3  6  1  0  0  0
  6  7  1  0  0  0
  7  8  1  0  0  0
  8  9  2  0  0  0
  8 11  1  0  0  0
 11 12  1  0  0  0
 12 13  1  0  0  0
 13 14  1  0  0  0
 14 15  1  0  0  0
 15 16  1  0  0  0
 16 17  2  0  0  0
 16 18  1  0  0  0
 18 19  1  0  0  0
 18 22  1  0  0  0
 22 23  1  0  0  0
 23 24  2  0  0  0
 24 25  1  0  0  0
 25 26  1  0  0  0
 26 27  2  0  0  0
 27 28  1  0  0  0
 28 29  2  0  0  0
 29 30  1  0  0  0
 30 31  2  0  0  0
 37 38  1  0  0  0
 38 39  2  0  0  0
 38 40  1  0  0  0
 40 42  1  0  0  0
 42 47  1  0  0  0
 47 48  1  0  0  0
 48 49  2  0  0  0
 49 50  1  0  0  0
 50 51  2  0  0  0
 51 52  1  0  0  0
 52 53  2  0  0  0
 42 43  1  0  0  0
 43 44  1  0  0  0
 43 45  2  0  0  0
 67 59  1  0  0  0
 15 11  1  0  0  0
 31 23  1  0  0  0
 53 48  1  0  0  0
 67 62  1  0  0  0
 31 26  1  0  0  0
 33 36  1  0  0  0
 61 68  1  0  0  0
  2  5  1  0  0  0
  7 10  1  0  0  0
 19 20  1  0  0  0
 19 21  1  0  0  0
 25 32  1  0  0  0
 40 41  1  0  0  0
 44 46  1  0  0  0
M  END
> <minimizedAffinity>
-9.91020

> <CNNscore>
0.2655825913

> <CNNaffinity>
7.3097481728

> <CNN_VS>
1.9413418770

> <CNNaffinity_variance>
0.3588177562

$$$$
[H]OC(=O)[C@@]([H])(N([H])C(=O)[C@@]([H])(N([H])C(=O)[C@@]([H])(N([H])C(=O)C([H])([H])N([H])C(=O)[C@@]1([H])N(C(=O)[C@@]([H])(N([H])[H])C([H])([H])c2c([H])n([H])c3c([H])c([H])c([H])c([H])c23)C([H])([H])C([H])([H])C1([H])[H])C([H])([H])c1c([H])n([H])c2c([H])c([H])c([H])c([H])c12)C([H])([H])C([H])(C([H])([H])[H])C([H])([H])[H])C([H])([H])c1c([H])c([H])c([H])c([H])c1[H]


 68 73  0  0  0  0  0  0  0  0999 V2000
    2.6378    5.4012   14.7124 C   0  0  0  0  0  0  0  0  0  0  0  0
    2.0278    5.7627   13.4586 N   0  0  0  0  0  0  0  0  0  0  0  0
    0.7757    6.4027   13.4341 C   0  0  0  0  0  0  0  0  0  0  0  0
    0.2402    6.6408   14.5891 O   0  0  0  0  0  0  0  0  0  0  0  0
    2.5148    5.5515   12.5738 H   0  0  0  0  0  0  0  0  0  0  0  0
   -0.0091    6.8327   12.3061 C   0  0  0  0  0  0  0  0  0  0  0  0
   -1.0002    5.9067   11.7957 N   0  0  0  0  0  0  0  0  0  0  0  0
   -1.2232    5.9560   10.4066 C   0  0  0  0  0  0  0  0  0  0  0  0
   -0.4833    6.8258    9.7728 O   0  0  0  0  0  0  0  0  0  0  0  0
   -1.4401    5.2723   12.4607 H   0  0  0  0  0  0  0  0  0  0  0  0
   -2.1400    5.1785    9.6412 C   0  0  0  0  0  0  0  0  0  0  0  0
   -2.3709    5.7413    8.2317 C   0  0  0  0  0  0  0  0  0  0  0  0
   -3.4104    4.7534    7.7238 C   0  0  0  0  0  0  0  0  0  0  0  0
   -3.8852    3.9638    8.9384 C   0  0  0  0  0  0  0  0  0  0  0  0
   -3.4718    4.8979   10.0306 N   0  0  0  0  0  0  0  0  0  0  0  0
   -4.3469    5.2728   11.0540 C   0  0  0  0  0  0  0  0  0  0  0  0
   -3.9471    6.1344   11.9100 O   0  0  0  0  0  0  0  0  0  0  0  0
   -5.7249    4.7702   11.2784 C   0  0  0  0  0  0  0  0  0  0  0  0
   -6.0067    4.3857   12.6220 N   0  0  0  0  0  0  0  0  0  0  0  0
   -5.1731    4.1867   13.2012 H   0  0  0  0  0  0  0  0  0  0  0  0
   -6.6483    3.5643   12.7002 H   0  0  0  0  0  0  0  0  0  0  0  0
   -6.7296    5.7989   10.7746 C   0  0  0  0  0  0  0  0  0  0  0  0
   -6.9472    5.7995    9.3204 C   0  0  0  0  0  0  0  0  0  0  0  0
   -7.7696    4.9066    8.6159 C   0  0  0  0  0  0  0  0  0  0  0  0
   -7.7596    5.2082    7.3028 N   0  0  0  0  0  0  0  0  0  0  0  0
   -6.9592    6.2746    7.0955 C   0  0  0  0  0  0  0  0  0  0  0  0
   -6.5969    6.9787    5.9805 C   0  0  0  0  0  0  0  0  0  0  0  0
   -5.7421    8.0417    6.0707 C   0  0  0  0  0  0  0  0  0  0  0  0
   -5.2143    8.4352    7.3103 C   0  0  0  0  0  0  0  0  0  0  0  0
   -5.5904    7.7117    8.4337 C   0  0  0  0  0  0  0  0  0  0  0  0
   -6.4588    6.6404    8.3268 C   0  0  0  0  0  0  0  0  0  0  0  0
   -8.2802    4.7179    6.5180 H   0  0  0  0  0  0  0  0  0  0  0  0
    3.6741    6.6167   16.6310 N   0  0  0  0  0  0  0  0  0  0  0  0
    3.5380    6.4485   15.2603 C   0  0  0  0  0  0  0  0  0  0  0  0
    4.1454    7.1408   14.4285 O   0  0  0  0  0  0  0  0  0  0  0  0
    3.0401    5.9451   17.2177 H   0  0  0  0  0  0  0  0  0  0  0  0
    4.4702    7.4915   17.4229 C   0  0  0  0  0  0  0  0  0  0  0  0
    4.3803    7.0176   18.8406 C   0  0  0  0  0  0  0  0  0  0  0  0
    3.3974    6.3436   19.2684 O   0  0  0  0  0  0  0  0  0  0  0  0
    5.4349    7.3413   19.7573 N   0  0  0  0  0  0  0  0  0  0  0  0
    6.2606    7.8620   19.4235 H   0  0  0  0  0  0  0  0  0  0  0  0
    5.3157    6.9258   21.1621 C   0  0  0  0  0  0  0  0  0  0  0  0
    5.4603    8.1258   21.9622 C   0  0  0  0  0  0  0  0  0  0  0  0
    6.2027    8.1912   23.1313 O   0  0  0  0  0  0  0  0  0  0  0  0
    4.8670    9.1990   21.5844 O   0  0  0  0  0  0  0  0  0  0  0  0
    5.8869    8.8156   23.9026 H   0  0  0  0  0  0  0  0  0  0  0  0
    6.2764    5.8491   21.5198 C   0  0  0  0  0  0  0  0  0  0  0  0
    5.5836    4.7210   22.1832 C   0  0  0  0  0  0  0  0  0  0  0  0
    6.2393    3.4924   22.2421 C   0  0  0  0  0  0  0  0  0  0  0  0
    5.6754    2.3925   22.8514 C   0  0  0  0  0  0  0  0  0  0  0  0
    4.4077    2.4967   23.4321 C   0  0  0  0  0  0  0  0  0  0  0  0
    3.7749    3.7024   23.3711 C   0  0  0  0  0  0  0  0  0  0  0  0
    4.3459    4.7899   22.7626 C   0  0  0  0  0  0  0  0  0  0  0  0
    3.9622    8.9225   17.4851 C   0  0  0  0  0  0  0  0  0  0  0  0
    6.2445    9.3708   16.5735 C   0  0  0  0  0  0  0  0  0  0  0  0
    4.9265    9.9688   17.0275 C   0  0  0  0  0  0  0  0  0  0  0  0
    5.2095   10.8602   18.2411 C   0  0  0  0  0  0  0  0  0  0  0  0
    3.5936    4.2124   14.4878 C   0  0  0  0  0  0  0  0  0  0  0  0
    3.3253    3.0745   15.3830 C   0  0  0  0  0  0  0  0  0  0  0  0
    2.4713    2.0219   15.0281 C   0  0  0  0  0  0  0  0  0  0  0  0
    2.4184    1.1328   16.0295 N   0  0  0  0  0  0  0  0  0  0  0  0
    3.2046    1.5487   17.0391 C   0  0  0  0  0  0  0  0  0  0  0  0
    3.5033    1.0106   18.2673 C   0  0  0  0  0  0  0  0  0  0  0  0
    4.3660    1.6742   19.1000 C   0  0  0  0  0  0  0  0  0  0  0  0
    4.9139    2.8599   18.6935 C   0  0  0  0  0  0  0  0  0  0  0  0
    4.6312    3.4219   17.4656 C   0  0  0  0  0  0  0  0  0  0  0  0
    3.7752    2.7645   16.6395 C   0  0  0  0  0  0  0  0  0  0  0  0
    1.8539    0.2339   16.0609 H   0  0  0  0  0  0  0  0  0  0  0  0
 55 56  1  0  0  0
 56 57  1  0  0  0
 56 54  1  0  0  0
 54 37  1  0  0  0
 37 33  1  0  0  0
 33 34  1  0  0  0
 34 35  2  0  0  0
 34  1  1  0  0  0
  1 58  1  0  0  0
 58 59  1  0  0  0
 59 60  2  0  0  0
 60 61  1  0  0  0
 61 62  1  0  0  0
 62 63  2  0  0  0
 63 64  1  0  0  0
 64 65  2  0  0  0
 65 66  1  0  0  0
 66 67  2  0  0  0
  1  2  1  0  0  0
  2  3  1  0  0  0
  3  4  2  0  0  0
  3  6  1  0  0  0
  6  7  1  0  0  0
  7  8  1  0  0  0
  8  9  2  0  0  0
  8 11  1  0  0  0
 11 12  1  0  0  0
 12 13  1  0  0  0
 13 14  1  0  0  0
 14 15  1  0  0  0
 15 16  1  0  0  0
 16 17  2  0  0  0
 16 18  1  0  0  0
 18 19  1  0  0  0
 18 22  1  0  0  0
 22 23  1  0  0  0
 23 24  2  0  0  0
 24 25  1  0  0  0
 25 26  1  0  0  0
 26 27  2  0  0  0
 27 28  1  0  0  0
 28 29  2  0  0  0
 29 30  1  0  0  0
 30 31  2  0  0  0
 37 38  1  0  0  0
 38 39  2  0  0  0
 38 40  1  0  0  0
 40 42  1  0  0  0
 42 47  1  0  0  0
 47 48  1  0  0  0
 48 49  2  0  0  0
 49 50  1  0  0  0
 50 51  2  0  0  0
 51 52  1  0  0  0
 52 53  2  0  0  0
 42 43  1  0  0  0
 43 44  1  0  0  0
 43 45  2  0  0  0
 67 59  1  0  0  0
 15 11  1  0  0  0
 31 23  1  0  0  0
 53 48  1  0  0  0
 67 62  1  0  0  0
 31 26  1  0  0  0
 33 36  1  0  0  0
 61 68  1  0  0  0
  2  5  1  0  0  0
  7 10  1  0  0  0
 19 20  1  0  0  0
 19 21  1  0  0  0
 25 32  1  0  0  0
 40 41  1  0  0  0
 44 46  1  0  0  0
M  END
> <minimizedAffinity>
-9.89433

> <CNNscore>
0.2376489490

> <CNNaffinity>
6.9225006104

> <CNN_VS>
1.6451250315

> <CNNaffinity_variance>
0.4890235960

$$$$
[H]OC(=O)[C@@]([H])(N([H])C(=O)[C@@]([H])(N([H])C(=O)[C@@]([H])(N([H])C(=O)C([H])([H])N([H])C(=O)[C@@]1([H])N(C(=O)[C@@]([H])(N([H])[H])C([H])([H])c2c([H])n([H])c3c([H])c([H])c([H])c([H])c23)C([H])([H])C([H])([H])C1([H])[H])C([H])([H])c1c([H])n([H])c2c([H])c([H])c([H])c([H])c12)C([H])([H])C([H])(C([H])([H])[H])C([H])([H])[H])C([H])([H])c1c([H])c([H])c([H])c([H])c1[H]


 68 73  0  0  0  0  0  0  0  0999 V2000
    4.2025    4.7981   16.8321 C   0  0  0  0  0  0  0  0  0  0  0  0
    3.7068    5.4151   15.6287 N   0  0  0  0  0  0  0  0  0  0  0  0
    2.3236    5.4951   15.3871 C   0  0  0  0  0  0  0  0  0  0  0  0
    1.5597    4.9959   16.3062 O   0  0  0  0  0  0  0  0  0  0  0  0
    4.3721    5.8019   14.9413 H   0  0  0  0  0  0  0  0  0  0  0  0
    1.6236    6.0502   14.2579 C   0  0  0  0  0  0  0  0  0  0  0  0
    2.2968    6.0107   12.9751 N   0  0  0  0  0  0  0  0  0  0  0  0
    1.9931    7.0657   12.0939 C   0  0  0  0  0  0  0  0  0  0  0  0
    1.1541    7.9439   12.5739 O   0  0  0  0  0  0  0  0  0  0  0  0
    2.9561    5.2513   12.8113 H   0  0  0  0  0  0  0  0  0  0  0  0
    2.4918    7.2730   10.7751 C   0  0  0  0  0  0  0  0  0  0  0  0
    2.1236    6.1370    9.8105 C   0  0  0  0  0  0  0  0  0  0  0  0
    2.8375    6.6185    8.5563 C   0  0  0  0  0  0  0  0  0  0  0  0
    3.7612    7.7500    8.9929 C   0  0  0  0  0  0  0  0  0  0  0  0
    3.8591    7.4529   10.4552 N   0  0  0  0  0  0  0  0  0  0  0  0
    5.0884    7.3976   11.1181 C   0  0  0  0  0  0  0  0  0  0  0  0
    5.0987    7.0630   12.3521 O   0  0  0  0  0  0  0  0  0  0  0  0
    6.4246    7.6972   10.5464 C   0  0  0  0  0  0  0  0  0  0  0  0
    7.2031    8.6200   11.3048 N   0  0  0  0  0  0  0  0  0  0  0  0
    6.6614    9.2130   11.9565 H   0  0  0  0  0  0  0  0  0  0  0  0
    7.7949    9.2530   10.7204 H   0  0  0  0  0  0  0  0  0  0  0  0
    7.1812    6.3955   10.3130 C   0  0  0  0  0  0  0  0  0  0  0  0
    6.7284    5.6085    9.1563 C   0  0  0  0  0  0  0  0  0  0  0  0
    7.1564    5.7817    7.8309 C   0  0  0  0  0  0  0  0  0  0  0  0
    6.5609    4.8753    7.0316 N   0  0  0  0  0  0  0  0  0  0  0  0
    5.7455    4.0950    7.7711 C   0  0  0  0  0  0  0  0  0  0  0  0
    4.9202    3.0457    7.4739 C   0  0  0  0  0  0  0  0  0  0  0  0
    4.1885    2.4315    8.4519 C   0  0  0  0  0  0  0  0  0  0  0  0
    4.2656    2.8644    9.7848 C   0  0  0  0  0  0  0  0  0  0  0  0
    5.1070    3.9304   10.0722 C   0  0  0  0  0  0  0  0  0  0  0  0
    5.8435    4.5395    9.0722 C   0  0  0  0  0  0  0  0  0  0  0  0
    6.6804    4.7528    5.9837 H   0  0  0  0  0  0  0  0  0  0  0  0
    5.1321    6.8175   17.9681 N   0  0  0  0  0  0  0  0  0  0  0  0
    5.3251    5.5397   17.4624 C   0  0  0  0  0  0  0  0  0  0  0  0
    6.4165    4.9507   17.5065 O   0  0  0  0  0  0  0  0  0  0  0  0
    4.1179    7.1984   17.8148 H   0  0  0  0  0  0  0  0  0  0  0  0
    5.9921    7.7305   18.6411 C   0  0  0  0  0  0  0  0  0  0  0  0
    6.0470    7.3159   20.0791 C   0  0  0  0  0  0  0  0  0  0  0  0
    5.2757    7.8065   20.9552 O   0  0  0  0  0  0  0  0  0  0  0  0
    7.0103    6.3363   20.4910 N   0  0  0  0  0  0  0  0  0  0  0  0
    7.6275    5.8996   19.7892 H   0  0  0  0  0  0  0  0  0  0  0  0
    7.1017    5.9752   21.9128 C   0  0  0  0  0  0  0  0  0  0  0  0
    8.2003    6.7428   22.4649 C   0  0  0  0  0  0  0  0  0  0  0  0
    8.3875    6.9599   23.8214 O   0  0  0  0  0  0  0  0  0  0  0  0
    9.0562    7.2655   21.6646 O   0  0  0  0  0  0  0  0  0  0  0  0
    8.7985    7.8612   24.1425 H   0  0  0  0  0  0  0  0  0  0  0  0
    7.2333    4.5087   22.1194 C   0  0  0  0  0  0  0  0  0  0  0  0
    5.9662    3.9293   22.6205 C   0  0  0  0  0  0  0  0  0  0  0  0
    4.8242    4.7281   22.5938 C   0  0  0  0  0  0  0  0  0  0  0  0
    3.6004    4.2669   23.0279 C   0  0  0  0  0  0  0  0  0  0  0  0
    3.4852    2.9605   23.5128 C   0  0  0  0  0  0  0  0  0  0  0  0
    4.6068    2.1862   23.5335 C   0  0  0  0  0  0  0  0  0  0  0  0
    5.8190    2.6557   23.0988 C   0  0  0  0  0  0  0  0  0  0  0  0
    5.4767    9.1591   18.6941 C   0  0  0  0  0  0  0  0  0  0  0  0
    4.4804   10.5672   16.8870 C   0  0  0  0  0  0  0  0  0  0  0  0
    4.2590    9.4355   17.8723 C   0  0  0  0  0  0  0  0  0  0  0  0
    3.1641    9.8732   18.8507 C   0  0  0  0  0  0  0  0  0  0  0  0
    4.8445    3.4414   16.4797 C   0  0  0  0  0  0  0  0  0  0  0  0
    3.9861    2.2904   16.8062 C   0  0  0  0  0  0  0  0  0  0  0  0
    3.1748    1.6613   15.8527 C   0  0  0  0  0  0  0  0  0  0  0  0
    2.5102    0.6502   16.4291 N   0  0  0  0  0  0  0  0  0  0  0  0
    2.8465    0.5776   17.7298 C   0  0  0  0  0  0  0  0  0  0  0  0
    2.4640   -0.2672   18.7433 C   0  0  0  0  0  0  0  0  0  0  0  0
    2.9952   -0.0986   19.9953 C   0  0  0  0  0  0  0  0  0  0  0  0
    3.8964    0.9072   20.2132 C   0  0  0  0  0  0  0  0  0  0  0  0
    4.2977    1.7690   19.2133 C   0  0  0  0  0  0  0  0  0  0  0  0
    3.7708    1.6028   17.9715 C   0  0  0  0  0  0  0  0  0  0  0  0
    1.8165   -0.0081   15.9674 H   0  0  0  0  0  0  0  0  0  0  0  0
 55 56  1  0  0  0
 56 57  1  0  0  0
 56 54  1  0  0  0
 54 37  1  0  0  0
 37 33  1  0  0  0
 33 34  1  0  0  0
 34 35  2  0  0  0
 34  1  1  0  0  0
  1 58  1  0  0  0
 58 59  1  0  0  0
 59 60  2  0  0  0
 60 61  1  0  0  0
 61 62  1  0  0  0
 62 63  2  0  0  0
 63 64  1  0  0  0
 64 65  2  0  0  0
 65 66  1  0  0  0
 66 67  2  0  0  0
  1  2  1  0  0  0
  2  3  1  0  0  0
  3  4  2  0  0  0
  3  6  1  0  0  0
  6  7  1  0  0  0
  7  8  1  0  0  0
  8  9  2  0  0  0
  8 11  1  0  0  0
 11 12  1  0  0  0
 12 13  1  0  0  0
 13 14  1  0  0  0
 14 15  1  0  0  0
 15 16  1  0  0  0
 16 17  2  0  0  0
 16 18  1  0  0  0
 18 19  1  0  0  0
 18 22  1  0  0  0
 22 23  1  0  0  0
 23 24  2  0  0  0
 24 25  1  0  0  0
 25 26  1  0  0  0
 26 27  2  0  0  0
 27 28  1  0  0  0
 28 29  2  0  0  0
 29 30  1  0  0  0
 30 31  2  0  0  0
 37 38  1  0  0  0
 38 39  2  0  0  0
 38 40  1  0  0  0
 40 42  1  0  0  0
 42 47  1  0  0  0
 47 48  1  0  0  0
 48 49  2  0  0  0
 49 50  1  0  0  0
 50 51  2  0  0  0
 51 52  1  0  0  0
 52 53  2  0  0  0
 42 43  1  0  0  0
 43 44  1  0  0  0
 43 45  2  0  0  0
 67 59  1  0  0  0
 15 11  1  0  0  0
 31 23  1  0  0  0
 53 48  1  0  0  0
 67 62  1  0  0  0
 31 26  1  0  0  0
 33 36  1  0  0  0
 61 68  1  0  0  0
  2  5  1  0  0  0
  7 10  1  0  0  0
 19 20  1  0  0  0
 19 21  1  0  0  0
 25 32  1  0  0  0
 40 41  1  0  0  0
 44 46  1  0  0  0
M  END
> <minimizedAffinity>
-9.23041

> <CNNscore>
0.2244473547

> <CNNaffinity>
7.3141641617

> <CNN_VS>
1.6416448355

> <CNNaffinity_variance>
0.9493150711

$$$$
[H]OC(=O)[C@@]([H])(N([H])C(=O)[C@@]([H])(N([H])C(=O)[C@@]([H])(N([H])C(=O)C([H])([H])N([H])C(=O)[C@@]1([H])N(C(=O)[C@@]([H])(N([H])[H])C([H])([H])c2c([H])n([H])c3c([H])c([H])c([H])c([H])c23)C([H])([H])C([H])([H])C1([H])[H])C([H])([H])c1c([H])n([H])c2c([H])c([H])c([H])c([H])c12)C([H])([H])C([H])(C([H])([H])[H])C([H])([H])[H])C([H])([H])c1c([H])c([H])c([H])c([H])c1[H]


 68 73  0  0  0  0  0  0  0  0999 V2000
    4.1834    5.2459   16.7242 C   0  0  0  0  0  0  0  0  0  0  0  0
    3.7599    5.8172   15.4717 N   0  0  0  0  0  0  0  0  0  0  0  0
    2.4041    5.7897   15.0985 C   0  0  0  0  0  0  0  0  0  0  0  0
    1.5958    5.2378   15.9468 O   0  0  0  0  0  0  0  0  0  0  0  0
    4.4568    6.2505   14.8461 H   0  0  0  0  0  0  0  0  0  0  0  0
    1.7755    6.2840   13.9012 C   0  0  0  0  0  0  0  0  0  0  0  0
    2.0476    5.5741   12.6674 N   0  0  0  0  0  0  0  0  0  0  0  0
    1.2001    5.8823   11.5865 C   0  0  0  0  0  0  0  0  0  0  0  0
    0.2949    6.7855   11.8521 O   0  0  0  0  0  0  0  0  0  0  0  0
    2.8390    4.9326   12.6567 H   0  0  0  0  0  0  0  0  0  0  0  0
    1.2266    5.3330   10.2717 C   0  0  0  0  0  0  0  0  0  0  0  0
    1.1565    3.7995   10.2623 C   0  0  0  0  0  0  0  0  0  0  0  0
    1.2692    3.5428    8.7669 C   0  0  0  0  0  0  0  0  0  0  0  0
    1.6972    4.8618    8.1336 C   0  0  0  0  0  0  0  0  0  0  0  0
    2.2637    5.5518    9.3332 N   0  0  0  0  0  0  0  0  0  0  0  0
    3.5191    6.1658    9.3093 C   0  0  0  0  0  0  0  0  0  0  0  0
    3.9699    6.6694   10.3947 O   0  0  0  0  0  0  0  0  0  0  0  0
    4.4170    6.3153    8.1374 C   0  0  0  0  0  0  0  0  0  0  0  0
    4.6942    5.1023    7.4415 N   0  0  0  0  0  0  0  0  0  0  0  0
    4.5277    4.2399    7.9877 H   0  0  0  0  0  0  0  0  0  0  0  0
    5.6644    5.0491    7.0563 H   0  0  0  0  0  0  0  0  0  0  0  0
    3.8554    7.3761    7.1988 C   0  0  0  0  0  0  0  0  0  0  0  0
    4.7774    8.4746    6.8747 C   0  0  0  0  0  0  0  0  0  0  0  0
    5.1052    9.5445    7.7220 C   0  0  0  0  0  0  0  0  0  0  0  0
    5.9984   10.3533    7.1193 N   0  0  0  0  0  0  0  0  0  0  0  0
    6.2861    9.8668    5.8941 C   0  0  0  0  0  0  0  0  0  0  0  0
    7.1076   10.2838    4.8833 C   0  0  0  0  0  0  0  0  0  0  0  0
    7.1988    9.5751    3.7177 C   0  0  0  0  0  0  0  0  0  0  0  0
    6.4501    8.4028    3.5300 C   0  0  0  0  0  0  0  0  0  0  0  0
    5.6204    7.9913    4.5640 C   0  0  0  0  0  0  0  0  0  0  0  0
    5.5412    8.7174    5.7387 C   0  0  0  0  0  0  0  0  0  0  0  0
    6.4361   11.2411    7.5036 H   0  0  0  0  0  0  0  0  0  0  0  0
    4.8674    7.3773   17.8295 N   0  0  0  0  0  0  0  0  0  0  0  0
    5.1757    6.0778   17.4526 C   0  0  0  0  0  0  0  0  0  0  0  0
    6.2682    5.5421   17.6967 O   0  0  0  0  0  0  0  0  0  0  0  0
    3.8743    7.7015   17.5043 H   0  0  0  0  0  0  0  0  0  0  0  0
    5.5880    8.3714   18.5497 C   0  0  0  0  0  0  0  0  0  0  0  0
    5.6375    7.9378   19.9823 C   0  0  0  0  0  0  0  0  0  0  0  0
    4.7602    8.2864   20.8261 O   0  0  0  0  0  0  0  0  0  0  0  0
    6.7180    7.1059   20.4271 N   0  0  0  0  0  0  0  0  0  0  0  0
    7.4269    6.7834   19.7505 H   0  0  0  0  0  0  0  0  0  0  0  0
    6.7962    6.7311   21.8461 C   0  0  0  0  0  0  0  0  0  0  0  0
    7.7051    7.6703   22.4728 C   0  0  0  0  0  0  0  0  0  0  0  0
    9.0808    7.6461   22.3030 O   0  0  0  0  0  0  0  0  0  0  0  0
    7.2255    8.5810   23.2390 O   0  0  0  0  0  0  0  0  0  0  0  0
    9.6980    7.9279   23.0931 H   0  0  0  0  0  0  0  0  0  0  0  0
    7.1811    5.3078   22.0375 C   0  0  0  0  0  0  0  0  0  0  0  0
    6.0113    4.4927   22.4371 C   0  0  0  0  0  0  0  0  0  0  0  0
    6.1891    3.1178   22.5822 C   0  0  0  0  0  0  0  0  0  0  0  0
    5.1596    2.2848   22.9633 C   0  0  0  0  0  0  0  0  0  0  0  0
    3.8927    2.8204   23.2150 C   0  0  0  0  0  0  0  0  0  0  0  0
    3.7288    4.1660   23.0722 C   0  0  0  0  0  0  0  0  0  0  0  0
    4.7605    4.9849   22.6929 C   0  0  0  0  0  0  0  0  0  0  0  0
    4.9062    9.7284   18.6040 C   0  0  0  0  0  0  0  0  0  0  0  0
    4.0654   10.6313   16.4318 C   0  0  0  0  0  0  0  0  0  0  0  0
    3.7199    9.8895   17.7089 C   0  0  0  0  0  0  0  0  0  0  0  0
    2.7033   10.7358   18.4821 C   0  0  0  0  0  0  0  0  0  0  0  0
    4.9638    3.9446   16.4506 C   0  0  0  0  0  0  0  0  0  0  0  0
    4.1393    2.7326   16.5909 C   0  0  0  0  0  0  0  0  0  0  0  0
    3.4415    2.1676   15.5153 C   0  0  0  0  0  0  0  0  0  0  0  0
    2.7825    1.0781   15.9336 N   0  0  0  0  0  0  0  0  0  0  0  0
    3.0136    0.8916   17.2459 C   0  0  0  0  0  0  0  0  0  0  0  0
    2.5912   -0.0640   18.1378 C   0  0  0  0  0  0  0  0  0  0  0  0
    3.0085    0.0022   19.4415 C   0  0  0  0  0  0  0  0  0  0  0  0
    3.8378    1.0179   19.8310 C   0  0  0  0  0  0  0  0  0  0  0  0
    4.2771    1.9899   18.9558 C   0  0  0  0  0  0  0  0  0  0  0  0
    3.8631    1.9252   17.6628 C   0  0  0  0  0  0  0  0  0  0  0  0
    2.1626    0.4404   15.3532 H   0  0  0  0  0  0  0  0  0  0  0  0
 55 56  1  0  0  0
 56 57  1  0  0  0
 56 54  1  0  0  0
 54 37  1  0  0  0
 37 33  1  0  0  0
 33 34  1  0  0  0
 34 35  2  0  0  0
 34  1  1  0  0  0
  1 58  1  0  0  0
 58 59  1  0  0  0
 59 60  2  0  0  0
 60 61  1  0  0  0
 61 62  1  0  0  0
 62 63  2  0  0  0
 63 64  1  0  0  0
 64 65  2  0  0  0
 65 66  1  0  0  0
 66 67  2  0  0  0
  1  2  1  0  0  0
  2  3  1  0  0  0
  3  4  2  0  0  0
  3  6  1  0  0  0
  6  7  1  0  0  0
  7  8  1  0  0  0
  8  9  2  0  0  0
  8 11  1  0  0  0
 11 12  1  0  0  0
 12 13  1  0  0  0
 13 14  1  0  0  0
 14 15  1  0  0  0
 15 16  1  0  0  0
 16 17  2  0  0  0
 16 18  1  0  0  0
 18 19  1  0  0  0
 18 22  1  0  0  0
 22 23  1  0  0  0
 23 24  2  0  0  0
 24 25  1  0  0  0
 25 26  1  0  0  0
 26 27  2  0  0  0
 27 28  1  0  0  0
 28 29  2  0  0  0
 29 30  1  0  0  0
 30 31  2  0  0  0
 37 38  1  0  0  0
 38 39  2  0  0  0
 38 40  1  0  0  0
 40 42  1  0  0  0
 42 47  1  0  0  0
 47 48  1  0  0  0
 48 49  2  0  0  0
 49 50  1  0  0  0
 50 51  2  0  0  0
 51 52  1  0  0  0
 52 53  2  0  0  0
 42 43  1  0  0  0
 43 44  1  0  0  0
 43 45  2  0  0  0
 67 59  1  0  0  0
 15 11  1  0  0  0
 31 23  1  0  0  0
 53 48  1  0  0  0
 67 62  1  0  0  0
 31 26  1  0  0  0
 33 36  1  0  0  0
 61 68  1  0  0  0
  2  5  1  0  0  0
  7 10  1  0  0  0
 19 20  1  0  0  0
 19 21  1  0  0  0
 25 32  1  0  0  0
 40 41  1  0  0  0
 44 46  1  0  0  0
M  END
> <minimizedAffinity>
-9.61543

> <CNNscore>
0.2193620354

> <CNNaffinity>
6.9090337753

> <CNN_VS>
1.5155797005

> <CNNaffinity_variance>
1.0613189936

$$$$
[H]OC(=O)[C@@]([H])(N([H])C(=O)[C@@]([H])(N([H])C(=O)[C@@]([H])(N([H])C(=O)C([H])([H])N([H])C(=O)[C@@]1([H])N(C(=O)[C@@]([H])(N([H])[H])C([H])([H])c2c([H])n([H])c3c([H])c([H])c([H])c([H])c23)C([H])([H])C([H])([H])C1([H])[H])C([H])([H])c1c([H])n([H])c2c([H])c([H])c([H])c([H])c12)C([H])([H])C([H])(C([H])([H])[H])C([H])([H])[H])C([H])([H])c1c([H])c([H])c([H])c([H])c1[H]


 68 73  0  0  0  0  0  0  0  0999 V2000
    4.6236    5.8058   16.9927 C   0  0  0  0  0  0  0  0  0  0  0  0
    4.3742    6.2942   15.6608 N   0  0  0  0  0  0  0  0  0  0  0  0
    3.1265    6.0833   15.0469 C   0  0  0  0  0  0  0  0  0  0  0  0
    2.2489    5.4463   15.7551 O   0  0  0  0  0  0  0  0  0  0  0  0
    5.1163    6.8032   15.1558 H   0  0  0  0  0  0  0  0  0  0  0  0
    2.6765    6.4696   13.7348 C   0  0  0  0  0  0  0  0  0  0  0  0
    1.6121    5.6857   13.1410 N   0  0  0  0  0  0  0  0  0  0  0  0
    0.7832    6.3711   12.2328 C   0  0  0  0  0  0  0  0  0  0  0  0
    1.1097    7.6213   12.0433 O   0  0  0  0  0  0  0  0  0  0  0  0
    1.5542    4.7003   13.3936 H   0  0  0  0  0  0  0  0  0  0  0  0
   -0.3382    5.8601   11.5169 C   0  0  0  0  0  0  0  0  0  0  0  0
   -1.4798    5.4064   12.4375 C   0  0  0  0  0  0  0  0  0  0  0  0
   -2.4557    4.8736   11.3991 C   0  0  0  0  0  0  0  0  0  0  0  0
   -1.6830    4.7806   10.0882 C   0  0  0  0  0  0  0  0  0  0  0  0
   -0.2833    4.7709   10.6143 N   0  0  0  0  0  0  0  0  0  0  0  0
    0.6574    3.8252   10.1966 C   0  0  0  0  0  0  0  0  0  0  0  0
    1.8115    3.8322   10.7470 O   0  0  0  0  0  0  0  0  0  0  0  0
    0.4751    2.7862    9.1530 C   0  0  0  0  0  0  0  0  0  0  0  0
    1.4759    2.7805    8.1376 N   0  0  0  0  0  0  0  0  0  0  0  0
    2.0076    3.6630    8.0463 H   0  0  0  0  0  0  0  0  0  0  0  0
    1.1135    2.5312    7.1894 H   0  0  0  0  0  0  0  0  0  0  0  0
    0.3490    1.4189    9.8136 C   0  0  0  0  0  0  0  0  0  0  0  0
   -0.7267    0.5669    9.2854 C   0  0  0  0  0  0  0  0  0  0  0  0
   -1.9591    1.0190    8.7886 C   0  0  0  0  0  0  0  0  0  0  0  0
   -2.6958   -0.0253    8.3622 N   0  0  0  0  0  0  0  0  0  0  0  0
   -2.0036   -1.1677    8.5531 C   0  0  0  0  0  0  0  0  0  0  0  0
   -2.2733   -2.4857    8.3067 C   0  0  0  0  0  0  0  0  0  0  0  0
   -1.3618   -3.4566    8.6157 C   0  0  0  0  0  0  0  0  0  0  0  0
   -0.1274   -3.1239    9.1949 C   0  0  0  0  0  0  0  0  0  0  0  0
    0.1331   -1.7826    9.4396 C   0  0  0  0  0  0  0  0  0  0  0  0
   -0.7979   -0.8114    9.1184 C   0  0  0  0  0  0  0  0  0  0  0  0
   -3.6684   -0.0057    7.9367 H   0  0  0  0  0  0  0  0  0  0  0  0
    4.8746    7.7697   18.5134 N   0  0  0  0  0  0  0  0  0  0  0  0
    5.4562    6.7205   17.8158 C   0  0  0  0  0  0  0  0  0  0  0  0
    6.6743    6.4843   17.8377 O   0  0  0  0  0  0  0  0  0  0  0  0
    3.7953    7.8534   18.3549 H   0  0  0  0  0  0  0  0  0  0  0  0
    5.4043    8.7594   19.3888 C   0  0  0  0  0  0  0  0  0  0  0  0
    5.5660    8.1247   20.7355 C   0  0  0  0  0  0  0  0  0  0  0  0
    4.8211    8.4184   21.7164 O   0  0  0  0  0  0  0  0  0  0  0  0
    6.6045    7.1557   20.9348 N   0  0  0  0  0  0  0  0  0  0  0  0
    7.2030    6.8773   20.1420 H   0  0  0  0  0  0  0  0  0  0  0  0
    6.7987    6.5786   22.2725 C   0  0  0  0  0  0  0  0  0  0  0  0
    7.7595    7.4245   22.9526 C   0  0  0  0  0  0  0  0  0  0  0  0
    7.7312    7.6879   24.3135 O   0  0  0  0  0  0  0  0  0  0  0  0
    8.6946    7.9759   22.2687 O   0  0  0  0  0  0  0  0  0  0  0  0
    8.0400    8.6202   24.6598 H   0  0  0  0  0  0  0  0  0  0  0  0
    7.1934    5.1461   22.2217 C   0  0  0  0  0  0  0  0  0  0  0  0
    6.0457    4.2693   22.5483 C   0  0  0  0  0  0  0  0  0  0  0  0
    4.8117    4.8690   22.7943 C   0  0  0  0  0  0  0  0  0  0  0  0
    3.6875    4.1300   23.0926 C   0  0  0  0  0  0  0  0  0  0  0  0
    3.7719    2.7356   23.1543 C   0  0  0  0  0  0  0  0  0  0  0  0
    4.9822    2.1580   22.9106 C   0  0  0  0  0  0  0  0  0  0  0  0
    6.0938    2.9034   22.6145 C   0  0  0  0  0  0  0  0  0  0  0  0
    4.4743    9.9328   19.6491 C   0  0  0  0  0  0  0  0  0  0  0  0
    5.9019   11.8107   20.4716 C   0  0  0  0  0  0  0  0  0  0  0  0
    5.0386   11.2824   19.3418 C   0  0  0  0  0  0  0  0  0  0  0  0
    3.8433   12.2279   19.1838 C   0  0  0  0  0  0  0  0  0  0  0  0
    5.4907    4.5334   16.9128 C   0  0  0  0  0  0  0  0  0  0  0  0
    4.8978    3.3818   17.6130 C   0  0  0  0  0  0  0  0  0  0  0  0
    5.0900    3.1520   18.9818 C   0  0  0  0  0  0  0  0  0  0  0  0
    4.4360    2.0396   19.3439 N   0  0  0  0  0  0  0  0  0  0  0  0
    3.8129    1.5177   18.2717 C   0  0  0  0  0  0  0  0  0  0  0  0
    3.0177    0.4098   18.1063 C   0  0  0  0  0  0  0  0  0  0  0  0
    2.5051    0.1294   16.8666 C   0  0  0  0  0  0  0  0  0  0  0  0
    2.7943    0.9573   15.8168 C   0  0  0  0  0  0  0  0  0  0  0  0
    3.5896    2.0762   15.9556 C   0  0  0  0  0  0  0  0  0  0  0  0
    4.0987    2.3546   17.1846 C   0  0  0  0  0  0  0  0  0  0  0  0
    4.3961    1.6046   20.3119 H   0  0  0  0  0  0  0  0  0  0  0  0
 55 56  1  0  0  0
 56 57  1  0  0  0
 56 54  1  0  0  0
 54 37  1  0  0  0
 37 33  1  0  0  0
 33 34  1  0  0  0
 34 35  2  0  0  0
 34  1  1  0  0  0
  1 58  1  0  0  0
 58 59  1  0  0  0
 59 60  2  0  0  0
 60 61  1  0  0  0
 61 62  1  0  0  0
 62 63  2  0  0  0
 63 64  1  0  0  0
 64 65  2  0  0  0
 65 66  1  0  0  0
 66 67  2  0  0  0
  1  2  1  0  0  0
  2  3  1  0  0  0
  3  4  2  0  0  0
  3  6  1  0  0  0
  6  7  1  0  0  0
  7  8  1  0  0  0
  8  9  2  0  0  0
  8 11  1  0  0  0
 11 12  1  0  0  0
 12 13  1  0  0  0
 13 14  1  0  0  0
 14 15  1  0  0  0
 15 16  1  0  0  0
 16 17  2  0  0  0
 16 18  1  0  0  0
 18 19  1  0  0  0
 18 22  1  0  0  0
 22 23  1  0  0  0
 23 24  2  0  0  0
 24 25  1  0  0  0
 25 26  1  0  0  0
 26 27  2  0  0  0
 27 28  1  0  0  0
 28 29  2  0  0  0
 29 30  1  0  0  0
 30 31  2  0  0  0
 37 38  1  0  0  0
 38 39  2  0  0  0
 38 40  1  0  0  0
 40 42  1  0  0  0
 42 47  1  0  0  0
 47 48  1  0  0  0
 48 49  2  0  0  0
 49 50  1  0  0  0
 50 51  2  0  0  0
 51 52  1  0  0  0
 52 53  2  0  0  0
 42 43  1  0  0  0
 43 44  1  0  0  0
 43 45  2  0  0  0
 67 59  1  0  0  0
 15 11  1  0  0  0
 31 23  1  0  0  0
 53 48  1  0  0  0
 67 62  1  0  0  0
 31 26  1  0  0  0
 33 36  1  0  0  0
 61 68  1  0  0  0
  2  5  1  0  0  0
  7 10  1  0  0  0
 19 20  1  0  0  0
 19 21  1  0  0  0
 25 32  1  0  0  0
 40 41  1  0  0  0
 44 46  1  0  0  0
M  END
> <minimizedAffinity>
-9.65808

> <CNNscore>
0.1862085909

> <CNNaffinity>
7.0832076073

> <CNN_VS>
1.3189541101

> <CNNaffinity_variance>
0.5750150681

$$$$
[H]OC(=O)[C@@]([H])(N([H])C(=O)[C@@]([H])(N([H])C(=O)[C@@]([H])(N([H])C(=O)C([H])([H])N([H])C(=O)[C@@]1([H])N(C(=O)[C@@]([H])(N([H])[H])C([H])([H])c2c([H])n([H])c3c([H])c([H])c([H])c([H])c23)C([H])([H])C([H])([H])C1([H])[H])C([H])([H])c1c([H])n([H])c2c([H])c([H])c([H])c([H])c12)C([H])([H])C([H])(C([H])([H])[H])C([H])([H])[H])C([H])([H])c1c([H])c([H])c([H])c([H])c1[H]


 68 73  0  0  0  0  0  0  0  0999 V2000
    4.1028    5.4019   16.1802 C   0  0  0  0  0  0  0  0  0  0  0  0
    4.1676    5.1905   14.7570 N   0  0  0  0  0  0  0  0  0  0  0  0
    3.0091    4.8552   14.0333 C   0  0  0  0  0  0  0  0  0  0  0  0
    1.9175    4.7653   14.7245 O   0  0  0  0  0  0  0  0  0  0  0  0
    5.0702    5.2877   14.2664 H   0  0  0  0  0  0  0  0  0  0  0  0
    2.8550    4.5902   12.6265 C   0  0  0  0  0  0  0  0  0  0  0  0
    3.9914    4.0214   11.9300 N   0  0  0  0  0  0  0  0  0  0  0  0
    4.0362    4.2548   10.5426 C   0  0  0  0  0  0  0  0  0  0  0  0
    3.0458    4.9727   10.0849 O   0  0  0  0  0  0  0  0  0  0  0  0
    4.6855    3.5244   12.4864 H   0  0  0  0  0  0  0  0  0  0  0  0
    5.0197    3.8080    9.6130 C   0  0  0  0  0  0  0  0  0  0  0  0
    4.8855    4.4707    8.2349 C   0  0  0  0  0  0  0  0  0  0  0  0
    6.0003    3.7514    7.4903 C   0  0  0  0  0  0  0  0  0  0  0  0
    6.4233    2.5816    8.3716 C   0  0  0  0  0  0  0  0  0  0  0  0
    5.2085    2.4569    9.2347 N   0  0  0  0  0  0  0  0  0  0  0  0
    4.5784    1.2283    9.4520 C   0  0  0  0  0  0  0  0  0  0  0  0
    3.5005    1.2115   10.1395 O   0  0  0  0  0  0  0  0  0  0  0  0
    5.0280   -0.1020    8.9725 C   0  0  0  0  0  0  0  0  0  0  0  0
    5.1423   -1.0941    9.9900 N   0  0  0  0  0  0  0  0  0  0  0  0
    5.2239   -0.7228   10.9519 H   0  0  0  0  0  0  0  0  0  0  0  0
    5.9327   -1.7617    9.8416 H   0  0  0  0  0  0  0  0  0  0  0  0
    4.1179   -0.5695    7.8433 C   0  0  0  0  0  0  0  0  0  0  0  0
    3.4493   -1.8588    8.0731 C   0  0  0  0  0  0  0  0  0  0  0  0
    4.0051   -3.1239    7.8269 C   0  0  0  0  0  0  0  0  0  0  0  0
    3.1300   -4.0877    8.1740 N   0  0  0  0  0  0  0  0  0  0  0  0
    2.0021   -3.5177    8.6469 C   0  0  0  0  0  0  0  0  0  0  0  0
    0.8218   -4.0175    9.1241 C   0  0  0  0  0  0  0  0  0  0  0  0
   -0.1751   -3.1805    9.5418 C   0  0  0  0  0  0  0  0  0  0  0  0
   -0.0117   -1.7875    9.4895 C   0  0  0  0  0  0  0  0  0  0  0  0
    1.1910   -1.2940    9.0029 C   0  0  0  0  0  0  0  0  0  0  0  0
    2.1916   -2.1537    8.5869 C   0  0  0  0  0  0  0  0  0  0  0  0
    3.2590   -5.1394    8.1067 H   0  0  0  0  0  0  0  0  0  0  0  0
    4.5836    7.1239   17.9227 N   0  0  0  0  0  0  0  0  0  0  0  0
    4.3845    6.8027   16.5874 C   0  0  0  0  0  0  0  0  0  0  0  0
    4.4314    7.6414   15.6739 O   0  0  0  0  0  0  0  0  0  0  0  0
    4.4728    6.2699   18.5977 H   0  0  0  0  0  0  0  0  0  0  0  0
    4.8982    8.3430   18.5868 C   0  0  0  0  0  0  0  0  0  0  0  0
    5.1126    8.0216   20.0336 C   0  0  0  0  0  0  0  0  0  0  0  0
    4.5416    8.6656   20.9623 O   0  0  0  0  0  0  0  0  0  0  0  0
    6.0020    6.9547   20.3915 N   0  0  0  0  0  0  0  0  0  0  0  0
    6.4536    6.3957   19.6513 H   0  0  0  0  0  0  0  0  0  0  0  0
    6.2563    6.6803   21.8128 C   0  0  0  0  0  0  0  0  0  0  0  0
    7.0398    7.7916   22.3150 C   0  0  0  0  0  0  0  0  0  0  0  0
    6.5752    8.7069   23.2470 O   0  0  0  0  0  0  0  0  0  0  0  0
    8.2343    7.9572   21.8767 O   0  0  0  0  0  0  0  0  0  0  0  0
    6.8914    9.6976   23.1915 H   0  0  0  0  0  0  0  0  0  0  0  0
    6.8915    5.3539   22.0308 C   0  0  0  0  0  0  0  0  0  0  0  0
    5.8912    4.3543   22.4700 C   0  0  0  0  0  0  0  0  0  0  0  0
    6.2933    3.0231   22.5665 C   0  0  0  0  0  0  0  0  0  0  0  0
    5.4331    2.0288   22.9792 C   0  0  0  0  0  0  0  0  0  0  0  0
    4.1140    2.3495   23.3142 C   0  0  0  0  0  0  0  0  0  0  0  0
    3.7303    3.6539   23.2184 C   0  0  0  0  0  0  0  0  0  0  0  0
    4.5950    4.6347   22.8069 C   0  0  0  0  0  0  0  0  0  0  0  0
    3.7695    9.3604   18.6038 C   0  0  0  0  0  0  0  0  0  0  0  0
    4.0742   11.7623   19.2195 C   0  0  0  0  0  0  0  0  0  0  0  0
    4.1260   10.7264   18.1127 C   0  0  0  0  0  0  0  0  0  0  0  0
    3.0697   11.1027   17.0686 C   0  0  0  0  0  0  0  0  0  0  0  0
    5.2380    4.6128   16.8628 C   0  0  0  0  0  0  0  0  0  0  0  0
    4.7549    3.4740   17.6615 C   0  0  0  0  0  0  0  0  0  0  0  0
    4.9820    3.3708   19.0403 C   0  0  0  0  0  0  0  0  0  0  0  0
    4.4308    2.2390   19.5001 N   0  0  0  0  0  0  0  0  0  0  0  0
    3.8428    1.5825   18.4834 C   0  0  0  0  0  0  0  0  0  0  0  0
    3.1445    0.4012   18.4196 C   0  0  0  0  0  0  0  0  0  0  0  0
    2.6440   -0.0194   17.2151 C   0  0  0  0  0  0  0  0  0  0  0  0
    2.8485    0.7441   16.0988 C   0  0  0  0  0  0  0  0  0  0  0  0
    3.5456    1.9343   16.1352 C   0  0  0  0  0  0  0  0  0  0  0  0
    4.0428    2.3517   17.3293 C   0  0  0  0  0  0  0  0  0  0  0  0
    4.4396    1.8804   20.4996 H   0  0  0  0  0  0  0  0  0  0  0  0
 55 56  1  0  0  0
 56 57  1  0  0  0
 56 54  1  0  0  0
 54 37  1  0  0  0
 37 33  1  0  0  0
 33 34  1  0  0  0
 34 35  2  0  0  0
 34  1  1  0  0  0
  1 58  1  0  0  0
 58 59  1  0  0  0
 59 60  2  0  0  0
 60 61  1  0  0  0
 61 62  1  0  0  0
 62 63  2  0  0  0
 63 64  1  0  0  0
 64 65  2  0  0  0
 65 66  1  0  0  0
 66 67  2  0  0  0
  1  2  1  0  0  0
  2  3  1  0  0  0
  3  4  2  0  0  0
  3  6  1  0  0  0
  6  7  1  0  0  0
  7  8  1  0  0  0
  8  9  2  0  0  0
  8 11  1  0  0  0
 11 12  1  0  0  0
 12 13  1  0  0  0
 13 14  1  0  0  0
 14 15  1  0  0  0
 15 16  1  0  0  0
 16 17  2  0  0  0
 16 18  1  0  0  0
 18 19  1  0  0  0
 18 22  1  0  0  0
 22 23  1  0  0  0
 23 24  2  0  0  0
 24 25  1  0  0  0
 25 26  1  0  0  0
 26 27  2  0  0  0
 27 28  1  0  0  0
 28 29  2  0  0  0
 29 30  1  0  0  0
 30 31  2  0  0  0
 37 38  1  0  0  0
 38 39  2  0  0  0
 38 40  1  0  0  0
 40 42  1  0  0  0
 42 47  1  0  0  0
 47 48  1  0  0  0
 48 49  2  0  0  0
 49 50  1  0  0  0
 50 51  2  0  0  0
 51 52  1  0  0  0
 52 53  2  0  0  0
 42 43  1  0  0  0
 43 44  1  0  0  0
 43 45  2  0  0  0
 67 59  1  0  0  0
 15 11  1  0  0  0
 31 23  1  0  0  0
 53 48  1  0  0  0
 67 62  1  0  0  0
 31 26  1  0  0  0
 33 36  1  0  0  0
 61 68  1  0  0  0
  2  5  1  0  0  0
  7 10  1  0  0  0
 19 20  1  0  0  0
 19 21  1  0  0  0
 25 32  1  0  0  0
 40 41  1  0  0  0
 44 46  1  0  0  0
M  END
> <minimizedAffinity>
-9.36653

> <CNNscore>
0.1856252849

> <CNNaffinity>
7.1218786240

> <CNN_VS>
1.3220007420

> <CNNaffinity_variance>
0.6600390077

$$$$
[H]OC(=O)[C@@]([H])(N([H])C(=O)[C@@]([H])(N([H])C(=O)[C@@]([H])(N([H])C(=O)C([H])([H])N([H])C(=O)[C@@]1([H])N(C(=O)[C@@]([H])(N([H])[H])C([H])([H])c2c([H])n([H])c3c([H])c([H])c([H])c([H])c23)C([H])([H])C([H])([H])C1([H])[H])C([H])([H])c1c([H])n([H])c2c([H])c([H])c([H])c([H])c12)C([H])([H])C([H])(C([H])([H])[H])C([H])([H])[H])C([H])([H])c1c([H])c([H])c([H])c([H])c1[H]


 68 73  0  0  0  0  0  0  0  0999 V2000
    4.5216    5.7179   17.6445 C   0  0  0  0  0  0  0  0  0  0  0  0
    3.9858    5.8226   16.3117 N   0  0  0  0  0  0  0  0  0  0  0  0
    2.6443    5.4870   16.0549 C   0  0  0  0  0  0  0  0  0  0  0  0
    1.9527    5.1001   17.0794 O   0  0  0  0  0  0  0  0  0  0  0  0
    4.5910    6.1475   15.5417 H   0  0  0  0  0  0  0  0  0  0  0  0
    1.9196    5.5053   14.8109 C   0  0  0  0  0  0  0  0  0  0  0  0
    2.6682    5.2226   13.6027 N   0  0  0  0  0  0  0  0  0  0  0  0
    2.1931    5.8423   12.4314 C   0  0  0  0  0  0  0  0  0  0  0  0
    1.1470    6.6033   12.6109 O   0  0  0  0  0  0  0  0  0  0  0  0
    3.4916    4.6283   13.6858 H   0  0  0  0  0  0  0  0  0  0  0  0
    2.7187    5.7338   11.1112 C   0  0  0  0  0  0  0  0  0  0  0  0
    2.9610    4.2803   10.6810 C   0  0  0  0  0  0  0  0  0  0  0  0
    3.5627    4.5133    9.3032 C   0  0  0  0  0  0  0  0  0  0  0  0
    3.8886    6.0002    9.2204 C   0  0  0  0  0  0  0  0  0  0  0  0
    3.9230    6.3380   10.6767 N   0  0  0  0  0  0  0  0  0  0  0  0
    4.9801    7.0542   11.2452 C   0  0  0  0  0  0  0  0  0  0  0  0
    4.9776    7.2393   12.5104 O   0  0  0  0  0  0  0  0  0  0  0  0
    6.1378    7.6510   10.5342 C   0  0  0  0  0  0  0  0  0  0  0  0
    6.3596    9.0316   10.8122 N   0  0  0  0  0  0  0  0  0  0  0  0
    5.5406    9.5353   11.1936 H   0  0  0  0  0  0  0  0  0  0  0  0
    6.7106    9.5761    9.9920 H   0  0  0  0  0  0  0  0  0  0  0  0
    7.3864    6.8230   10.8113 C   0  0  0  0  0  0  0  0  0  0  0  0
    8.4265    7.5046   11.5960 C   0  0  0  0  0  0  0  0  0  0  0  0
    8.2001    8.3680   12.6792 C   0  0  0  0  0  0  0  0  0  0  0  0
    9.3747    8.7941   13.1829 N   0  0  0  0  0  0  0  0  0  0  0  0
   10.3874    8.2481   12.4779 C   0  0  0  0  0  0  0  0  0  0  0  0
   11.7495    8.3410   12.5584 C   0  0  0  0  0  0  0  0  0  0  0  0
   12.5506    7.6608   11.6840 C   0  0  0  0  0  0  0  0  0  0  0  0
   11.9940    6.8517   10.6812 C   0  0  0  0  0  0  0  0  0  0  0  0
   10.6103    6.7666   10.6110 C   0  0  0  0  0  0  0  0  0  0  0  0
    9.8130    7.4583   11.5050 C   0  0  0  0  0  0  0  0  0  0  0  0
    9.5321    9.4523   14.0010 H   0  0  0  0  0  0  0  0  0  0  0  0
    4.9578    7.7600   19.0129 N   0  0  0  0  0  0  0  0  0  0  0  0
    5.3761    6.8690   18.0346 C   0  0  0  0  0  0  0  0  0  0  0  0
    6.4619    6.9726   17.4427 O   0  0  0  0  0  0  0  0  0  0  0  0
    3.9606    7.5396   19.4056 H   0  0  0  0  0  0  0  0  0  0  0  0
    5.5662    8.9043   19.6017 C   0  0  0  0  0  0  0  0  0  0  0  0
    6.2280    8.4567   20.8683 C   0  0  0  0  0  0  0  0  0  0  0  0
    5.9542    7.3511   21.4215 O   0  0  0  0  0  0  0  0  0  0  0  0
    7.2009    9.3074   21.4907 N   0  0  0  0  0  0  0  0  0  0  0  0
    7.4631   10.1982   21.0413 H   0  0  0  0  0  0  0  0  0  0  0  0
    7.8049    8.8925   22.7647 C   0  0  0  0  0  0  0  0  0  0  0  0
    7.1300    9.6416   23.8060 C   0  0  0  0  0  0  0  0  0  0  0  0
    6.4404    9.0565   24.8568 O   0  0  0  0  0  0  0  0  0  0  0  0
    7.1564   10.9238   23.7647 O   0  0  0  0  0  0  0  0  0  0  0  0
    5.5931    9.5276   25.2371 H   0  0  0  0  0  0  0  0  0  0  0  0
    9.2826    9.0553   22.7727 C   0  0  0  0  0  0  0  0  0  0  0  0
    9.9600    7.7396   22.7199 C   0  0  0  0  0  0  0  0  0  0  0  0
   11.2495    7.6447   23.2404 C   0  0  0  0  0  0  0  0  0  0  0  0
   11.9495    6.4577   23.2449 C   0  0  0  0  0  0  0  0  0  0  0  0
   11.3616    5.3054   22.7143 C   0  0  0  0  0  0  0  0  0  0  0  0
   10.0997    5.4073   22.2090 C   0  0  0  0  0  0  0  0  0  0  0  0
    9.4129    6.5936   22.2103 C   0  0  0  0  0  0  0  0  0  0  0  0
    4.5873    9.9722   20.0607 C   0  0  0  0  0  0  0  0  0  0  0  0
    3.0160   10.7780   18.2937 C   0  0  0  0  0  0  0  0  0  0  0  0
    4.2938   11.0477   19.0650 C   0  0  0  0  0  0  0  0  0  0  0  0
    5.4547   11.0434   18.0651 C   0  0  0  0  0  0  0  0  0  0  0  0
    5.5012    4.5289   17.7060 C   0  0  0  0  0  0  0  0  0  0  0  0
    4.8888    3.2988   18.2352 C   0  0  0  0  0  0  0  0  0  0  0  0
    4.9711    2.9375   19.5865 C   0  0  0  0  0  0  0  0  0  0  0  0
    4.3255    1.7789   19.7790 N   0  0  0  0  0  0  0  0  0  0  0  0
    3.8135    1.3524   18.6102 C   0  0  0  0  0  0  0  0  0  0  0  0
    3.0721    0.2478   18.2677 C   0  0  0  0  0  0  0  0  0  0  0  0
    2.6765    0.0808   16.9662 C   0  0  0  0  0  0  0  0  0  0  0  0
    3.0269    1.0166   16.0320 C   0  0  0  0  0  0  0  0  0  0  0  0
    3.7702    2.1349   16.3492 C   0  0  0  0  0  0  0  0  0  0  0  0
    4.1633    2.3008   17.6397 C   0  0  0  0  0  0  0  0  0  0  0  0
    4.2174    1.2482   20.6924 H   0  0  0  0  0  0  0  0  0  0  0  0
 55 56  1  0  0  0
 56 57  1  0  0  0
 56 54  1  0  0  0
 54 37  1  0  0  0
 37 33  1  0  0  0
 33 34  1  0  0  0
 34 35  2  0  0  0
 34  1  1  0  0  0
  1 58  1  0  0  0
 58 59  1  0  0  0
 59 60  2  0  0  0
 60 61  1  0  0  0
 61 62  1  0  0  0
 62 63  2  0  0  0
 63 64  1  0  0  0
 64 65  2  0  0  0
 65 66  1  0  0  0
 66 67  2  0  0  0
  1  2  1  0  0  0
  2  3  1  0  0  0
  3  4  2  0  0  0
  3  6  1  0  0  0
  6  7  1  0  0  0
  7  8  1  0  0  0
  8  9  2  0  0  0
  8 11  1  0  0  0
 11 12  1  0  0  0
 12 13  1  0  0  0
 13 14  1  0  0  0
 14 15  1  0  0  0
 15 16  1  0  0  0
 16 17  2  0  0  0
 16 18  1  0  0  0
 18 19  1  0  0  0
 18 22  1  0  0  0
 22 23  1  0  0  0
 23 24  2  0  0  0
 24 25  1  0  0  0
 25 26  1  0  0  0
 26 27  2  0  0  0
 27 28  1  0  0  0
 28 29  2  0  0  0
 29 30  1  0  0  0
 30 31  2  0  0  0
 37 38  1  0  0  0
 38 39  2  0  0  0
 38 40  1  0  0  0
 40 42  1  0  0  0
 42 47  1  0  0  0
 47 48  1  0  0  0
 48 49  2  0  0  0
 49 50  1  0  0  0
 50 51  2  0  0  0
 51 52  1  0  0  0
 52 53  2  0  0  0
 42 43  1  0  0  0
 43 44  1  0  0  0
 43 45  2  0  0  0
 67 59  1  0  0  0
 15 11  1  0  0  0
 31 23  1  0  0  0
 53 48  1  0  0  0
 67 62  1  0  0  0
 31 26  1  0  0  0
 33 36  1  0  0  0
 61 68  1  0  0  0
  2  5  1  0  0  0
  7 10  1  0  0  0
 19 20  1  0  0  0
 19 21  1  0  0  0
 25 32  1  0  0  0
 40 41  1  0  0  0
 44 46  1  0  0  0
M  END
> <minimizedAffinity>
-10.36142

> <CNNscore>
0.1708437949

> <CNNaffinity>
7.0941858292

> <CNN_VS>
1.2119976282

> <CNNaffinity_variance>
0.9228828549

$$$$
[H]c1nc(N([H])[H])c2c(-c3sc4c(OC([H])([H])[H])c([H])c(C([H])([H])[H])c([H])c4c3[H])c(C([H])([H])OC([H])([H])C([H])([H])[H])c(C(=O)N3C([H])([H])C([H])([H])N(C([H])(C([H])([H])[H])C([H])([H])[H])C([H])([H])C3([H])[H])n2n1


 39 43  0  0  0  0  0  0  0  0999 V2000
    4.2042    4.1347   16.8398 C   0  0  0  0  0  0  0  0  0  0  0  0
    3.4323    3.4320   15.8910 C   0  0  0  0  0  0  0  0  0  0  0  0
    3.1803    2.2161   16.4164 C   0  0  0  0  0  0  0  0  0  0  0  0
    2.4235    1.1375   16.0073 C   0  0  0  0  0  0  0  0  0  0  0  0
    1.6330    1.0876   14.8356 N   0  0  0  0  0  0  0  0  0  0  0  0
    2.3204    0.0578   16.8312 N   0  0  0  0  0  0  0  0  0  0  0  0
    2.9195    0.0119   18.0168 C   0  0  0  0  0  0  0  0  0  0  0  0
    3.6291    1.0768   18.3681 N   0  0  0  0  0  0  0  0  0  0  0  0
    3.7882    2.1609   17.6438 N   0  0  0  0  0  0  0  0  0  0  0  0
    4.4295    3.3345   17.9342 C   0  0  0  0  0  0  0  0  0  0  0  0
    0.7715    1.6680   14.7059 H   0  0  0  0  0  0  0  0  0  0  0  0
    1.8922    0.4160   14.0672 H   0  0  0  0  0  0  0  0  0  0  0  0
    3.1295    3.9616   14.5474 C   0  0  0  0  0  0  0  0  0  0  0  0
    1.9774    4.4470   14.0049 C   0  0  0  0  0  0  0  0  0  0  0  0
    2.0134    4.9423   12.7500 C   0  0  0  0  0  0  0  0  0  0  0  0
    0.9393    5.5475   12.0611 C   0  0  0  0  0  0  0  0  0  0  0  0
    1.1455    6.0638   10.8135 C   0  0  0  0  0  0  0  0  0  0  0  0
    0.0100    6.7263   10.0979 C   0  0  0  0  0  0  0  0  0  0  0  0
    2.3617    6.0432   10.1383 C   0  0  0  0  0  0  0  0  0  0  0  0
    3.3823    5.4576   10.8131 C   0  0  0  0  0  0  0  0  0  0  0  0
    3.1950    4.9227   12.0990 C   0  0  0  0  0  0  0  0  0  0  0  0
    4.2283    4.2223   13.2345 S   0  0  0  0  0  0  0  0  0  0  0  0
    4.6634    5.3300   10.2991 O   0  0  0  0  0  0  0  0  0  0  0  0
    5.4484    6.5066   10.0666 C   0  0  0  0  0  0  0  0  0  0  0  0
    4.9536    3.6519   19.2488 C   0  0  0  0  0  0  0  0  0  0  0  0
    5.7055    2.7990   19.8582 O   0  0  0  0  0  0  0  0  0  0  0  0
    4.7027    4.8373   19.9645 N   0  0  0  0  0  0  0  0  0  0  0  0
    5.4309    5.0333   21.2473 C   0  0  0  0  0  0  0  0  0  0  0  0
    5.9380    6.4346   21.2789 C   0  0  0  0  0  0  0  0  0  0  0  0
    4.8283    7.3318   21.1745 N   0  0  0  0  0  0  0  0  0  0  0  0
    4.1748    7.2378   19.9050 C   0  0  0  0  0  0  0  0  0  0  0  0
    3.6938    5.8180   19.7244 C   0  0  0  0  0  0  0  0  0  0  0  0
    5.2204    8.6525   21.5397 C   0  0  0  0  0  0  0  0  0  0  0  0
    4.8907    9.6745   20.4688 C   0  0  0  0  0  0  0  0  0  0  0  0
    6.6816    8.7522   21.9132 C   0  0  0  0  0  0  0  0  0  0  0  0
    4.6796    5.5236   16.7036 C   0  0  0  0  0  0  0  0  0  0  0  0
    3.7017    6.4677   16.4765 O   0  0  0  0  0  0  0  0  0  0  0  0
    3.5034    7.8754   14.5471 C   0  0  0  0  0  0  0  0  0  0  0  0
    4.2860    7.5375   15.7840 C   0  0  0  0  0  0  0  0  0  0  0  0
 38 39  1  0  0  0
 39 37  1  0  0  0
 37 36  1  0  0  0
 36  1  1  0  0  0
  1  2  1  0  0  0
  2 13  1  0  0  0
 13 14  2  0  0  0
 14 15  1  0  0  0
 15 16  2  0  0  0
 16 17  1  0  0  0
 17 18  1  0  0  0
 17 19  2  0  0  0
 19 20  1  0  0  0
 20 23  1  0  0  0
 23 24  1  0  0  0
 20 21  2  0  0  0
 21 22  1  0  0  0
  2  3  2  0  0  0
  3  4  1  0  0  0
  4  5  1  0  0  0
  4  6  2  0  0  0
  6  7  1  0  0  0
  7  8  2  0  0  0
  8  9  1  0  0  0
  9 10  1  0  0  0
 10 25  1  0  0  0
 25 26  2  0  0  0
 25 27  1  0  0  0
 27 28  1  0  0  0
 28 29  1  0  0  0
 29 30  1  0  0  0
 30 31  1  0  0  0
 31 32  1  0  0  0
 30 33  1  0  0  0
 33 34  1  0  0  0
 33 35  1  0  0  0
 10  1  2  0  0  0
 32 27  1  0  0  0
 22 13  1  0  0  0
  9  3  1  0  0  0
 21 15  1  0  0  0
  5 11  1  0  0  0
  5 12  1  0  0  0
M  END
> <minimizedAffinity>
-7.54365

> <CNNscore>
0.4949778020

> <CNNaffinity>
7.0746321678

> <CNN_VS>
3.5017859936

> <CNNaffinity_variance>
0.2945928574

$$$$
[H]c1nc(N([H])[H])c2c(-c3sc4c(OC([H])([H])[H])c([H])c(C([H])([H])[H])c([H])c4c3[H])c(C([H])([H])OC([H])([H])C([H])([H])[H])c(C(=O)N3C([H])([H])C([H])([H])N(C([H])(C([H])([H])[H])C([H])([H])[H])C([H])([H])C3([H])[H])n2n1


 39 43  0  0  0  0  0  0  0  0999 V2000
    3.5828    5.2000   15.1765 C   0  0  0  0  0  0  0  0  0  0  0  0
    3.3271    3.9461   15.7699 C   0  0  0  0  0  0  0  0  0  0  0  0
    2.5628    3.2524   14.9023 C   0  0  0  0  0  0  0  0  0  0  0  0
    2.0697    1.9640   14.8830 C   0  0  0  0  0  0  0  0  0  0  0  0
    2.3207    0.9752   15.8626 N   0  0  0  0  0  0  0  0  0  0  0  0
    1.3714    1.5447   13.7914 N   0  0  0  0  0  0  0  0  0  0  0  0
    1.1549    2.3332   12.7435 C   0  0  0  0  0  0  0  0  0  0  0  0
    1.6561    3.5602   12.8066 N   0  0  0  0  0  0  0  0  0  0  0  0
    2.3396    4.0547   13.8134 N   0  0  0  0  0  0  0  0  0  0  0  0
    2.9593    5.2668   13.9536 C   0  0  0  0  0  0  0  0  0  0  0  0
    3.2655    0.5499   16.0121 H   0  0  0  0  0  0  0  0  0  0  0  0
    1.5234    0.6177   16.4501 H   0  0  0  0  0  0  0  0  0  0  0  0
    3.7422    3.6056   17.1444 C   0  0  0  0  0  0  0  0  0  0  0  0
    4.4796    2.5705   17.6364 C   0  0  0  0  0  0  0  0  0  0  0  0
    4.7709    2.5545   18.9541 C   0  0  0  0  0  0  0  0  0  0  0  0
    5.5783    1.6050   19.6183 C   0  0  0  0  0  0  0  0  0  0  0  0
    5.8384    1.7572   20.9505 C   0  0  0  0  0  0  0  0  0  0  0  0
    6.7151    0.7619   21.6441 C   0  0  0  0  0  0  0  0  0  0  0  0
    5.3598    2.7998   21.7375 C   0  0  0  0  0  0  0  0  0  0  0  0
    4.5853    3.7019   21.0847 C   0  0  0  0  0  0  0  0  0  0  0  0
    4.3068    3.5683   19.7139 C   0  0  0  0  0  0  0  0  0  0  0  0
    3.4807    4.5200   18.5917 S   0  0  0  0  0  0  0  0  0  0  0  0
    4.0071    4.8000   21.7024 O   0  0  0  0  0  0  0  0  0  0  0  0
    3.5008    4.6705   23.0372 C   0  0  0  0  0  0  0  0  0  0  0  0
    3.0969    6.2213   12.8702 C   0  0  0  0  0  0  0  0  0  0  0  0
    4.2513    6.7405   12.6210 O   0  0  0  0  0  0  0  0  0  0  0  0
    2.0541    6.6701   12.0388 N   0  0  0  0  0  0  0  0  0  0  0  0
    2.4155    7.5585   10.9012 C   0  0  0  0  0  0  0  0  0  0  0  0
    1.6803    7.0833    9.6947 C   0  0  0  0  0  0  0  0  0  0  0  0
    0.2749    7.1313    9.9593 N   0  0  0  0  0  0  0  0  0  0  0  0
   -0.1151    6.2061   10.9787 C   0  0  0  0  0  0  0  0  0  0  0  0
    0.6467    6.5411   12.2385 C   0  0  0  0  0  0  0  0  0  0  0  0
   -0.4638    7.0179    8.7457 C   0  0  0  0  0  0  0  0  0  0  0  0
   -1.2230    5.7088    8.6468 C   0  0  0  0  0  0  0  0  0  0  0  0
    0.3912    7.2108    7.5142 C   0  0  0  0  0  0  0  0  0  0  0  0
    4.4124    6.2726   15.7552 C   0  0  0  0  0  0  0  0  0  0  0  0
    3.7325    7.4065   16.1440 O   0  0  0  0  0  0  0  0  0  0  0  0
    5.8183    7.3713   17.3237 C   0  0  0  0  0  0  0  0  0  0  0  0
    4.4886    8.0448   17.1372 C   0  0  0  0  0  0  0  0  0  0  0  0
 38 39  1  0  0  0
 39 37  1  0  0  0
 37 36  1  0  0  0
 36  1  1  0  0  0
  1  2  1  0  0  0
  2 13  1  0  0  0
 13 14  2  0  0  0
 14 15  1  0  0  0
 15 16  2  0  0  0
 16 17  1  0  0  0
 17 18  1  0  0  0
 17 19  2  0  0  0
 19 20  1  0  0  0
 20 23  1  0  0  0
 23 24  1  0  0  0
 20 21  2  0  0  0
 21 22  1  0  0  0
  2  3  2  0  0  0
  3  4  1  0  0  0
  4  5  1  0  0  0
  4  6  2  0  0  0
  6  7  1  0  0  0
  7  8  2  0  0  0
  8  9  1  0  0  0
  9 10  1  0  0  0
 10 25  1  0  0  0
 25 26  2  0  0  0
 25 27  1  0  0  0
 27 28  1  0  0  0
 28 29  1  0  0  0
 29 30  1  0  0  0
 30 31  1  0  0  0
 31 32  1  0  0  0
 30 33  1  0  0  0
 33 34  1  0  0  0
 33 35  1  0  0  0
 10  1  2  0  0  0
 32 27  1  0  0  0
 22 13  1  0  0  0
  9  3  1  0  0  0
 21 15  1  0  0  0
  5 11  1  0  0  0
  5 12  1  0  0  0
M  END
> <minimizedAffinity>
-7.52268

> <CNNscore>
0.1937751174

> <CNNaffinity>
6.5147123337

> <CNN_VS>
1.2623891830

> <CNNaffinity_variance>
0.4796156883

$$$$
[H]c1nc(N([H])[H])c2c(-c3sc4c(OC([H])([H])[H])c([H])c(C([H])([H])[H])c([H])c4c3[H])c(C([H])([H])OC([H])([H])C([H])([H])[H])c(C(=O)N3C([H])([H])C([H])([H])N(C([H])(C([H])([H])[H])C([H])([H])[H])C([H])([H])C3([H])[H])n2n1


 39 43  0  0  0  0  0  0  0  0999 V2000
    4.8970    5.2874   19.1919 C   0  0  0  0  0  0  0  0  0  0  0  0
    4.4184    4.1228   18.5558 C   0  0  0  0  0  0  0  0  0  0  0  0
    4.7042    3.0875   19.3708 C   0  0  0  0  0  0  0  0  0  0  0  0
    4.4204    1.7378   19.3352 C   0  0  0  0  0  0  0  0  0  0  0  0
    3.6509    1.0876   18.3424 N   0  0  0  0  0  0  0  0  0  0  0  0
    4.8046    0.9583   20.3840 N   0  0  0  0  0  0  0  0  0  0  0  0
    5.4380    1.4558   21.4413 C   0  0  0  0  0  0  0  0  0  0  0  0
    5.6809    2.7604   21.4319 N   0  0  0  0  0  0  0  0  0  0  0  0
    5.3517    3.5911   20.4692 N   0  0  0  0  0  0  0  0  0  0  0  0
    5.4850    4.9507   20.3876 C   0  0  0  0  0  0  0  0  0  0  0  0
    2.6234    1.2482   18.2237 H   0  0  0  0  0  0  0  0  0  0  0  0
    4.1134    0.3827   17.7115 H   0  0  0  0  0  0  0  0  0  0  0  0
    3.8536    4.1239   17.1925 C   0  0  0  0  0  0  0  0  0  0  0  0
    4.0993    3.3319   16.1110 C   0  0  0  0  0  0  0  0  0  0  0  0
    3.3653    3.5188   14.9940 C   0  0  0  0  0  0  0  0  0  0  0  0
    3.4338    2.7483   13.8124 C   0  0  0  0  0  0  0  0  0  0  0  0
    2.5771    3.0169   12.7832 C   0  0  0  0  0  0  0  0  0  0  0  0
    2.6371    2.1813   11.5428 C   0  0  0  0  0  0  0  0  0  0  0  0
    1.6114    4.0183   12.7966 C   0  0  0  0  0  0  0  0  0  0  0  0
    1.5596    4.7495   13.9379 C   0  0  0  0  0  0  0  0  0  0  0  0
    2.4283    4.4894   15.0114 C   0  0  0  0  0  0  0  0  0  0  0  0
    2.5817    5.1202   16.5690 S   0  0  0  0  0  0  0  0  0  0  0  0
    0.6740    5.7980   14.1331 O   0  0  0  0  0  0  0  0  0  0  0  0
    1.0071    7.1015   13.6382 C   0  0  0  0  0  0  0  0  0  0  0  0
    5.9117    5.7776   21.5002 C   0  0  0  0  0  0  0  0  0  0  0  0
    5.1628    5.8749   22.5461 O   0  0  0  0  0  0  0  0  0  0  0  0
    7.1006    6.5286   21.5517 N   0  0  0  0  0  0  0  0  0  0  0  0
    7.4243    7.2171   22.8305 C   0  0  0  0  0  0  0  0  0  0  0  0
    8.8669    6.9856   23.1253 C   0  0  0  0  0  0  0  0  0  0  0  0
    9.6501    7.5070   22.0472 N   0  0  0  0  0  0  0  0  0  0  0  0
    9.4354    6.7905   20.8274 C   0  0  0  0  0  0  0  0  0  0  0  0
    7.9699    6.8823   20.4762 C   0  0  0  0  0  0  0  0  0  0  0  0
   11.0174    7.6174   22.4338 C   0  0  0  0  0  0  0  0  0  0  0  0
   11.6132    6.2869   22.8517 C   0  0  0  0  0  0  0  0  0  0  0  0
   11.2427    8.6452   23.5190 C   0  0  0  0  0  0  0  0  0  0  0  0
    4.7684    6.6632   18.6781 C   0  0  0  0  0  0  0  0  0  0  0  0
    3.6805    7.3718   19.1403 O   0  0  0  0  0  0  0  0  0  0  0  0
    4.6597    9.1381   20.4304 C   0  0  0  0  0  0  0  0  0  0  0  0
    4.0168    8.7328   19.1347 C   0  0  0  0  0  0  0  0  0  0  0  0
 38 39  1  0  0  0
 39 37  1  0  0  0
 37 36  1  0  0  0
 36  1  1  0  0  0
  1  2  1  0  0  0
  2 13  1  0  0  0
 13 14  2  0  0  0
 14 15  1  0  0  0
 15 16  2  0  0  0
 16 17  1  0  0  0
 17 18  1  0  0  0
 17 19  2  0  0  0
 19 20  1  0  0  0
 20 23  1  0  0  0
 23 24  1  0  0  0
 20 21  2  0  0  0
 21 22  1  0  0  0
  2  3  2  0  0  0
  3  4  1  0  0  0
  4  5  1  0  0  0
  4  6  2  0  0  0
  6  7  1  0  0  0
  7  8  2  0  0  0
  8  9  1  0  0  0
  9 10  1  0  0  0
 10 25  1  0  0  0
 25 26  2  0  0  0
 25 27  1  0  0  0
 27 28  1  0  0  0
 28 29  1  0  0  0
 29 30  1  0  0  0
 30 31  1  0  0  0
 31 32  1  0  0  0
 30 33  1  0  0  0
 33 34  1  0  0  0
 33 35  1  0  0  0
 10  1  2  0  0  0
 32 27  1  0  0  0
 22 13  1  0  0  0
  9  3  1  0  0  0
 21 15  1  0  0  0
  5 11  1  0  0  0
  5 12  1  0  0  0
M  END
> <minimizedAffinity>
-8.91494

> <CNNscore>
0.1508119106

> <CNNaffinity>
6.5598387718

> <CNN_VS>
0.9893018007

> <CNNaffinity_variance>
0.5100949407

$$$$
[H]c1nc(N([H])[H])c2c(-c3sc4c(OC([H])([H])[H])c([H])c(C([H])([H])[H])c([H])c4c3[H])c(C([H])([H])OC([H])([H])C([H])([H])[H])c(C(=O)N3C([H])([H])C([H])([H])N(C([H])(C([H])([H])[H])C([H])([H])[H])C([H])([H])C3([H])[H])n2n1


 39 43  0  0  0  0  0  0  0  0999 V2000
    4.5804    5.6082   18.6649 C   0  0  0  0  0  0  0  0  0  0  0  0
    4.0637    4.4966   17.9670 C   0  0  0  0  0  0  0  0  0  0  0  0
    4.3892    3.4009   18.6822 C   0  0  0  0  0  0  0  0  0  0  0  0
    4.0988    2.0580   18.5570 C   0  0  0  0  0  0  0  0  0  0  0  0
    3.2743    1.4868   17.5598 N   0  0  0  0  0  0  0  0  0  0  0  0
    4.5363    1.1994   19.5195 N   0  0  0  0  0  0  0  0  0  0  0  0
    5.2278    1.6132   20.5765 C   0  0  0  0  0  0  0  0  0  0  0  0
    5.4747    2.9146   20.6555 N   0  0  0  0  0  0  0  0  0  0  0  0
    5.0971    3.8177   19.7796 N   0  0  0  0  0  0  0  0  0  0  0  0
    5.2310    5.1796   19.7970 C   0  0  0  0  0  0  0  0  0  0  0  0
    2.2424    1.6558   17.5099 H   0  0  0  0  0  0  0  0  0  0  0  0
    3.6993    0.8335   16.8517 H   0  0  0  0  0  0  0  0  0  0  0  0
    3.4260    4.6036   16.6405 C   0  0  0  0  0  0  0  0  0  0  0  0
    2.3096    5.2653   16.2243 C   0  0  0  0  0  0  0  0  0  0  0  0
    2.0004    5.2468   14.9108 C   0  0  0  0  0  0  0  0  0  0  0  0
    0.9292    5.9323   14.2964 C   0  0  0  0  0  0  0  0  0  0  0  0
    0.7805    5.8708   12.9401 C   0  0  0  0  0  0  0  0  0  0  0  0
   -0.3416    6.6193   12.2913 C   0  0  0  0  0  0  0  0  0  0  0  0
    1.6191    5.1667   12.0819 C   0  0  0  0  0  0  0  0  0  0  0  0
    2.6418    4.5133   12.6879 C   0  0  0  0  0  0  0  0  0  0  0  0
    2.8170    4.5647   14.0812 C   0  0  0  0  0  0  0  0  0  0  0  0
    3.9927    3.9662   15.1333 S   0  0  0  0  0  0  0  0  0  0  0  0
    3.5720    3.7481   12.0016 O   0  0  0  0  0  0  0  0  0  0  0  0
    4.2503    4.3120   10.8717 C   0  0  0  0  0  0  0  0  0  0  0  0
    5.7204    5.9174   20.9459 C   0  0  0  0  0  0  0  0  0  0  0  0
    5.0090    5.9685   22.0209 O   0  0  0  0  0  0  0  0  0  0  0  0
    6.9346    6.6262   21.0054 N   0  0  0  0  0  0  0  0  0  0  0  0
    7.3218    7.2182   22.3145 C   0  0  0  0  0  0  0  0  0  0  0  0
    8.7647    6.9231   22.5442 C   0  0  0  0  0  0  0  0  0  0  0  0
    9.5297    7.4900   21.4762 N   0  0  0  0  0  0  0  0  0  0  0  0
    9.2524    6.8628   20.2204 C   0  0  0  0  0  0  0  0  0  0  0  0
    7.7802    7.0231   19.9262 C   0  0  0  0  0  0  0  0  0  0  0  0
   10.9117    7.5322   21.8221 C   0  0  0  0  0  0  0  0  0  0  0  0
   11.3855    6.2518   22.4826 C   0  0  0  0  0  0  0  0  0  0  0  0
   11.2675    8.7193   22.6876 C   0  0  0  0  0  0  0  0  0  0  0  0
    4.4294    7.0198   18.2674 C   0  0  0  0  0  0  0  0  0  0  0  0
    3.5969    7.7764   19.0636 O   0  0  0  0  0  0  0  0  0  0  0  0
    4.6545    9.4157   20.4556 C   0  0  0  0  0  0  0  0  0  0  0  0
    4.1026    9.0835   19.0986 C   0  0  0  0  0  0  0  0  0  0  0  0
 38 39  1  0  0  0
 39 37  1  0  0  0
 37 36  1  0  0  0
 36  1  1  0  0  0
  1  2  1  0  0  0
  2 13  1  0  0  0
 13 14  2  0  0  0
 14 15  1  0  0  0
 15 16  2  0  0  0
 16 17  1  0  0  0
 17 18  1  0  0  0
 17 19  2  0  0  0
 19 20  1  0  0  0
 20 23  1  0  0  0
 23 24  1  0  0  0
 20 21  2  0  0  0
 21 22  1  0  0  0
  2  3  2  0  0  0
  3  4  1  0  0  0
  4  5  1  0  0  0
  4  6  2  0  0  0
  6  7  1  0  0  0
  7  8  2  0  0  0
  8  9  1  0  0  0
  9 10  1  0  0  0
 10 25  1  0  0  0
 25 26  2  0  0  0
 25 27  1  0  0  0
 27 28  1  0  0  0
 28 29  1  0  0  0
 29 30  1  0  0  0
 30 31  1  0  0  0
 31 32  1  0  0  0
 30 33  1  0  0  0
 33 34  1  0  0  0
 33 35  1  0  0  0
 10  1  2  0  0  0
 32 27  1  0  0  0
 22 13  1  0  0  0
  9  3  1  0  0  0
 21 15  1  0  0  0
  5 11  1  0  0  0
  5 12  1  0  0  0
M  END
> <minimizedAffinity>
-8.22517

> <CNNscore>
0.1329023689

> <CNNaffinity>
6.3572793007

> <CNN_VS>
0.8448975086

> <CNNaffinity_variance>
0.5519441962

$$$$
[H]c1nc(N([H])[H])c2c(-c3sc4c(OC([H])([H])[H])c([H])c(C([H])([H])[H])c([H])c4c3[H])c(C([H])([H])OC([H])([H])C([H])([H])[H])c(C(=O)N3C([H])([H])C([H])([H])N(C([H])(C([H])([H])[H])C([H])([H])[H])C([H])([H])C3([H])[H])n2n1


 39 43  0  0  0  0  0  0  0  0999 V2000
    3.6548    5.7152   16.1873 C   0  0  0  0  0  0  0  0  0  0  0  0
    3.4041    4.4338   15.6534 C   0  0  0  0  0  0  0  0  0  0  0  0
    3.7521    3.5409   16.6018 C   0  0  0  0  0  0  0  0  0  0  0  0
    3.6624    2.1677   16.6992 C   0  0  0  0  0  0  0  0  0  0  0  0
    3.0875    1.3127   15.7302 N   0  0  0  0  0  0  0  0  0  0  0  0
    4.0500    1.5650   17.8575 N   0  0  0  0  0  0  0  0  0  0  0  0
    4.5058    2.2562   18.8973 C   0  0  0  0  0  0  0  0  0  0  0  0
    4.5657    3.5744   18.7573 N   0  0  0  0  0  0  0  0  0  0  0  0
    4.2172    4.2444   17.6826 N   0  0  0  0  0  0  0  0  0  0  0  0
    4.1683    5.5932   17.4562 C   0  0  0  0  0  0  0  0  0  0  0  0
    2.0634    1.3067   15.5132 H   0  0  0  0  0  0  0  0  0  0  0  0
    3.7005    0.6232   15.2226 H   0  0  0  0  0  0  0  0  0  0  0  0
    2.9759    4.2119   14.2588 C   0  0  0  0  0  0  0  0  0  0  0  0
    1.7446    4.0038   13.7129 C   0  0  0  0  0  0  0  0  0  0  0  0
    1.6420    3.9046   12.3709 C   0  0  0  0  0  0  0  0  0  0  0  0
    0.4454    3.7620   11.6342 C   0  0  0  0  0  0  0  0  0  0  0  0
    0.4939    3.7408   10.2694 C   0  0  0  0  0  0  0  0  0  0  0  0
   -0.7795    3.6146    9.4929 C   0  0  0  0  0  0  0  0  0  0  0  0
    1.6583    3.8491    9.5159 C   0  0  0  0  0  0  0  0  0  0  0  0
    2.7983    3.9842   10.2385 C   0  0  0  0  0  0  0  0  0  0  0  0
    2.7730    4.0121   11.6432 C   0  0  0  0  0  0  0  0  0  0  0  0
    3.9509    4.2489   12.8280 S   0  0  0  0  0  0  0  0  0  0  0  0
    4.0564    4.0921    9.6663 O   0  0  0  0  0  0  0  0  0  0  0  0
    4.4815    5.3536    9.1348 C   0  0  0  0  0  0  0  0  0  0  0  0
    4.3696    6.5836   18.4967 C   0  0  0  0  0  0  0  0  0  0  0  0
    3.3562    7.0222   19.1638 O   0  0  0  0  0  0  0  0  0  0  0  0
    5.6059    7.1505   18.8573 N   0  0  0  0  0  0  0  0  0  0  0  0
    5.6280    8.0601   20.0347 C   0  0  0  0  0  0  0  0  0  0  0  0
    6.8077    7.7004   20.8718 C   0  0  0  0  0  0  0  0  0  0  0  0
    7.9951    7.8455   20.0867 N   0  0  0  0  0  0  0  0  0  0  0  0
    8.0478    6.9071   19.0079 C   0  0  0  0  0  0  0  0  0  0  0  0
    6.8359    7.1226   18.1335 C   0  0  0  0  0  0  0  0  0  0  0  0
    9.1482    7.8468   20.9244 C   0  0  0  0  0  0  0  0  0  0  0  0
   10.1021    6.7124   20.6030 C   0  0  0  0  0  0  0  0  0  0  0  0
    8.8079    7.8308   22.3970 C   0  0  0  0  0  0  0  0  0  0  0  0
    3.3863    6.9971   15.5103 C   0  0  0  0  0  0  0  0  0  0  0  0
    4.3694    7.4321   14.6481 O   0  0  0  0  0  0  0  0  0  0  0  0
    2.3375    7.8139   13.4362 C   0  0  0  0  0  0  0  0  0  0  0  0
    3.7626    8.2288   13.6671 C   0  0  0  0  0  0  0  0  0  0  0  0
 38 39  1  0  0  0
 39 37  1  0  0  0
 37 36  1  0  0  0
 36  1  1  0  0  0
  1  2  1  0  0  0
  2 13  1  0  0  0
 13 14  2  0  0  0
 14 15  1  0  0  0
 15 16  2  0  0  0
 16 17  1  0  0  0
 17 18  1  0  0  0
 17 19  2  0  0  0
 19 20  1  0  0  0
 20 23  1  0  0  0
 23 24  1  0  0  0
 20 21  2  0  0  0
 21 22  1  0  0  0
  2  3  2  0  0  0
  3  4  1  0  0  0
  4  5  1  0  0  0
  4  6  2  0  0  0
  6  7  1  0  0  0
  7  8  2  0  0  0
  8  9  1  0  0  0
  9 10  1  0  0  0
 10 25  1  0  0  0
 25 26  2  0  0  0
 25 27  1  0  0  0
 27 28  1  0  0  0
 28 29  1  0  0  0
 29 30  1  0  0  0
 30 31  1  0  0  0
 31 32  1  0  0  0
 30 33  1  0  0  0
 33 34  1  0  0  0
 33 35  1  0  0  0
 10  1  2  0  0  0
 32 27  1  0  0  0
 22 13  1  0  0  0
  9  3  1  0  0  0
 21 15  1  0  0  0
  5 11  1  0  0  0
  5 12  1  0  0  0
M  END
> <minimizedAffinity>
-6.69309

> <CNNscore>
0.1226768941

> <CNNaffinity>
6.2727293968

> <CNN_VS>
0.7695189714

> <CNNaffinity_variance>
0.3493000567

$$$$
[H]c1nc(N([H])[H])c2c(-c3sc4c(OC([H])([H])[H])c([H])c(C([H])([H])[H])c([H])c4c3[H])c(C([H])([H])OC([H])([H])C([H])([H])[H])c(C(=O)N3C([H])([H])C([H])([H])N(C([H])(C([H])([H])[H])C([H])([H])[H])C([H])([H])C3([H])[H])n2n1


 39 43  0  0  0  0  0  0  0  0999 V2000
    3.2771    4.3373   10.1303 C   0  0  0  0  0  0  0  0  0  0  0  0
    2.3495    4.3920   11.1915 C   0  0  0  0  0  0  0  0  0  0  0  0
    1.2904    5.0989   10.7481 C   0  0  0  0  0  0  0  0  0  0  0  0
    0.0602    5.4147   11.2868 C   0  0  0  0  0  0  0  0  0  0  0  0
   -0.4186    4.9840   12.5460 N   0  0  0  0  0  0  0  0  0  0  0  0
   -0.8329    6.1044   10.5240 N   0  0  0  0  0  0  0  0  0  0  0  0
   -0.5603    6.4775    9.2777 C   0  0  0  0  0  0  0  0  0  0  0  0
    0.6327    6.1432    8.8024 N   0  0  0  0  0  0  0  0  0  0  0  0
    1.5583    5.4825    9.4596 N   0  0  0  0  0  0  0  0  0  0  0  0
    2.7810    5.0250    9.0488 C   0  0  0  0  0  0  0  0  0  0  0  0
   -0.6478    3.9843   12.7555 H   0  0  0  0  0  0  0  0  0  0  0  0
   -0.5891    5.6955   13.3033 H   0  0  0  0  0  0  0  0  0  0  0  0
    2.6364    3.8662   12.5401 C   0  0  0  0  0  0  0  0  0  0  0  0
    2.2509    2.7176   13.1640 C   0  0  0  0  0  0  0  0  0  0  0  0
    2.7359    2.4584   14.3965 C   0  0  0  0  0  0  0  0  0  0  0  0
    2.5023    1.2909   15.1562 C   0  0  0  0  0  0  0  0  0  0  0  0
    3.1176    1.1412   16.3664 C   0  0  0  0  0  0  0  0  0  0  0  0
    2.8863   -0.1090   17.1562 C   0  0  0  0  0  0  0  0  0  0  0  0
    3.9819    2.0705   16.9364 C   0  0  0  0  0  0  0  0  0  0  0  0
    4.1945    3.1861   16.1947 C   0  0  0  0  0  0  0  0  0  0  0  0
    3.5754    3.3607   14.9454 C   0  0  0  0  0  0  0  0  0  0  0  0
    3.6766    4.5446   13.7471 S   0  0  0  0  0  0  0  0  0  0  0  0
    5.0120    4.2290   16.6018 O   0  0  0  0  0  0  0  0  0  0  0  0
    4.5067    5.1980   17.5293 C   0  0  0  0  0  0  0  0  0  0  0  0
    3.2267    5.0717    7.6693 C   0  0  0  0  0  0  0  0  0  0  0  0
    2.7078    4.2675    6.8042 O   0  0  0  0  0  0  0  0  0  0  0  0
    4.2199    5.9285    7.1597 N   0  0  0  0  0  0  0  0  0  0  0  0
    4.4521    5.9146    5.6900 C   0  0  0  0  0  0  0  0  0  0  0  0
    4.5635    7.3276    5.2285 C   0  0  0  0  0  0  0  0  0  0  0  0
    5.6501    7.9556    5.9156 N   0  0  0  0  0  0  0  0  0  0  0  0
    5.4036    8.0774    7.3198 C   0  0  0  0  0  0  0  0  0  0  0  0
    5.1830    6.6942    7.8833 C   0  0  0  0  0  0  0  0  0  0  0  0
    6.0073    9.1757    5.2713 C   0  0  0  0  0  0  0  0  0  0  0  0
    7.3349    9.0827    4.5440 C   0  0  0  0  0  0  0  0  0  0  0  0
    6.0183   10.3586    6.2121 C   0  0  0  0  0  0  0  0  0  0  0  0
    4.5712    3.6313   10.1541 C   0  0  0  0  0  0  0  0  0  0  0  0
    4.7174    2.6254    9.2234 O   0  0  0  0  0  0  0  0  0  0  0  0
    3.0545    1.0243    8.5796 C   0  0  0  0  0  0  0  0  0  0  0  0
    3.9725    1.5209    9.6599 C   0  0  0  0  0  0  0  0  0  0  0  0
 38 39  1  0  0  0
 39 37  1  0  0  0
 37 36  1  0  0  0
 36  1  1  0  0  0
  1  2  1  0  0  0
  2 13  1  0  0  0
 13 14  2  0  0  0
 14 15  1  0  0  0
 15 16  2  0  0  0
 16 17  1  0  0  0
 17 18  1  0  0  0
 17 19  2  0  0  0
 19 20  1  0  0  0
 20 23  1  0  0  0
 23 24  1  0  0  0
 20 21  2  0  0  0
 21 22  1  0  0  0
  2  3  2  0  0  0
  3  4  1  0  0  0
  4  5  1  0  0  0
  4  6  2  0  0  0
  6  7  1  0  0  0
  7  8  2  0  0  0
  8  9  1  0  0  0
  9 10  1  0  0  0
 10 25  1  0  0  0
 25 26  2  0  0  0
 25 27  1  0  0  0
 27 28  1  0  0  0
 28 29  1  0  0  0
 29 30  1  0  0  0
 30 31  1  0  0  0
 31 32  1  0  0  0
 30 33  1  0  0  0
 33 34  1  0  0  0
 33 35  1  0  0  0
 10  1  2  0  0  0
 32 27  1  0  0  0
 22 13  1  0  0  0
  9  3  1  0  0  0
 21 15  1  0  0  0
  5 11  1  0  0  0
  5 12  1  0  0  0
M  END
> <minimizedAffinity>
-6.80697

> <CNNscore>
0.1226723865

> <CNNaffinity>
5.9604640007

> <CNN_VS>
0.7311843634

> <CNNaffinity_variance>
0.1160241589

$$$$
[H]c1nc(N([H])[H])c2c(-c3sc4c(OC([H])([H])[H])c([H])c(C([H])([H])[H])c([H])c4c3[H])c(C([H])([H])OC([H])([H])C([H])([H])[H])c(C(=O)N3C([H])([H])C([H])([H])N(C([H])(C([H])([H])[H])C([H])([H])[H])C([H])([H])C3([H])[H])n2n1


 39 43  0  0  0  0  0  0  0  0999 V2000
    4.4568    5.6053   18.5111 C   0  0  0  0  0  0  0  0  0  0  0  0
    4.0885    4.4689   17.7609 C   0  0  0  0  0  0  0  0  0  0  0  0
    4.3544    3.3922   18.5277 C   0  0  0  0  0  0  0  0  0  0  0  0
    4.1389    2.0376   18.3791 C   0  0  0  0  0  0  0  0  0  0  0  0
    3.4863    1.4265   17.2831 N   0  0  0  0  0  0  0  0  0  0  0  0
    4.4712    1.2038   19.4034 N   0  0  0  0  0  0  0  0  0  0  0  0
    4.9903    1.6526   20.5419 C   0  0  0  0  0  0  0  0  0  0  0  0
    5.1709    2.9636   20.6392 N   0  0  0  0  0  0  0  0  0  0  0  0
    4.8838    3.8448   19.7084 N   0  0  0  0  0  0  0  0  0  0  0  0
    4.9588    5.2111   19.7282 C   0  0  0  0  0  0  0  0  0  0  0  0
    2.4657    1.5520   17.0871 H   0  0  0  0  0  0  0  0  0  0  0  0
    4.0325    0.7872   16.6493 H   0  0  0  0  0  0  0  0  0  0  0  0
    3.6395    4.5412   16.3571 C   0  0  0  0  0  0  0  0  0  0  0  0
    4.2684    4.2292   15.1890 C   0  0  0  0  0  0  0  0  0  0  0  0
    3.5738    4.3262   14.0360 C   0  0  0  0  0  0  0  0  0  0  0  0
    4.0401    3.9767   12.7495 C   0  0  0  0  0  0  0  0  0  0  0  0
    3.1957    4.0679   11.6799 C   0  0  0  0  0  0  0  0  0  0  0  0
    3.6872    3.6726   10.3225 C   0  0  0  0  0  0  0  0  0  0  0  0
    1.8722    4.4911   11.7488 C   0  0  0  0  0  0  0  0  0  0  0  0
    1.4406    4.8240   12.9909 C   0  0  0  0  0  0  0  0  0  0  0  0
    2.2900    4.7349   14.1068 C   0  0  0  0  0  0  0  0  0  0  0  0
    2.0716    4.9744   15.7629 S   0  0  0  0  0  0  0  0  0  0  0  0
    0.1589    5.2803   13.2568 O   0  0  0  0  0  0  0  0  0  0  0  0
   -0.9323    4.8240   12.4470 C   0  0  0  0  0  0  0  0  0  0  0  0
    5.2519    5.9757   20.9254 C   0  0  0  0  0  0  0  0  0  0  0  0
    4.3587    6.0787   21.8505 O   0  0  0  0  0  0  0  0  0  0  0  0
    6.4545    6.6585   21.1852 N   0  0  0  0  0  0  0  0  0  0  0  0
    6.6139    7.2851   22.5254 C   0  0  0  0  0  0  0  0  0  0  0  0
    7.9821    6.9654   23.0230 C   0  0  0  0  0  0  0  0  0  0  0  0
    8.9442    7.4790   22.0968 N   0  0  0  0  0  0  0  0  0  0  0  0
    8.8822    6.8166   20.8299 C   0  0  0  0  0  0  0  0  0  0  0  0
    7.4931    7.0001   20.2675 C   0  0  0  0  0  0  0  0  0  0  0  0
   10.2409    7.5015   22.6878 C   0  0  0  0  0  0  0  0  0  0  0  0
   11.1593    6.4385   22.1165 C   0  0  0  0  0  0  0  0  0  0  0  0
   10.2044    7.3935   24.1950 C   0  0  0  0  0  0  0  0  0  0  0  0
    4.3062    7.0070   18.0797 C   0  0  0  0  0  0  0  0  0  0  0  0
    5.4364    7.5913   17.5498 O   0  0  0  0  0  0  0  0  0  0  0  0
    4.0333    8.2035   15.7060 C   0  0  0  0  0  0  0  0  0  0  0  0
    5.0304    8.6566   16.7340 C   0  0  0  0  0  0  0  0  0  0  0  0
 38 39  1  0  0  0
 39 37  1  0  0  0
 37 36  1  0  0  0
 36  1  1  0  0  0
  1  2  1  0  0  0
  2 13  1  0  0  0
 13 14  2  0  0  0
 14 15  1  0  0  0
 15 16  2  0  0  0
 16 17  1  0  0  0
 17 18  1  0  0  0
 17 19  2  0  0  0
 19 20  1  0  0  0
 20 23  1  0  0  0
 23 24  1  0  0  0
 20 21  2  0  0  0
 21 22  1  0  0  0
  2  3  2  0  0  0
  3  4  1  0  0  0
  4  5  1  0  0  0
  4  6  2  0  0  0
  6  7  1  0  0  0
  7  8  2  0  0  0
  8  9  1  0  0  0
  9 10  1  0  0  0
 10 25  1  0  0  0
 25 26  2  0  0  0
 25 27  1  0  0  0
 27 28  1  0  0  0
 28 29  1  0  0  0
 29 30  1  0  0  0
 30 31  1  0  0  0
 31 32  1  0  0  0
 30 33  1  0  0  0
 33 34  1  0  0  0
 33 35  1  0  0  0
 10  1  2  0  0  0
 32 27  1  0  0  0
 22 13  1  0  0  0
  9  3  1  0  0  0
 21 15  1  0  0  0
  5 11  1  0  0  0
  5 12  1  0  0  0
M  END
> <minimizedAffinity>
-7.76686

> <CNNscore>
0.1178556234

> <CNNaffinity>
6.4938306808

> <CNN_VS>
0.7653344870

> <CNNaffinity_variance>
0.4930044115

$$$$
[H]c1nc(N([H])[H])c2c(-c3sc4c(OC([H])([H])[H])c([H])c(C([H])([H])[H])c([H])c4c3[H])c(C([H])([H])OC([H])([H])C([H])([H])[H])c(C(=O)N3C([H])([H])C([H])([H])N(C([H])(C([H])([H])[H])C([H])([H])[H])C([H])([H])C3([H])[H])n2n1


 39 43  0  0  0  0  0  0  0  0999 V2000
    4.4775    6.4407   19.4572 C   0  0  0  0  0  0  0  0  0  0  0  0
    5.3878    6.0632   20.4665 C   0  0  0  0  0  0  0  0  0  0  0  0
    5.2510    4.7329   20.6378 C   0  0  0  0  0  0  0  0  0  0  0  0
    5.9101    3.7966   21.4075 C   0  0  0  0  0  0  0  0  0  0  0  0
    7.0180    4.0582   22.2469 N   0  0  0  0  0  0  0  0  0  0  0  0
    5.5606    2.4856   21.2886 N   0  0  0  0  0  0  0  0  0  0  0  0
    4.6107    2.0790   20.4525 C   0  0  0  0  0  0  0  0  0  0  0  0
    4.0120    3.0162   19.7285 N   0  0  0  0  0  0  0  0  0  0  0  0
    4.2779    4.3017   19.7739 N   0  0  0  0  0  0  0  0  0  0  0  0
    3.7807    5.3363   19.0288 C   0  0  0  0  0  0  0  0  0  0  0  0
    7.9584    4.3325   21.8780 H   0  0  0  0  0  0  0  0  0  0  0  0
    6.9144    3.9416   23.2882 H   0  0  0  0  0  0  0  0  0  0  0  0
    6.1929    7.0361   21.2300 C   0  0  0  0  0  0  0  0  0  0  0  0
    6.0613    7.5236   22.4958 C   0  0  0  0  0  0  0  0  0  0  0  0
    7.0074    8.3634   22.9657 C   0  0  0  0  0  0  0  0  0  0  0  0
    7.0699    8.9043   24.2689 C   0  0  0  0  0  0  0  0  0  0  0  0
    8.1290    9.6916   24.6207 C   0  0  0  0  0  0  0  0  0  0  0  0
    8.2030   10.2419   26.0107 C   0  0  0  0  0  0  0  0  0  0  0  0
    9.1866   10.0202   23.7787 C   0  0  0  0  0  0  0  0  0  0  0  0
    9.1107    9.4938   22.5308 C   0  0  0  0  0  0  0  0  0  0  0  0
    8.0327    8.6782   22.1471 C   0  0  0  0  0  0  0  0  0  0  0  0
    7.6672    7.8068   20.7490 S   0  0  0  0  0  0  0  0  0  0  0  0
   10.0619    9.7198   21.5480 O   0  0  0  0  0  0  0  0  0  0  0  0
   11.1684   10.5875   21.8263 C   0  0  0  0  0  0  0  0  0  0  0  0
    2.9189    5.1470   17.8775 C   0  0  0  0  0  0  0  0  0  0  0  0
    1.7619    4.5974   18.0309 O   0  0  0  0  0  0  0  0  0  0  0  0
    3.2349    5.5013   16.5529 N   0  0  0  0  0  0  0  0  0  0  0  0
    2.1703    5.3413   15.5256 C   0  0  0  0  0  0  0  0  0  0  0  0
    2.1627    6.5663   14.6764 C   0  0  0  0  0  0  0  0  0  0  0  0
    3.4484    6.7159   14.0666 N   0  0  0  0  0  0  0  0  0  0  0  0
    4.4754    6.9777   15.0278 C   0  0  0  0  0  0  0  0  0  0  0  0
    4.5122    5.8283   16.0060 C   0  0  0  0  0  0  0  0  0  0  0  0
    3.3858    7.6578   12.9987 C   0  0  0  0  0  0  0  0  0  0  0  0
    4.6340    7.6446   12.1374 C   0  0  0  0  0  0  0  0  0  0  0  0
    3.1008    9.0656   13.4695 C   0  0  0  0  0  0  0  0  0  0  0  0
    4.3086    7.8016   18.9159 C   0  0  0  0  0  0  0  0  0  0  0  0
    5.3659    8.2823   18.1740 O   0  0  0  0  0  0  0  0  0  0  0  0
    4.6685   10.1127   19.5549 C   0  0  0  0  0  0  0  0  0  0  0  0
    5.3928    9.6771   18.3131 C   0  0  0  0  0  0  0  0  0  0  0  0
 38 39  1  0  0  0
 39 37  1  0  0  0
 37 36  1  0  0  0
 36  1  1  0  0  0
  1  2  1  0  0  0
  2 13  1  0  0  0
 13 14  2  0  0  0
 14 15  1  0  0  0
 15 16  2  0  0  0
 16 17  1  0  0  0
 17 18  1  0  0  0
 17 19  2  0  0  0
 19 20  1  0  0  0
 20 23  1  0  0  0
 23 24  1  0  0  0
 20 21  2  0  0  0
 21 22  1  0  0  0
  2  3  2  0  0  0
  3  4  1  0  0  0
  4  5  1  0  0  0
  4  6  2  0  0  0
  6  7  1  0  0  0
  7  8  2  0  0  0
  8  9  1  0  0  0
  9 10  1  0  0  0
 10 25  1  0  0  0
 25 26  2  0  0  0
 25 27  1  0  0  0
 27 28  1  0  0  0
 28 29  1  0  0  0
 29 30  1  0  0  0
 30 31  1  0  0  0
 31 32  1  0  0  0
 30 33  1  0  0  0
 33 34  1  0  0  0
 33 35  1  0  0  0
 10  1  2  0  0  0
 32 27  1  0  0  0
 22 13  1  0  0  0
  9  3  1  0  0  0
 21 15  1  0  0  0
  5 11  1  0  0  0
  5 12  1  0  0  0
M  END
> <minimizedAffinity>
-6.98552

> <CNNscore>
0.1142365560

> <CNNaffinity>
6.1234617233

> <CNN_VS>
0.6995231509

> <CNNaffinity_variance>
0.3621204495

$$$$
[H]c1nc(N([H])[H])c2c(-c3sc4c(OC([H])([H])[H])c([H])c(C([H])([H])[H])c([H])c4c3[H])c(C([H])([H])OC([H])([H])C([H])([H])[H])c(C(=O)N3C([H])([H])C([H])([H])N(C([H])(C([H])([H])[H])C([H])([H])[H])C([H])([H])C3([H])[H])n2n1


 39 43  0  0  0  0  0  0  0  0999 V2000
    2.7833    5.1486   15.0891 C   0  0  0  0  0  0  0  0  0  0  0  0
    3.5169    4.8188   16.2479 C   0  0  0  0  0  0  0  0  0  0  0  0
    3.3626    3.4937   16.4435 C   0  0  0  0  0  0  0  0  0  0  0  0
    3.8917    2.5937   17.3454 C   0  0  0  0  0  0  0  0  0  0  0  0
    4.8440    2.8990   18.3456 N   0  0  0  0  0  0  0  0  0  0  0  0
    3.5754    1.2750   17.2193 N   0  0  0  0  0  0  0  0  0  0  0  0
    2.7793    0.8270   16.2537 C   0  0  0  0  0  0  0  0  0  0  0  0
    2.3022    1.7303   15.4068 N   0  0  0  0  0  0  0  0  0  0  0  0
    2.5484    3.0198   15.4477 N   0  0  0  0  0  0  0  0  0  0  0  0
    2.1741    4.0210   14.5930 C   0  0  0  0  0  0  0  0  0  0  0  0
    5.8307    3.1720   18.1269 H   0  0  0  0  0  0  0  0  0  0  0  0
    4.5707    2.8181   19.3593 H   0  0  0  0  0  0  0  0  0  0  0  0
    4.1784    5.8282   17.0970 C   0  0  0  0  0  0  0  0  0  0  0  0
    3.8251    6.3749   18.2944 C   0  0  0  0  0  0  0  0  0  0  0  0
    4.6771    7.2378   18.8865 C   0  0  0  0  0  0  0  0  0  0  0  0
    4.5083    7.8399   20.1529 C   0  0  0  0  0  0  0  0  0  0  0  0
    5.4924    8.6450   20.6518 C   0  0  0  0  0  0  0  0  0  0  0  0
    5.3195    9.2607   22.0051 C   0  0  0  0  0  0  0  0  0  0  0  0
    6.6860    8.9354   19.9988 C   0  0  0  0  0  0  0  0  0  0  0  0
    6.8318    8.3504   18.7837 C   0  0  0  0  0  0  0  0  0  0  0  0
    5.8347    7.5155   18.2514 C   0  0  0  0  0  0  0  0  0  0  0  0
    5.7202    6.5781   16.8529 S   0  0  0  0  0  0  0  0  0  0  0  0
    7.9453    8.5313   17.9781 O   0  0  0  0  0  0  0  0  0  0  0  0
    7.9779    9.6318   17.0601 C   0  0  0  0  0  0  0  0  0  0  0  0
    1.5156    3.7800   13.3233 C   0  0  0  0  0  0  0  0  0  0  0  0
    0.2571    3.4974   13.3016 O   0  0  0  0  0  0  0  0  0  0  0  0
    2.1378    3.8081   12.0615 N   0  0  0  0  0  0  0  0  0  0  0  0
    1.2690    3.6574   10.8628 C   0  0  0  0  0  0  0  0  0  0  0  0
    1.6890    4.6762    9.8591 C   0  0  0  0  0  0  0  0  0  0  0  0
    3.0645    4.4618    9.5284 N   0  0  0  0  0  0  0  0  0  0  0  0
    3.9320    4.7051   10.6399 C   0  0  0  0  0  0  0  0  0  0  0  0
    3.5333    3.7783   11.7632 C   0  0  0  0  0  0  0  0  0  0  0  0
    3.4085    5.1763    8.3441 C   0  0  0  0  0  0  0  0  0  0  0  0
    3.3399    6.6797    8.5310 C   0  0  0  0  0  0  0  0  0  0  0  0
    2.5801    4.7686    7.1473 C   0  0  0  0  0  0  0  0  0  0  0  0
    2.6971    6.4872   14.4772 C   0  0  0  0  0  0  0  0  0  0  0  0
    3.7129    6.8085   13.6031 O   0  0  0  0  0  0  0  0  0  0  0  0
    2.7791    9.0117   13.7331 C   0  0  0  0  0  0  0  0  0  0  0  0
    4.0194    8.1655   13.7764 C   0  0  0  0  0  0  0  0  0  0  0  0
 38 39  1  0  0  0
 39 37  1  0  0  0
 37 36  1  0  0  0
 36  1  1  0  0  0
  1  2  1  0  0  0
  2 13  1  0  0  0
 13 14  2  0  0  0
 14 15  1  0  0  0
 15 16  2  0  0  0
 16 17  1  0  0  0
 17 18  1  0  0  0
 17 19  2  0  0  0
 19 20  1  0  0  0
 20 23  1  0  0  0
 23 24  1  0  0  0
 20 21  2  0  0  0
 21 22  1  0  0  0
  2  3  2  0  0  0
  3  4  1  0  0  0
  4  5  1  0  0  0
  4  6  2  0  0  0
  6  7  1  0  0  0
  7  8  2  0  0  0
  8  9  1  0  0  0
  9 10  1  0  0  0
 10 25  1  0  0  0
 25 26  2  0  0  0
 25 27  1  0  0  0
 27 28  1  0  0  0
 28 29  1  0  0  0
 29 30  1  0  0  0
 30 31  1  0  0  0
 31 32  1  0  0  0
 30 33  1  0  0  0
 33 34  1  0  0  0
 33 35  1  0  0  0
 10  1  2  0  0  0
 32 27  1  0  0  0
 22 13  1  0  0  0
  9  3  1  0  0  0
 21 15  1  0  0  0
  5 11  1  0  0  0
  5 12  1  0  0  0
M  END
> <minimizedAffinity>
-6.64495

> <CNNscore>
0.0866921023

> <CNNaffinity>
6.1487569809

> <CNN_VS>
0.5330486894

> <CNNaffinity_variance>
0.3559263349

$$$$
[H]OC([H])([H])[C@@]1([H])N(C(=O)c2c([H])c(C(=O)N([H])S(=O)(=O)c3c([H])c([H])c4c([H])c([H])c([H])c(Cl)c4c3[H])c([H])c([H])c2-n2nc(C(=O)N(C([H])([H])C([H])([H])C([H])([H])C([H])([H])[H])C([H])([H])C([H])([H])C([H])([H])C([H])([H])[H])c(Cl)c2C([H])([H])[H])C([H])([H])c2c([H])c([H])c([H])c([H])c2C1([H])[H]


 57 62  0  0  0  0  0  0  0  0999 V2000
    3.7565    2.8273   17.1868 C   0  0  0  0  0  0  0  0  0  0  0  0
    3.6381    2.0644   16.0186 C   0  0  0  0  0  0  0  0  0  0  0  0
    3.3819    2.6368   14.7990 C   0  0  0  0  0  0  0  0  0  0  0  0
    3.2282    4.0056   14.6721 C   0  0  0  0  0  0  0  0  0  0  0  0
    3.3459    4.7566   15.8207 C   0  0  0  0  0  0  0  0  0  0  0  0
    3.6033    4.1867   17.0464 C   0  0  0  0  0  0  0  0  0  0  0  0
    3.7267    5.0541   18.1978 C   0  0  0  0  0  0  0  0  0  0  0  0
    2.8743    5.0374   19.1247 O   0  0  0  0  0  0  0  0  0  0  0  0
    4.8143    5.9742   18.3513 N   0  0  0  0  0  0  0  0  0  0  0  0
    5.7884    6.0113   17.2615 C   0  0  0  0  0  0  0  0  0  0  0  0
    6.3204    7.4115   17.1189 C   0  0  0  0  0  0  0  0  0  0  0  0
    6.5440    8.0074   15.9115 C   0  0  0  0  0  0  0  0  0  0  0  0
    7.0365    9.2861   15.8525 C   0  0  0  0  0  0  0  0  0  0  0  0
    7.2995    9.9531   17.0375 C   0  0  0  0  0  0  0  0  0  0  0  0
    7.0636    9.3284   18.2706 C   0  0  0  0  0  0  0  0  0  0  0  0
    6.5725    8.0534   18.3289 C   0  0  0  0  0  0  0  0  0  0  0  0
    6.3078    7.3825   19.6226 C   0  0  0  0  0  0  0  0  0  0  0  0
    4.9186    6.7899   19.5278 C   0  0  0  0  0  0  0  0  0  0  0  0
    3.8725    7.8761   19.6281 C   0  0  0  0  0  0  0  0  0  0  0  0
    4.1346    8.5759   20.8085 O   0  0  0  0  0  0  0  0  0  0  0  0
    3.2974    8.7930   21.2481 H   0  0  0  0  0  0  0  0  0  0  0  0
    4.7653    1.6920   20.4316 C   0  0  0  0  0  0  0  0  0  0  0  0
    4.7561    2.5472   19.4200 N   0  0  0  0  0  0  0  0  0  0  0  0
    3.9920    2.1762   18.4197 N   0  0  0  0  0  0  0  0  0  0  0  0
    3.4460    0.9955   18.7695 C   0  0  0  0  0  0  0  0  0  0  0  0
    2.5274    0.1856   17.9289 C   0  0  0  0  0  0  0  0  0  0  0  0
    3.9096    0.6690   20.0207 C   0  0  0  0  0  0  0  0  0  0  0  0
    3.5163   -0.7512   20.9567 Cl  0  0  0  0  0  0  0  0  0  0  0  0
    5.0328    2.1369   22.9304 N   0  0  0  0  0  0  0  0  0  0  0  0
    5.5133    1.7388   21.6743 C   0  0  0  0  0  0  0  0  0  0  0  0
    6.7462    1.3825   21.6114 O   0  0  0  0  0  0  0  0  0  0  0  0
    6.0204    2.1072   24.0231 C   0  0  0  0  0  0  0  0  0  0  0  0
    5.6111    1.2717   25.1841 C   0  0  0  0  0  0  0  0  0  0  0  0
    6.4845    0.1309   27.2324 C   0  0  0  0  0  0  0  0  0  0  0  0
    6.7845    1.1517   26.1672 C   0  0  0  0  0  0  0  0  0  0  0  0
    3.7177    2.5870   23.2633 C   0  0  0  0  0  0  0  0  0  0  0  0
    3.6299    4.0153   23.7279 C   0  0  0  0  0  0  0  0  0  0  0  0
    4.0236    4.8660   22.5111 C   0  0  0  0  0  0  0  0  0  0  0  0
    5.3109    5.5884   22.7148 C   0  0  0  0  0  0  0  0  0  0  0  0
    2.9314    4.6392   13.3971 C   0  0  0  0  0  0  0  0  0  0  0  0
    3.8448    5.2239   12.7957 O   0  0  0  0  0  0  0  0  0  0  0  0
    1.6375    4.5923   12.8612 N   0  0  0  0  0  0  0  0  0  0  0  0
    0.8824    4.0921   13.3885 H   0  0  0  0  0  0  0  0  0  0  0  0
    1.1445    5.3027   11.3695 S   0  0  0  0  0  0  0  0  0  0  0  0
    2.0333    4.7164   10.2979 O   0  0  0  0  0  0  0  0  0  0  0  0
    1.4127    6.7794   11.4076 O   0  0  0  0  0  0  0  0  0  0  0  0
   -0.5242    4.9829   11.0075 C   0  0  0  0  0  0  0  0  0  0  0  0
   -0.9055    4.0791   10.0413 C   0  0  0  0  0  0  0  0  0  0  0  0
   -2.2313    3.8121    9.7811 C   0  0  0  0  0  0  0  0  0  0  0  0
   -3.2377    4.4358   10.4739 C   0  0  0  0  0  0  0  0  0  0  0  0
   -4.5650    4.1561   10.2157 C   0  0  0  0  0  0  0  0  0  0  0  0
   -5.5717    4.7813   10.9259 C   0  0  0  0  0  0  0  0  0  0  0  0
   -5.2443    5.7010   11.9102 C   0  0  0  0  0  0  0  0  0  0  0  0
   -3.9168    5.9702   12.1571 C   0  0  0  0  0  0  0  0  0  0  0  0
   -3.4735    7.1179   13.3913 Cl  0  0  0  0  0  0  0  0  0  0  0  0
   -2.8884    5.3560   11.4578 C   0  0  0  0  0  0  0  0  0  0  0  0
   -1.5544    5.6178   11.7120 C   0  0  0  0  0  0  0  0  0  0  0  0
 34 35  1  0  0  0
 35 33  1  0  0  0
 33 32  1  0  0  0
 32 29  1  0  0  0
 29 36  1  0  0  0
 36 37  1  0  0  0
 37 38  1  0  0  0
 38 39  1  0  0  0
 29 30  1  0  0  0
 30 31  2  0  0  0
 30 22  1  0  0  0
 22 23  2  0  0  0
 23 24  1  0  0  0
 24 25  1  0  0  0
 25 26  1  0  0  0
 25 27  2  0  0  0
 27 28  1  0  0  0
 24  1  1  0  0  0
  1  2  2  0  0  0
  2  3  1  0  0  0
  3  4  2  0  0  0
  4  5  1  0  0  0
  5  6  2  0  0  0
  6  7  1  0  0  0
  7  8  2  0  0  0
  7  9  1  0  0  0
  9 10  1  0  0  0
 10 11  1  0  0  0
 11 12  2  0  0  0
 12 13  1  0  0  0
 13 14  2  0  0  0
 14 15  1  0  0  0
 15 16  2  0  0  0
 16 17  1  0  0  0
 17 18  1  0  0  0
 18 19  1  0  0  0
 19 20  1  0  0  0
  4 40  1  0  0  0
 40 41  2  0  0  0
 40 42  1  0  0  0
 42 44  1  0  0  0
 44 45  2  0  0  0
 44 46  2  0  0  0
 44 47  1  0  0  0
 47 48  2  0  0  0
 48 49  1  0  0  0
 49 50  2  0  0  0
 50 51  1  0  0  0
 51 52  2  0  0  0
 52 53  1  0  0  0
 53 54  2  0  0  0
 54 55  1  0  0  0
 54 56  1  0  0  0
 56 57  2  0  0  0
 27 22  1  0  0  0
  6  1  1  0  0  0
 18  9  1  0  0  0
 57 47  1  0  0  0
 16 11  1  0  0  0
 56 50  1  0  0  0
 20 21  1  0  0  0
 42 43  1  0  0  0
M  END
> <minimizedAffinity>
-9.80262

> <CNNscore>
0.2892644405

> <CNNaffinity>
7.8016419411

> <CNN_VS>
2.2567377090

> <CNNaffinity_variance>
0.3371632695

$$$$
[H]OC([H])([H])[C@@]1([H])N(C(=O)c2c([H])c(C(=O)N([H])S(=O)(=O)c3c([H])c([H])c4c([H])c([H])c([H])c(Cl)c4c3[H])c([H])c([H])c2-n2nc(C(=O)N(C([H])([H])C([H])([H])C([H])([H])C([H])([H])[H])C([H])([H])C([H])([H])C([H])([H])C([H])([H])[H])c(Cl)c2C([H])([H])[H])C([H])([H])c2c([H])c([H])c([H])c([H])c2C1([H])[H]


 57 62  0  0  0  0  0  0  0  0999 V2000
    4.2547    3.5781   18.6645 C   0  0  0  0  0  0  0  0  0  0  0  0
    4.1258    2.2838   18.1460 C   0  0  0  0  0  0  0  0  0  0  0  0
    3.4803    2.0357   16.9617 C   0  0  0  0  0  0  0  0  0  0  0  0
    2.9243    3.0650   16.2236 C   0  0  0  0  0  0  0  0  0  0  0  0
    3.0521    4.3385   16.7326 C   0  0  0  0  0  0  0  0  0  0  0  0
    3.6992    4.5922   17.9200 C   0  0  0  0  0  0  0  0  0  0  0  0
    3.8000    5.9632   18.3712 C   0  0  0  0  0  0  0  0  0  0  0  0
    3.3298    6.3232   19.4826 O   0  0  0  0  0  0  0  0  0  0  0  0
    4.4340    6.9828   17.5892 N   0  0  0  0  0  0  0  0  0  0  0  0
    4.9555    6.5686   16.2874 C   0  0  0  0  0  0  0  0  0  0  0  0
    4.8306    7.7113   15.3165 C   0  0  0  0  0  0  0  0  0  0  0  0
    4.4436    7.5503   14.0176 C   0  0  0  0  0  0  0  0  0  0  0  0
    4.3558    8.6350   13.1830 C   0  0  0  0  0  0  0  0  0  0  0  0
    4.6668    9.8878   13.6853 C   0  0  0  0  0  0  0  0  0  0  0  0
    5.0618   10.0379   15.0224 C   0  0  0  0  0  0  0  0  0  0  0  0
    5.1490    8.9560   15.8542 C   0  0  0  0  0  0  0  0  0  0  0  0
    5.5545    9.0979   17.2717 C   0  0  0  0  0  0  0  0  0  0  0  0
    4.5457    8.3229   18.0913 C   0  0  0  0  0  0  0  0  0  0  0  0
    3.2355    9.0727   18.1636 C   0  0  0  0  0  0  0  0  0  0  0  0
    2.8820    9.1307   19.5140 O   0  0  0  0  0  0  0  0  0  0  0  0
    1.9259    8.9925   19.6041 H   0  0  0  0  0  0  0  0  0  0  0  0
    6.2135    4.5624   21.4981 C   0  0  0  0  0  0  0  0  0  0  0  0
    5.7854    4.6774   20.2499 N   0  0  0  0  0  0  0  0  0  0  0  0
    4.9057    3.7666   19.9055 N   0  0  0  0  0  0  0  0  0  0  0  0
    4.7216    2.9815   20.9846 C   0  0  0  0  0  0  0  0  0  0  0  0
    3.8264    1.7980   21.0495 C   0  0  0  0  0  0  0  0  0  0  0  0
    5.5239    3.4550   21.9941 C   0  0  0  0  0  0  0  0  0  0  0  0
    5.6730    2.8186   23.6128 Cl  0  0  0  0  0  0  0  0  0  0  0  0
    7.1380    6.7172   22.5058 N   0  0  0  0  0  0  0  0  0  0  0  0
    7.2038    5.3475   22.2114 C   0  0  0  0  0  0  0  0  0  0  0  0
    8.2518    4.7188   22.6081 O   0  0  0  0  0  0  0  0  0  0  0  0
    8.2995    7.2648   23.2278 C   0  0  0  0  0  0  0  0  0  0  0  0
    7.9392    8.1095   24.3984 C   0  0  0  0  0  0  0  0  0  0  0  0
    9.9165    9.2726   23.3999 C   0  0  0  0  0  0  0  0  0  0  0  0
    9.0136    9.1875   24.6016 C   0  0  0  0  0  0  0  0  0  0  0  0
    6.0979    7.6373   22.1678 C   0  0  0  0  0  0  0  0  0  0  0  0
    6.4012    8.5465   21.0080 C   0  0  0  0  0  0  0  0  0  0  0  0
    5.8307    9.9169   21.4027 C   0  0  0  0  0  0  0  0  0  0  0  0
    6.8640   10.8149   21.9913 C   0  0  0  0  0  0  0  0  0  0  0  0
    2.2123    2.8309   14.9772 C   0  0  0  0  0  0  0  0  0  0  0  0
    1.7880    1.6903   14.7388 O   0  0  0  0  0  0  0  0  0  0  0  0
    2.0131    3.8737   14.0626 N   0  0  0  0  0  0  0  0  0  0  0  0
    2.3814    4.8290   14.2867 H   0  0  0  0  0  0  0  0  0  0  0  0
    1.1966    3.7377   12.5502 S   0  0  0  0  0  0  0  0  0  0  0  0
   -0.2820    3.8131   12.8499 O   0  0  0  0  0  0  0  0  0  0  0  0
    1.4599    2.3819   11.9613 O   0  0  0  0  0  0  0  0  0  0  0  0
    1.6500    4.9959   11.4415 C   0  0  0  0  0  0  0  0  0  0  0  0
    0.7170    5.7627   10.7802 C   0  0  0  0  0  0  0  0  0  0  0  0
    1.0869    6.7764    9.9244 C   0  0  0  0  0  0  0  0  0  0  0  0
    2.4059    7.0708    9.6893 C   0  0  0  0  0  0  0  0  0  0  0  0
    2.7704    8.0953    8.8383 C   0  0  0  0  0  0  0  0  0  0  0  0
    4.1013    8.3917    8.6157 C   0  0  0  0  0  0  0  0  0  0  0  0
    5.0828    7.6506    9.2556 C   0  0  0  0  0  0  0  0  0  0  0  0
    4.7051    6.6320   10.1014 C   0  0  0  0  0  0  0  0  0  0  0  0
    5.9155    5.6857   10.9238 Cl  0  0  0  0  0  0  0  0  0  0  0  0
    3.3761    6.3153   10.3409 C   0  0  0  0  0  0  0  0  0  0  0  0
    2.9952    5.2991   11.1984 C   0  0  0  0  0  0  0  0  0  0  0  0
 34 35  1  0  0  0
 35 33  1  0  0  0
 33 32  1  0  0  0
 32 29  1  0  0  0
 29 36  1  0  0  0
 36 37  1  0  0  0
 37 38  1  0  0  0
 38 39  1  0  0  0
 29 30  1  0  0  0
 30 31  2  0  0  0
 30 22  1  0  0  0
 22 23  2  0  0  0
 23 24  1  0  0  0
 24 25  1  0  0  0
 25 26  1  0  0  0
 25 27  2  0  0  0
 27 28  1  0  0  0
 24  1  1  0  0  0
  1  2  2  0  0  0
  2  3  1  0  0  0
  3  4  2  0  0  0
  4  5  1  0  0  0
  5  6  2  0  0  0
  6  7  1  0  0  0
  7  8  2  0  0  0
  7  9  1  0  0  0
  9 10  1  0  0  0
 10 11  1  0  0  0
 11 12  2  0  0  0
 12 13  1  0  0  0
 13 14  2  0  0  0
 14 15  1  0  0  0
 15 16  2  0  0  0
 16 17  1  0  0  0
 17 18  1  0  0  0
 18 19  1  0  0  0
 19 20  1  0  0  0
  4 40  1  0  0  0
 40 41  2  0  0  0
 40 42  1  0  0  0
 42 44  1  0  0  0
 44 45  2  0  0  0
 44 46  2  0  0  0
 44 47  1  0  0  0
 47 48  2  0  0  0
 48 49  1  0  0  0
 49 50  2  0  0  0
 50 51  1  0  0  0
 51 52  2  0  0  0
 52 53  1  0  0  0
 53 54  2  0  0  0
 54 55  1  0  0  0
 54 56  1  0  0  0
 56 57  2  0  0  0
 27 22  1  0  0  0
  6  1  1  0  0  0
 18  9  1  0  0  0
 57 47  1  0  0  0
 16 11  1  0  0  0
 56 50  1  0  0  0
 20 21  1  0  0  0
 42 43  1  0  0  0
M  END
> <minimizedAffinity>
-8.31394

> <CNNscore>
0.1271365583

> <CNNaffinity>
7.1492853165

> <CNN_VS>
0.9089355469

> <CNNaffinity_variance>
0.6248251796

$$$$
[H]OC([H])([H])[C@@]1([H])N(C(=O)c2c([H])c(C(=O)N([H])S(=O)(=O)c3c([H])c([H])c4c([H])c([H])c([H])c(Cl)c4c3[H])c([H])c([H])c2-n2nc(C(=O)N(C([H])([H])C([H])([H])C([H])([H])C([H])([H])[H])C([H])([H])C([H])([H])C([H])([H])C([H])([H])[H])c(Cl)c2C([H])([H])[H])C([H])([H])c2c([H])c([H])c([H])c([H])c2C1([H])[H]


 57 62  0  0  0  0  0  0  0  0999 V2000
    2.8993    2.9907   12.1643 C   0  0  0  0  0  0  0  0  0  0  0  0
    2.8283    2.3289   13.3962 C   0  0  0  0  0  0  0  0  0  0  0  0
    2.9794    2.9913   14.5874 C   0  0  0  0  0  0  0  0  0  0  0  0
    3.2107    4.3547   14.6207 C   0  0  0  0  0  0  0  0  0  0  0  0
    3.2792    5.0064   13.4091 C   0  0  0  0  0  0  0  0  0  0  0  0
    3.1278    4.3460   12.2116 C   0  0  0  0  0  0  0  0  0  0  0  0
    3.1989    5.1135   10.9871 C   0  0  0  0  0  0  0  0  0  0  0  0
    2.2042    5.7555   10.5578 O   0  0  0  0  0  0  0  0  0  0  0  0
    4.3924    5.1885   10.1978 N   0  0  0  0  0  0  0  0  0  0  0  0
    5.5381    4.4208   10.6836 C   0  0  0  0  0  0  0  0  0  0  0  0
    6.3384    3.9268    9.5091 C   0  0  0  0  0  0  0  0  0  0  0  0
    6.8848    2.6776    9.4486 C   0  0  0  0  0  0  0  0  0  0  0  0
    7.6091    2.2925    8.3494 C   0  0  0  0  0  0  0  0  0  0  0  0
    7.7717    3.1940    7.3106 C   0  0  0  0  0  0  0  0  0  0  0  0
    7.2033    4.4737    7.3864 C   0  0  0  0  0  0  0  0  0  0  0  0
    6.4812    4.8572    8.4825 C   0  0  0  0  0  0  0  0  0  0  0  0
    5.8654    6.2011    8.5745 C   0  0  0  0  0  0  0  0  0  0  0  0
    4.4310    5.9923    9.0092 C   0  0  0  0  0  0  0  0  0  0  0  0
    3.6050    5.4525    7.8645 C   0  0  0  0  0  0  0  0  0  0  0  0
    2.5471    6.3458    7.6786 O   0  0  0  0  0  0  0  0  0  0  0  0
    1.7349    5.8501    7.4889 H   0  0  0  0  0  0  0  0  0  0  0  0
    3.2145    0.9921    9.2077 C   0  0  0  0  0  0  0  0  0  0  0  0
    3.6722    1.5652   10.3107 N   0  0  0  0  0  0  0  0  0  0  0  0
    2.7648    2.2477   10.9688 N   0  0  0  0  0  0  0  0  0  0  0  0
    1.6172    2.1337   10.2726 C   0  0  0  0  0  0  0  0  0  0  0  0
    0.3225    2.7672   10.6312 C   0  0  0  0  0  0  0  0  0  0  0  0
    1.8673    1.3545    9.1693 C   0  0  0  0  0  0  0  0  0  0  0  0
    0.7320    0.8794    7.9311 Cl  0  0  0  0  0  0  0  0  0  0  0  0
    4.2152   -1.1644    8.2794 N   0  0  0  0  0  0  0  0  0  0  0  0
    3.9209    0.2053    8.2138 C   0  0  0  0  0  0  0  0  0  0  0  0
    4.3217    0.8351    7.1679 O   0  0  0  0  0  0  0  0  0  0  0  0
    4.9665   -1.7049    7.1333 C   0  0  0  0  0  0  0  0  0  0  0  0
    4.3760   -2.9412    6.5533 C   0  0  0  0  0  0  0  0  0  0  0  0
    5.0845   -5.2521    7.1992 C   0  0  0  0  0  0  0  0  0  0  0  0
    5.4640   -4.0171    6.4261 C   0  0  0  0  0  0  0  0  0  0  0  0
    3.8962   -2.0800    9.3295 C   0  0  0  0  0  0  0  0  0  0  0  0
    2.4876   -2.6085    9.3102 C   0  0  0  0  0  0  0  0  0  0  0  0
    2.6081   -4.1054    9.6328 C   0  0  0  0  0  0  0  0  0  0  0  0
    1.3180   -4.6941   10.0908 C   0  0  0  0  0  0  0  0  0  0  0  0
    3.3997    5.0805   15.8667 C   0  0  0  0  0  0  0  0  0  0  0  0
    2.4211    5.2570   16.6076 O   0  0  0  0  0  0  0  0  0  0  0  0
    4.6629    5.5734   16.2206 N   0  0  0  0  0  0  0  0  0  0  0  0
    5.4745    5.4116   15.5777 H   0  0  0  0  0  0  0  0  0  0  0  0
    5.0283    6.4535   17.6575 S   0  0  0  0  0  0  0  0  0  0  0  0
    4.1401    7.6753   17.6528 O   0  0  0  0  0  0  0  0  0  0  0  0
    6.4480    6.9385   17.5980 O   0  0  0  0  0  0  0  0  0  0  0  0
    4.7517    5.5149   19.0929 C   0  0  0  0  0  0  0  0  0  0  0  0
    4.6383    6.0931   20.3374 C   0  0  0  0  0  0  0  0  0  0  0  0
    4.3912    5.3428   21.4656 C   0  0  0  0  0  0  0  0  0  0  0  0
    4.2461    3.9802   21.4030 C   0  0  0  0  0  0  0  0  0  0  0  0
    3.9880    3.2346   22.5361 C   0  0  0  0  0  0  0  0  0  0  0  0
    3.8328    1.8638   22.4619 C   0  0  0  0  0  0  0  0  0  0  0  0
    3.9376    1.2295   21.2336 C   0  0  0  0  0  0  0  0  0  0  0  0
    4.1953    1.9853   20.1120 C   0  0  0  0  0  0  0  0  0  0  0  0
    4.3280    1.2175   18.5532 Cl  0  0  0  0  0  0  0  0  0  0  0  0
    4.3552    3.3623   20.1608 C   0  0  0  0  0  0  0  0  0  0  0  0
    4.6036    4.1238   19.0333 C   0  0  0  0  0  0  0  0  0  0  0  0
 34 35  1  0  0  0
 35 33  1  0  0  0
 33 32  1  0  0  0
 32 29  1  0  0  0
 29 36  1  0  0  0
 36 37  1  0  0  0
 37 38  1  0  0  0
 38 39  1  0  0  0
 29 30  1  0  0  0
 30 31  2  0  0  0
 30 22  1  0  0  0
 22 23  2  0  0  0
 23 24  1  0  0  0
 24 25  1  0  0  0
 25 26  1  0  0  0
 25 27  2  0  0  0
 27 28  1  0  0  0
 24  1  1  0  0  0
  1  2  2  0  0  0
  2  3  1  0  0  0
  3  4  2  0  0  0
  4  5  1  0  0  0
  5  6  2  0  0  0
  6  7  1  0  0  0
  7  8  2  0  0  0
  7  9  1  0  0  0
  9 10  1  0  0  0
 10 11  1  0  0  0
 11 12  2  0  0  0
 12 13  1  0  0  0
 13 14  2  0  0  0
 14 15  1  0  0  0
 15 16  2  0  0  0
 16 17  1  0  0  0
 17 18  1  0  0  0
 18 19  1  0  0  0
 19 20  1  0  0  0
  4 40  1  0  0  0
 40 41  2  0  0  0
 40 42  1  0  0  0
 42 44  1  0  0  0
 44 45  2  0  0  0
 44 46  2  0  0  0
 44 47  1  0  0  0
 47 48  2  0  0  0
 48 49  1  0  0  0
 49 50  2  0  0  0
 50 51  1  0  0  0
 51 52  2  0  0  0
 52 53  1  0  0  0
 53 54  2  0  0  0
 54 55  1  0  0  0
 54 56  1  0  0  0
 56 57  2  0  0  0
 27 22  1  0  0  0
  6  1  1  0  0  0
 18  9  1  0  0  0
 57 47  1  0  0  0
 16 11  1  0  0  0
 56 50  1  0  0  0
 20 21  1  0  0  0
 42 43  1  0  0  0
M  END
> <minimizedAffinity>
-8.11960

> <CNNscore>
0.1148230433

> <CNNaffinity>
7.3260016441

> <CNN_VS>
0.8411937952

> <CNNaffinity_variance>
0.3239767849

$$$$
[H]OC([H])([H])[C@@]1([H])N(C(=O)c2c([H])c(C(=O)N([H])S(=O)(=O)c3c([H])c([H])c4c([H])c([H])c([H])c(Cl)c4c3[H])c([H])c([H])c2-n2nc(C(=O)N(C([H])([H])C([H])([H])C([H])([H])C([H])([H])[H])C([H])([H])C([H])([H])C([H])([H])C([H])([H])[H])c(Cl)c2C([H])([H])[H])C([H])([H])c2c([H])c([H])c([H])c([H])c2C1([H])[H]


 57 62  0  0  0  0  0  0  0  0999 V2000
    1.9859    3.8708   11.2878 C   0  0  0  0  0  0  0  0  0  0  0  0
    1.2788    2.7347   11.6999 C   0  0  0  0  0  0  0  0  0  0  0  0
    1.3390    2.2680   12.9880 C   0  0  0  0  0  0  0  0  0  0  0  0
    2.1091    2.9074   13.9427 C   0  0  0  0  0  0  0  0  0  0  0  0
    2.8038    4.0260   13.5382 C   0  0  0  0  0  0  0  0  0  0  0  0
    2.7460    4.4981   12.2471 C   0  0  0  0  0  0  0  0  0  0  0  0
    3.4962    5.6897   11.9144 C   0  0  0  0  0  0  0  0  0  0  0  0
    3.0099    6.8388   12.0852 O   0  0  0  0  0  0  0  0  0  0  0  0
    4.8231    5.6348   11.3766 N   0  0  0  0  0  0  0  0  0  0  0  0
    5.3758    4.2995   11.1540 C   0  0  0  0  0  0  0  0  0  0  0  0
    6.2804    4.3310    9.9521 C   0  0  0  0  0  0  0  0  0  0  0  0
    6.3173    3.3370    9.0175 C   0  0  0  0  0  0  0  0  0  0  0  0
    7.1708    3.4256    7.9475 C   0  0  0  0  0  0  0  0  0  0  0  0
    7.9879    4.5388    7.8388 C   0  0  0  0  0  0  0  0  0  0  0  0
    7.9380    5.5527    8.8062 C   0  0  0  0  0  0  0  0  0  0  0  0
    7.0868    5.4638    9.8728 C   0  0  0  0  0  0  0  0  0  0  0  0
    7.0138    6.5302   10.8980 C   0  0  0  0  0  0  0  0  0  0  0  0
    5.5464    6.8425   11.0957 C   0  0  0  0  0  0  0  0  0  0  0  0
    5.0111    7.6312    9.9230 C   0  0  0  0  0  0  0  0  0  0  0  0
    5.8681    8.7208    9.7492 O   0  0  0  0  0  0  0  0  0  0  0  0
    5.3474    9.5102    9.5325 H   0  0  0  0  0  0  0  0  0  0  0  0
    1.4691    5.4579    8.1179 C   0  0  0  0  0  0  0  0  0  0  0  0
    1.3939    5.3853    9.4383 N   0  0  0  0  0  0  0  0  0  0  0  0
    1.9067    4.2858    9.9385 N   0  0  0  0  0  0  0  0  0  0  0  0
    2.3599    3.5633    8.8958 C   0  0  0  0  0  0  0  0  0  0  0  0
    2.9995    2.2256    8.9844 C   0  0  0  0  0  0  0  0  0  0  0  0
    2.1015    4.2705    7.7468 C   0  0  0  0  0  0  0  0  0  0  0  0
    2.4859    3.8039    6.1091 Cl  0  0  0  0  0  0  0  0  0  0  0  0
    1.7443    7.4362    6.5291 N   0  0  0  0  0  0  0  0  0  0  0  0
    0.9776    6.4862    7.2195 C   0  0  0  0  0  0  0  0  0  0  0  0
   -0.2947    6.5307    7.0457 O   0  0  0  0  0  0  0  0  0  0  0  0
    0.9799    8.3807    5.6961 C   0  0  0  0  0  0  0  0  0  0  0  0
    0.7197    7.8932    4.3147 C   0  0  0  0  0  0  0  0  0  0  0  0
    0.0248    9.6172    2.6399 C   0  0  0  0  0  0  0  0  0  0  0  0
    1.1974    8.9444    3.3026 C   0  0  0  0  0  0  0  0  0  0  0  0
    3.1629    7.6077    6.5601 C   0  0  0  0  0  0  0  0  0  0  0  0
    3.9107    6.9507    5.4318 C   0  0  0  0  0  0  0  0  0  0  0  0
    5.2150    6.4305    6.0541 C   0  0  0  0  0  0  0  0  0  0  0  0
    6.1715    7.5285    6.3708 C   0  0  0  0  0  0  0  0  0  0  0  0
    2.2127    2.4224   15.3098 C   0  0  0  0  0  0  0  0  0  0  0  0
    1.6406    3.0539   16.2108 O   0  0  0  0  0  0  0  0  0  0  0  0
    2.9476    1.2658   15.6027 N   0  0  0  0  0  0  0  0  0  0  0  0
    3.4223    0.7495   14.8240 H   0  0  0  0  0  0  0  0  0  0  0  0
    3.1595    0.5840   17.1722 S   0  0  0  0  0  0  0  0  0  0  0  0
    4.0439   -0.6285   17.0000 O   0  0  0  0  0  0  0  0  0  0  0  0
    1.8361    0.0967   17.6872 O   0  0  0  0  0  0  0  0  0  0  0  0
    3.8852    1.7041   18.2842 C   0  0  0  0  0  0  0  0  0  0  0  0
    4.1177    1.3827   19.6028 C   0  0  0  0  0  0  0  0  0  0  0  0
    4.7191    2.2680   20.4696 C   0  0  0  0  0  0  0  0  0  0  0  0
    5.1158    3.5154   20.0595 C   0  0  0  0  0  0  0  0  0  0  0  0
    5.7278    4.3947   20.9307 C   0  0  0  0  0  0  0  0  0  0  0  0
    6.1337    5.6452   20.5062 C   0  0  0  0  0  0  0  0  0  0  0  0
    5.9236    6.0212   19.1884 C   0  0  0  0  0  0  0  0  0  0  0  0
    5.3123    5.1345   18.3307 C   0  0  0  0  0  0  0  0  0  0  0  0
    5.0385    5.5763   16.6673 Cl  0  0  0  0  0  0  0  0  0  0  0  0
    4.8958    3.8740   18.7330 C   0  0  0  0  0  0  0  0  0  0  0  0
    4.2910    2.9785   17.8698 C   0  0  0  0  0  0  0  0  0  0  0  0
 34 35  1  0  0  0
 35 33  1  0  0  0
 33 32  1  0  0  0
 32 29  1  0  0  0
 29 36  1  0  0  0
 36 37  1  0  0  0
 37 38  1  0  0  0
 38 39  1  0  0  0
 29 30  1  0  0  0
 30 31  2  0  0  0
 30 22  1  0  0  0
 22 23  2  0  0  0
 23 24  1  0  0  0
 24 25  1  0  0  0
 25 26  1  0  0  0
 25 27  2  0  0  0
 27 28  1  0  0  0
 24  1  1  0  0  0
  1  2  2  0  0  0
  2  3  1  0  0  0
  3  4  2  0  0  0
  4  5  1  0  0  0
  5  6  2  0  0  0
  6  7  1  0  0  0
  7  8  2  0  0  0
  7  9  1  0  0  0
  9 10  1  0  0  0
 10 11  1  0  0  0
 11 12  2  0  0  0
 12 13  1  0  0  0
 13 14  2  0  0  0
 14 15  1  0  0  0
 15 16  2  0  0  0
 16 17  1  0  0  0
 17 18  1  0  0  0
 18 19  1  0  0  0
 19 20  1  0  0  0
  4 40  1  0  0  0
 40 41  2  0  0  0
 40 42  1  0  0  0
 42 44  1  0  0  0
 44 45  2  0  0  0
 44 46  2  0  0  0
 44 47  1  0  0  0
 47 48  2  0  0  0
 48 49  1  0  0  0
 49 50  2  0  0  0
 50 51  1  0  0  0
 51 52  2  0  0  0
 52 53  1  0  0  0
 53 54  2  0  0  0
 54 55  1  0  0  0
 54 56  1  0  0  0
 56 57  2  0  0  0
 27 22  1  0  0  0
  6  1  1  0  0  0
 18  9  1  0  0  0
 57 47  1  0  0  0
 16 11  1  0  0  0
 56 50  1  0  0  0
 20 21  1  0  0  0
 42 43  1  0  0  0
M  END
> <minimizedAffinity>
-7.50322

> <CNNscore>
0.1108043492

> <CNNaffinity>
7.0884199142

> <CNN_VS>
0.7854277492

> <CNNaffinity_variance>
0.2889447808

$$$$
[H]OC([H])([H])[C@@]1([H])N(C(=O)c2c([H])c(C(=O)N([H])S(=O)(=O)c3c([H])c([H])c4c([H])c([H])c([H])c(Cl)c4c3[H])c([H])c([H])c2-n2nc(C(=O)N(C([H])([H])C([H])([H])C([H])([H])C([H])([H])[H])C([H])([H])C([H])([H])C([H])([H])C([H])([H])[H])c(Cl)c2C([H])([H])[H])C([H])([H])c2c([H])c([H])c([H])c([H])c2C1([H])[H]


 57 62  0  0  0  0  0  0  0  0999 V2000
    1.9595    5.8513   12.4668 C   0  0  0  0  0  0  0  0  0  0  0  0
    1.9365    5.4169   13.7978 C   0  0  0  0  0  0  0  0  0  0  0  0
    2.5579    6.1148   14.8015 C   0  0  0  0  0  0  0  0  0  0  0  0
    3.2401    7.2887   14.5370 C   0  0  0  0  0  0  0  0  0  0  0  0
    3.2618    7.7172   13.2281 C   0  0  0  0  0  0  0  0  0  0  0  0
    2.6394    7.0206   12.2180 C   0  0  0  0  0  0  0  0  0  0  0  0
    2.7001    7.5532   10.8741 C   0  0  0  0  0  0  0  0  0  0  0  0
    1.7179    8.1523   10.3620 O   0  0  0  0  0  0  0  0  0  0  0  0
    3.8687    7.4324   10.0538 N   0  0  0  0  0  0  0  0  0  0  0  0
    4.9986    6.7130   10.6401 C   0  0  0  0  0  0  0  0  0  0  0  0
    5.7392    5.9819    9.5534 C   0  0  0  0  0  0  0  0  0  0  0  0
    6.2334    4.7187    9.7045 C   0  0  0  0  0  0  0  0  0  0  0  0
    6.9048    4.1114    8.6742 C   0  0  0  0  0  0  0  0  0  0  0  0
    7.0683    4.8048    7.4864 C   0  0  0  0  0  0  0  0  0  0  0  0
    6.5539    6.1017    7.3454 C   0  0  0  0  0  0  0  0  0  0  0  0
    5.8844    6.7067    8.3730 C   0  0  0  0  0  0  0  0  0  0  0  0
    5.3257    8.0717    8.2377 C   0  0  0  0  0  0  0  0  0  0  0  0
    3.8994    8.0086    8.7394 C   0  0  0  0  0  0  0  0  0  0  0  0
    3.0151    7.3107    7.7320 C   0  0  0  0  0  0  0  0  0  0  0  0
    2.0264    8.2271    7.3653 O   0  0  0  0  0  0  0  0  0  0  0  0
    1.1753    7.7686    7.2829 H   0  0  0  0  0  0  0  0  0  0  0  0
   -0.1571    4.3069   10.0235 C   0  0  0  0  0  0  0  0  0  0  0  0
    0.1435    5.2316   10.9230 N   0  0  0  0  0  0  0  0  0  0  0  0
    1.3250    5.0726   11.4717 N   0  0  0  0  0  0  0  0  0  0  0  0
    1.8642    3.9719   10.9127 C   0  0  0  0  0  0  0  0  0  0  0  0
    3.1903    3.3934   11.2489 C   0  0  0  0  0  0  0  0  0  0  0  0
    0.9624    3.4737   10.0042 C   0  0  0  0  0  0  0  0  0  0  0  0
    1.1513    2.0651    8.9904 Cl  0  0  0  0  0  0  0  0  0  0  0  0
   -1.7349    4.8186    8.0839 N   0  0  0  0  0  0  0  0  0  0  0  0
   -1.3727    4.1302    9.2508 C   0  0  0  0  0  0  0  0  0  0  0  0
   -2.2040    3.2537    9.6886 O   0  0  0  0  0  0  0  0  0  0  0  0
   -3.0430    4.4521    7.5141 C   0  0  0  0  0  0  0  0  0  0  0  0
   -3.0859    4.4896    6.0274 C   0  0  0  0  0  0  0  0  0  0  0  0
   -4.0850    5.7846    4.1342 C   0  0  0  0  0  0  0  0  0  0  0  0
   -4.2580    5.3702    5.5713 C   0  0  0  0  0  0  0  0  0  0  0  0
   -1.0013    5.8410    7.4060 C   0  0  0  0  0  0  0  0  0  0  0  0
   -1.2124    7.2346    7.9323 C   0  0  0  0  0  0  0  0  0  0  0  0
   -1.8100    8.0279    6.7605 C   0  0  0  0  0  0  0  0  0  0  0  0
   -1.1362    7.7249    5.4664 C   0  0  0  0  0  0  0  0  0  0  0  0
    3.9296    8.0375   15.5756 C   0  0  0  0  0  0  0  0  0  0  0  0
    5.1534    7.8856   15.7067 O   0  0  0  0  0  0  0  0  0  0  0  0
    3.2236    8.9110   16.4136 N   0  0  0  0  0  0  0  0  0  0  0  0
    2.1897    9.0223   16.2832 H   0  0  0  0  0  0  0  0  0  0  0  0
    3.9089    9.8526   17.6851 S   0  0  0  0  0  0  0  0  0  0  0  0
    2.8713   10.8816   18.0673 O   0  0  0  0  0  0  0  0  0  0  0  0
    5.1025   10.6001   17.1647 O   0  0  0  0  0  0  0  0  0  0  0  0
    4.3336    8.8862   19.0648 C   0  0  0  0  0  0  0  0  0  0  0  0
    4.8706    9.4348   20.2078 C   0  0  0  0  0  0  0  0  0  0  0  0
    5.1780    8.6636   21.3068 C   0  0  0  0  0  0  0  0  0  0  0  0
    4.9635    7.3088   21.3147 C   0  0  0  0  0  0  0  0  0  0  0  0
    5.2640    6.5425   22.4234 C   0  0  0  0  0  0  0  0  0  0  0  0
    5.0348    5.1802   22.4262 C   0  0  0  0  0  0  0  0  0  0  0  0
    4.4959    4.5754   21.3010 C   0  0  0  0  0  0  0  0  0  0  0  0
    4.2011    5.3515   20.2027 C   0  0  0  0  0  0  0  0  0  0  0  0
    3.5186    4.6211   18.7752 Cl  0  0  0  0  0  0  0  0  0  0  0  0
    4.4222    6.7206   20.1755 C   0  0  0  0  0  0  0  0  0  0  0  0
    4.1168    7.5029   19.0766 C   0  0  0  0  0  0  0  0  0  0  0  0
 34 35  1  0  0  0
 35 33  1  0  0  0
 33 32  1  0  0  0
 32 29  1  0  0  0
 29 36  1  0  0  0
 36 37  1  0  0  0
 37 38  1  0  0  0
 38 39  1  0  0  0
 29 30  1  0  0  0
 30 31  2  0  0  0
 30 22  1  0  0  0
 22 23  2  0  0  0
 23 24  1  0  0  0
 24 25  1  0  0  0
 25 26  1  0  0  0
 25 27  2  0  0  0
 27 28  1  0  0  0
 24  1  1  0  0  0
  1  2  2  0  0  0
  2  3  1  0  0  0
  3  4  2  0  0  0
  4  5  1  0  0  0
  5  6  2  0  0  0
  6  7  1  0  0  0
  7  8  2  0  0  0
  7  9  1  0  0  0
  9 10  1  0  0  0
 10 11  1  0  0  0
 11 12  2  0  0  0
 12 13  1  0  0  0
 13 14  2  0  0  0
 14 15  1  0  0  0
 15 16  2  0  0  0
 16 17  1  0  0  0
 17 18  1  0  0  0
 18 19  1  0  0  0
 19 20  1  0  0  0
  4 40  1  0  0  0
 40 41  2  0  0  0
 40 42  1  0  0  0
 42 44  1  0  0  0
 44 45  2  0  0  0
 44 46  2  0  0  0
 44 47  1  0  0  0
 47 48  2  0  0  0
 48 49  1  0  0  0
 49 50  2  0  0  0
 50 51  1  0  0  0
 51 52  2  0  0  0
 52 53  1  0  0  0
 53 54  2  0  0  0
 54 55  1  0  0  0
 54 56  1  0  0  0
 56 57  2  0  0  0
 27 22  1  0  0  0
  6  1  1  0  0  0
 18  9  1  0  0  0
 57 47  1  0  0  0
 16 11  1  0  0  0
 56 50  1  0  0  0
 20 21  1  0  0  0
 42 43  1  0  0  0
M  END
> <minimizedAffinity>
-7.29015

> <CNNscore>
0.0843712091

> <CNNaffinity>
6.4378418922

> <CNN_VS>
0.5431684852

> <CNNaffinity_variance>
0.4867399633

$$$$
[H]OC([H])([H])[C@@]1([H])N(C(=O)c2c([H])c(C(=O)N([H])S(=O)(=O)c3c([H])c([H])c4c([H])c([H])c([H])c(Cl)c4c3[H])c([H])c([H])c2-n2nc(C(=O)N(C([H])([H])C([H])([H])C([H])([H])C([H])([H])[H])C([H])([H])C([H])([H])C([H])([H])C([H])([H])[H])c(Cl)c2C([H])([H])[H])C([H])([H])c2c([H])c([H])c([H])c([H])c2C1([H])[H]


 57 62  0  0  0  0  0  0  0  0999 V2000
    2.3602    3.8286   12.9763 C   0  0  0  0  0  0  0  0  0  0  0  0
    2.3578    2.9853   14.0941 C   0  0  0  0  0  0  0  0  0  0  0  0
    2.5463    3.4626   15.3658 C   0  0  0  0  0  0  0  0  0  0  0  0
    2.7489    4.8110   15.5984 C   0  0  0  0  0  0  0  0  0  0  0  0
    2.7500    5.6413   14.4993 C   0  0  0  0  0  0  0  0  0  0  0  0
    2.5608    5.1669   13.2217 C   0  0  0  0  0  0  0  0  0  0  0  0
    2.5615    6.1135   12.1275 C   0  0  0  0  0  0  0  0  0  0  0  0
    1.5301    6.7725   11.8309 O   0  0  0  0  0  0  0  0  0  0  0  0
    3.7230    6.3557   11.3242 N   0  0  0  0  0  0  0  0  0  0  0  0
    4.9116    5.5701   11.6529 C   0  0  0  0  0  0  0  0  0  0  0  0
    5.6871    5.2928   10.3936 C   0  0  0  0  0  0  0  0  0  0  0  0
    6.2750    4.0904   10.1267 C   0  0  0  0  0  0  0  0  0  0  0  0
    6.9733    3.9061    8.9607 C   0  0  0  0  0  0  0  0  0  0  0  0
    7.0670    4.9607    8.0676 C   0  0  0  0  0  0  0  0  0  0  0  0
    6.4566    6.1900    8.3550 C   0  0  0  0  0  0  0  0  0  0  0  0
    5.7604    6.3731    9.5177 C   0  0  0  0  0  0  0  0  0  0  0  0
    5.1009    7.6615    9.8323 C   0  0  0  0  0  0  0  0  0  0  0  0
    3.6911    7.3314   10.2719 C   0  0  0  0  0  0  0  0  0  0  0  0
    2.8449    6.9385    9.0829 C   0  0  0  0  0  0  0  0  0  0  0  0
    1.7468    7.8020    9.0708 O   0  0  0  0  0  0  0  0  0  0  0  0
    0.9481    7.3060    8.8311 H   0  0  0  0  0  0  0  0  0  0  0  0
    2.5839    2.2860    9.7506 C   0  0  0  0  0  0  0  0  0  0  0  0
    3.0727    2.6833   10.9158 N   0  0  0  0  0  0  0  0  0  0  0  0
    2.1899    3.2727   11.6874 N   0  0  0  0  0  0  0  0  0  0  0  0
    1.0270    3.2783   11.0076 C   0  0  0  0  0  0  0  0  0  0  0  0
   -0.2498    3.8688   11.4844 C   0  0  0  0  0  0  0  0  0  0  0  0
    1.2423    2.6680    9.7959 C   0  0  0  0  0  0  0  0  0  0  0  0
    0.0750    2.3965    8.5265 Cl  0  0  0  0  0  0  0  0  0  0  0  0
    3.8139    2.2781    7.5144 N   0  0  0  0  0  0  0  0  0  0  0  0
    3.2574    1.6459    8.6359 C   0  0  0  0  0  0  0  0  0  0  0  0
    3.3462    0.3650    8.6830 O   0  0  0  0  0  0  0  0  0  0  0  0
    4.4220    1.3786    6.5189 C   0  0  0  0  0  0  0  0  0  0  0  0
    5.9057    1.3030    6.6002 C   0  0  0  0  0  0  0  0  0  0  0  0
    7.8289    2.4573    5.4919 C   0  0  0  0  0  0  0  0  0  0  0  0
    6.5152    1.7575    5.2662 C   0  0  0  0  0  0  0  0  0  0  0  0
    3.8360    3.6760    7.2174 C   0  0  0  0  0  0  0  0  0  0  0  0
    3.4914    4.0328    5.7969 C   0  0  0  0  0  0  0  0  0  0  0  0
    4.1492    5.3982    5.5473 C   0  0  0  0  0  0  0  0  0  0  0  0
    5.3762    5.2934    4.7083 C   0  0  0  0  0  0  0  0  0  0  0  0
    2.9763    5.3439   16.9324 C   0  0  0  0  0  0  0  0  0  0  0  0
    2.0663    5.2595   17.7706 O   0  0  0  0  0  0  0  0  0  0  0  0
    4.1991    5.9436   17.2622 N   0  0  0  0  0  0  0  0  0  0  0  0
    4.9528    6.0031   16.5364 H   0  0  0  0  0  0  0  0  0  0  0  0
    4.6016    6.6206   18.7959 S   0  0  0  0  0  0  0  0  0  0  0  0
    3.6565    7.7779   19.0181 O   0  0  0  0  0  0  0  0  0  0  0  0
    5.9906    7.1879   18.7418 O   0  0  0  0  0  0  0  0  0  0  0  0
    4.4514    5.4660   20.0852 C   0  0  0  0  0  0  0  0  0  0  0  0
    4.3435    5.8480   21.4037 C   0  0  0  0  0  0  0  0  0  0  0  0
    4.1968    4.9257   22.4159 C   0  0  0  0  0  0  0  0  0  0  0  0
    4.1514    3.5792   22.1582 C   0  0  0  0  0  0  0  0  0  0  0  0
    3.9935    2.6600   23.1764 C   0  0  0  0  0  0  0  0  0  0  0  0
    3.9382    1.3062   22.9062 C   0  0  0  0  0  0  0  0  0  0  0  0
    4.0424    0.8659   21.5958 C   0  0  0  0  0  0  0  0  0  0  0  0
    4.1994    1.7935   20.5905 C   0  0  0  0  0  0  0  0  0  0  0  0
    4.3286    1.2713   18.9329 Cl  0  0  0  0  0  0  0  0  0  0  0  0
    4.2580    3.1573   20.8363 C   0  0  0  0  0  0  0  0  0  0  0  0
    4.4053    4.0907   19.8263 C   0  0  0  0  0  0  0  0  0  0  0  0
 34 35  1  0  0  0
 35 33  1  0  0  0
 33 32  1  0  0  0
 32 29  1  0  0  0
 29 36  1  0  0  0
 36 37  1  0  0  0
 37 38  1  0  0  0
 38 39  1  0  0  0
 29 30  1  0  0  0
 30 31  2  0  0  0
 30 22  1  0  0  0
 22 23  2  0  0  0
 23 24  1  0  0  0
 24 25  1  0  0  0
 25 26  1  0  0  0
 25 27  2  0  0  0
 27 28  1  0  0  0
 24  1  1  0  0  0
  1  2  2  0  0  0
  2  3  1  0  0  0
  3  4  2  0  0  0
  4  5  1  0  0  0
  5  6  2  0  0  0
  6  7  1  0  0  0
  7  8  2  0  0  0
  7  9  1  0  0  0
  9 10  1  0  0  0
 10 11  1  0  0  0
 11 12  2  0  0  0
 12 13  1  0  0  0
 13 14  2  0  0  0
 14 15  1  0  0  0
 15 16  2  0  0  0
 16 17  1  0  0  0
 17 18  1  0  0  0
 18 19  1  0  0  0
 19 20  1  0  0  0
  4 40  1  0  0  0
 40 41  2  0  0  0
 40 42  1  0  0  0
 42 44  1  0  0  0
 44 45  2  0  0  0
 44 46  2  0  0  0
 44 47  1  0  0  0
 47 48  2  0  0  0
 48 49  1  0  0  0
 49 50  2  0  0  0
 50 51  1  0  0  0
 51 52  2  0  0  0
 52 53  1  0  0  0
 53 54  2  0  0  0
 54 55  1  0  0  0
 54 56  1  0  0  0
 56 57  2  0  0  0
 27 22  1  0  0  0
  6  1  1  0  0  0
 18  9  1  0  0  0
 57 47  1  0  0  0
 16 11  1  0  0  0
 56 50  1  0  0  0
 20 21  1  0  0  0
 42 43  1  0  0  0
M  END
> <minimizedAffinity>
-7.78562

> <CNNscore>
0.0811801851

> <CNNaffinity>
6.9604988098

> <CNN_VS>
0.5650545955

> <CNNaffinity_variance>
0.3188095987

$$$$
[H]OC([H])([H])[C@@]1([H])N(C(=O)c2c([H])c(C(=O)N([H])S(=O)(=O)c3c([H])c([H])c4c([H])c([H])c([H])c(Cl)c4c3[H])c([H])c([H])c2-n2nc(C(=O)N(C([H])([H])C([H])([H])C([H])([H])C([H])([H])[H])C([H])([H])C([H])([H])C([H])([H])C([H])([H])[H])c(Cl)c2C([H])([H])[H])C([H])([H])c2c([H])c([H])c([H])c([H])c2C1([H])[H]


 57 62  0  0  0  0  0  0  0  0999 V2000
    2.2011    4.7406   11.5767 C   0  0  0  0  0  0  0  0  0  0  0  0
    1.4648    4.1057   12.5843 C   0  0  0  0  0  0  0  0  0  0  0  0
    1.7902    4.2294   13.9108 C   0  0  0  0  0  0  0  0  0  0  0  0
    2.8707    4.9944   14.3114 C   0  0  0  0  0  0  0  0  0  0  0  0
    3.5946    5.6204   13.3207 C   0  0  0  0  0  0  0  0  0  0  0  0
    3.2715    5.4995   11.9887 C   0  0  0  0  0  0  0  0  0  0  0  0
    4.0780    6.2052   11.0167 C   0  0  0  0  0  0  0  0  0  0  0  0
    3.8250    7.3968   10.6970 O   0  0  0  0  0  0  0  0  0  0  0  0
    5.2010    5.5977   10.3665 N   0  0  0  0  0  0  0  0  0  0  0  0
    5.4770    4.2057   10.7190 C   0  0  0  0  0  0  0  0  0  0  0  0
    6.0396    3.4923    9.5196 C   0  0  0  0  0  0  0  0  0  0  0  0
    5.6909    2.2184    9.1755 C   0  0  0  0  0  0  0  0  0  0  0  0
    6.2467    1.6240    8.0714 C   0  0  0  0  0  0  0  0  0  0  0  0
    7.1628    2.3413    7.3200 C   0  0  0  0  0  0  0  0  0  0  0  0
    7.5104    3.6498    7.6852 C   0  0  0  0  0  0  0  0  0  0  0  0
    6.9559    4.2420    8.7861 C   0  0  0  0  0  0  0  0  0  0  0  0
    7.3038    5.6267    9.1801 C   0  0  0  0  0  0  0  0  0  0  0  0
    5.9974    6.3464    9.4360 C   0  0  0  0  0  0  0  0  0  0  0  0
    5.3021    6.6597    8.1313 C   0  0  0  0  0  0  0  0  0  0  0  0
    5.1231    8.0448    8.0961 O   0  0  0  0  0  0  0  0  0  0  0  0
    4.2503    8.2485    7.7244 H   0  0  0  0  0  0  0  0  0  0  0  0
    1.7177    3.7611    8.1647 C   0  0  0  0  0  0  0  0  0  0  0  0
    2.2586    3.6511    9.3688 N   0  0  0  0  0  0  0  0  0  0  0  0
    1.8338    4.5507   10.2246 N   0  0  0  0  0  0  0  0  0  0  0  0
    0.9486    5.3224    9.5644 C   0  0  0  0  0  0  0  0  0  0  0  0
    0.2283    6.4905   10.1326 C   0  0  0  0  0  0  0  0  0  0  0  0
    0.8550    4.8523    8.2771 C   0  0  0  0  0  0  0  0  0  0  0  0
   -0.1520    5.4756    6.9945 Cl  0  0  0  0  0  0  0  0  0  0  0  0
    1.7282    1.6157    6.7823 N   0  0  0  0  0  0  0  0  0  0  0  0
    1.9694    2.9853    6.9644 C   0  0  0  0  0  0  0  0  0  0  0  0
    2.4710    3.6231    5.9681 O   0  0  0  0  0  0  0  0  0  0  0  0
    2.0991    1.0788    5.4616 C   0  0  0  0  0  0  0  0  0  0  0  0
    1.0017    0.3403    4.7803 C   0  0  0  0  0  0  0  0  0  0  0  0
    0.8276   -2.1225    5.1852 C   0  0  0  0  0  0  0  0  0  0  0  0
    1.5008   -1.0520    4.3681 C   0  0  0  0  0  0  0  0  0  0  0  0
    1.1940    0.6866    7.7280 C   0  0  0  0  0  0  0  0  0  0  0  0
    2.1662    0.2068    8.7713 C   0  0  0  0  0  0  0  0  0  0  0  0
    2.5073   -1.2384    8.3782 C   0  0  0  0  0  0  0  0  0  0  0  0
    1.6324   -2.2344    9.0587 C   0  0  0  0  0  0  0  0  0  0  0  0
    3.2555    5.1246   15.7078 C   0  0  0  0  0  0  0  0  0  0  0  0
    2.3644    5.1829   16.5683 O   0  0  0  0  0  0  0  0  0  0  0  0
    4.6071    5.1863   16.0727 N   0  0  0  0  0  0  0  0  0  0  0  0
    5.3419    5.1352   15.3271 H   0  0  0  0  0  0  0  0  0  0  0  0
    5.2041    5.3467   17.6823 S   0  0  0  0  0  0  0  0  0  0  0  0
    4.5948    6.6093   18.2446 O   0  0  0  0  0  0  0  0  0  0  0  0
    6.6910    5.5517   17.6447 O   0  0  0  0  0  0  0  0  0  0  0  0
    4.7893    3.9844   18.6772 C   0  0  0  0  0  0  0  0  0  0  0  0
    4.6465    2.7155   18.1619 C   0  0  0  0  0  0  0  0  0  0  0  0
    4.3449    1.6372   18.9637 C   0  0  0  0  0  0  0  0  0  0  0  0
    4.1716    1.7763   20.3174 C   0  0  0  0  0  0  0  0  0  0  0  0
    3.8796    0.6895   21.1175 C   0  0  0  0  0  0  0  0  0  0  0  0
    3.7172    0.8374   22.4815 C   0  0  0  0  0  0  0  0  0  0  0  0
    3.8495    2.0934   23.0534 C   0  0  0  0  0  0  0  0  0  0  0  0
    4.1408    3.1681   22.2437 C   0  0  0  0  0  0  0  0  0  0  0  0
    4.3178    4.7586   22.9337 Cl  0  0  0  0  0  0  0  0  0  0  0  0
    4.3081    3.0452   20.8722 C   0  0  0  0  0  0  0  0  0  0  0  0
    4.6111    4.1224   20.0592 C   0  0  0  0  0  0  0  0  0  0  0  0
 34 35  1  0  0  0
 35 33  1  0  0  0
 33 32  1  0  0  0
 32 29  1  0  0  0
 29 36  1  0  0  0
 36 37  1  0  0  0
 37 38  1  0  0  0
 38 39  1  0  0  0
 29 30  1  0  0  0
 30 31  2  0  0  0
 30 22  1  0  0  0
 22 23  2  0  0  0
 23 24  1  0  0  0
 24 25  1  0  0  0
 25 26  1  0  0  0
 25 27  2  0  0  0
 27 28  1  0  0  0
 24  1  1  0  0  0
  1  2  2  0  0  0
  2  3  1  0  0  0
  3  4  2  0  0  0
  4  5  1  0  0  0
  5  6  2  0  0  0
  6  7  1  0  0  0
  7  8  2  0  0  0
  7  9  1  0  0  0
  9 10  1  0  0  0
 10 11  1  0  0  0
 11 12  2  0  0  0
 12 13  1  0  0  0
 13 14  2  0  0  0
 14 15  1  0  0  0
 15 16  2  0  0  0
 16 17  1  0  0  0
 17 18  1  0  0  0
 18 19  1  0  0  0
 19 20  1  0  0  0
  4 40  1  0  0  0
 40 41  2  0  0  0
 40 42  1  0  0  0
 42 44  1  0  0  0
 44 45  2  0  0  0
 44 46  2  0  0  0
 44 47  1  0  0  0
 47 48  2  0  0  0
 48 49  1  0  0  0
 49 50  2  0  0  0
 50 51  1  0  0  0
 51 52  2  0  0  0
 52 53  1  0  0  0
 53 54  2  0  0  0
 54 55  1  0  0  0
 54 56  1  0  0  0
 56 57  2  0  0  0
 27 22  1  0  0  0
  6  1  1  0  0  0
 18  9  1  0  0  0
 57 47  1  0  0  0
 16 11  1  0  0  0
 56 50  1  0  0  0
 20 21  1  0  0  0
 42 43  1  0  0  0
M  END
> <minimizedAffinity>
-7.42720

> <CNNscore>
0.0611237884

> <CNNaffinity>
7.0095801353

> <CNN_VS>
0.4284521043

> <CNNaffinity_variance>
0.1288785040

$$$$
[H]OC([H])([H])[C@@]1([H])N(C(=O)c2c([H])c(C(=O)N([H])S(=O)(=O)c3c([H])c([H])c4c([H])c([H])c([H])c(Cl)c4c3[H])c([H])c([H])c2-n2nc(C(=O)N(C([H])([H])C([H])([H])C([H])([H])C([H])([H])[H])C([H])([H])C([H])([H])C([H])([H])C([H])([H])[H])c(Cl)c2C([H])([H])[H])C([H])([H])c2c([H])c([H])c([H])c([H])c2C1([H])[H]


 57 62  0  0  0  0  0  0  0  0999 V2000
    1.8222    3.0758   13.7627 C   0  0  0  0  0  0  0  0  0  0  0  0
    1.7659    1.8544   14.4452 C   0  0  0  0  0  0  0  0  0  0  0  0
    2.4690    1.6346   15.6020 C   0  0  0  0  0  0  0  0  0  0  0  0
    3.2710    2.6210   16.1472 C   0  0  0  0  0  0  0  0  0  0  0  0
    3.3256    3.8231   15.4769 C   0  0  0  0  0  0  0  0  0  0  0  0
    2.6216    4.0483   14.3163 C   0  0  0  0  0  0  0  0  0  0  0  0
    2.7258    5.3472   13.6877 C   0  0  0  0  0  0  0  0  0  0  0  0
    1.9425    6.2859   13.9900 O   0  0  0  0  0  0  0  0  0  0  0  0
    3.7155    5.6407   12.6941 N   0  0  0  0  0  0  0  0  0  0  0  0
    4.6067    4.5418   12.3249 C   0  0  0  0  0  0  0  0  0  0  0  0
    4.9743    4.6679   10.8713 C   0  0  0  0  0  0  0  0  0  0  0  0
    5.0530    3.6006   10.0244 C   0  0  0  0  0  0  0  0  0  0  0  0
    5.3998    3.7850    8.7103 C   0  0  0  0  0  0  0  0  0  0  0  0
    5.6663    5.0698    8.2667 C   0  0  0  0  0  0  0  0  0  0  0  0
    5.5802    6.1569    9.1482 C   0  0  0  0  0  0  0  0  0  0  0  0
    5.2342    5.9724   10.4583 C   0  0  0  0  0  0  0  0  0  0  0  0
    5.1285    7.1104   11.4004 C   0  0  0  0  0  0  0  0  0  0  0  0
    3.8080    6.9544   12.1229 C   0  0  0  0  0  0  0  0  0  0  0  0
    2.6598    7.3197   11.2107 C   0  0  0  0  0  0  0  0  0  0  0  0
    2.4450    8.6912   11.3679 O   0  0  0  0  0  0  0  0  0  0  0  0
    1.4915    8.8705   11.3730 H   0  0  0  0  0  0  0  0  0  0  0  0
   -0.3973    3.8876   11.0702 C   0  0  0  0  0  0  0  0  0  0  0  0
    0.0535    3.9876   12.3117 N   0  0  0  0  0  0  0  0  0  0  0  0
    1.0975    3.2317   12.5587 N   0  0  0  0  0  0  0  0  0  0  0  0
    1.3766    2.5753   11.4159 C   0  0  0  0  0  0  0  0  0  0  0  0
    2.4684    1.5850   11.2329 C   0  0  0  0  0  0  0  0  0  0  0  0
    0.4609    2.9656   10.4692 C   0  0  0  0  0  0  0  0  0  0  0  0
    0.3636    2.4331    8.8096 Cl  0  0  0  0  0  0  0  0  0  0  0  0
   -1.5221    5.4208    9.3680 N   0  0  0  0  0  0  0  0  0  0  0  0
   -1.5422    4.5271   10.4486 C   0  0  0  0  0  0  0  0  0  0  0  0
   -2.6925    4.2462   10.9476 O   0  0  0  0  0  0  0  0  0  0  0  0
   -2.8371    5.9373    8.9507 C   0  0  0  0  0  0  0  0  0  0  0  0
   -3.4022    5.2549    7.7554 C   0  0  0  0  0  0  0  0  0  0  0  0
   -4.2258    7.5664    7.2670 C   0  0  0  0  0  0  0  0  0  0  0  0
   -4.5482    6.0984    7.1786 C   0  0  0  0  0  0  0  0  0  0  0  0
   -0.3840    5.9022    8.6498 C   0  0  0  0  0  0  0  0  0  0  0  0
   -0.5948    7.1962    7.9117 C   0  0  0  0  0  0  0  0  0  0  0  0
   -0.2144    6.9016    6.4531 C   0  0  0  0  0  0  0  0  0  0  0  0
    1.0531    6.1258    6.3416 C   0  0  0  0  0  0  0  0  0  0  0  0
    4.0477    2.4097   17.3584 C   0  0  0  0  0  0  0  0  0  0  0  0
    5.2853    2.4385   17.2850 O   0  0  0  0  0  0  0  0  0  0  0  0
    3.4092    2.1749   18.5835 N   0  0  0  0  0  0  0  0  0  0  0  0
    2.3620    2.1551   18.6199 H   0  0  0  0  0  0  0  0  0  0  0  0
    4.2017    1.9025   20.0904 S   0  0  0  0  0  0  0  0  0  0  0  0
    5.3469    0.9580   19.8110 O   0  0  0  0  0  0  0  0  0  0  0  0
    3.2641    1.1962   21.0265 O   0  0  0  0  0  0  0  0  0  0  0  0
    4.7951    3.3740   20.7978 C   0  0  0  0  0  0  0  0  0  0  0  0
    4.6868    3.6364   22.1451 C   0  0  0  0  0  0  0  0  0  0  0  0
    5.1855    4.7937   22.7007 C   0  0  0  0  0  0  0  0  0  0  0  0
    5.8152    5.7427   21.9361 C   0  0  0  0  0  0  0  0  0  0  0  0
    6.3224    6.8962   22.5006 C   0  0  0  0  0  0  0  0  0  0  0  0
    6.9646    7.8416   21.7243 C   0  0  0  0  0  0  0  0  0  0  0  0
    7.1011    7.6285   20.3612 C   0  0  0  0  0  0  0  0  0  0  0  0
    6.5907    6.4740   19.8118 C   0  0  0  0  0  0  0  0  0  0  0  0
    6.7508    6.1755   18.1023 Cl  0  0  0  0  0  0  0  0  0  0  0  0
    5.9420    5.5103   20.5698 C   0  0  0  0  0  0  0  0  0  0  0  0
    5.4379    4.3453   20.0207 C   0  0  0  0  0  0  0  0  0  0  0  0
 34 35  1  0  0  0
 35 33  1  0  0  0
 33 32  1  0  0  0
 32 29  1  0  0  0
 29 36  1  0  0  0
 36 37  1  0  0  0
 37 38  1  0  0  0
 38 39  1  0  0  0
 29 30  1  0  0  0
 30 31  2  0  0  0
 30 22  1  0  0  0
 22 23  2  0  0  0
 23 24  1  0  0  0
 24 25  1  0  0  0
 25 26  1  0  0  0
 25 27  2  0  0  0
 27 28  1  0  0  0
 24  1  1  0  0  0
  1  2  2  0  0  0
  2  3  1  0  0  0
  3  4  2  0  0  0
  4  5  1  0  0  0
  5  6  2  0  0  0
  6  7  1  0  0  0
  7  8  2  0  0  0
  7  9  1  0  0  0
  9 10  1  0  0  0
 10 11  1  0  0  0
 11 12  2  0  0  0
 12 13  1  0  0  0
 13 14  2  0  0  0
 14 15  1  0  0  0
 15 16  2  0  0  0
 16 17  1  0  0  0
 17 18  1  0  0  0
 18 19  1  0  0  0
 19 20  1  0  0  0
  4 40  1  0  0  0
 40 41  2  0  0  0
 40 42  1  0  0  0
 42 44  1  0  0  0
 44 45  2  0  0  0
 44 46  2  0  0  0
 44 47  1  0  0  0
 47 48  2  0  0  0
 48 49  1  0  0  0
 49 50  2  0  0  0
 50 51  1  0  0  0
 51 52  2  0  0  0
 52 53  1  0  0  0
 53 54  2  0  0  0
 54 55  1  0  0  0
 54 56  1  0  0  0
 56 57  2  0  0  0
 27 22  1  0  0  0
  6  1  1  0  0  0
 18  9  1  0  0  0
 57 47  1  0  0  0
 16 11  1  0  0  0
 56 50  1  0  0  0
 20 21  1  0  0  0
 42 43  1  0  0  0
M  END
> <minimizedAffinity>
-7.92538

> <CNNscore>
0.0542287827

> <CNNaffinity>
7.0225410461

> <CNN_VS>
0.3808238506

> <CNNaffinity_variance>
0.3709748387

$$$$
[H]OC([H])([H])[C@@]1([H])N(C(=O)c2c([H])c(C(=O)N([H])S(=O)(=O)c3c([H])c([H])c4c([H])c([H])c([H])c(Cl)c4c3[H])c([H])c([H])c2-n2nc(C(=O)N(C([H])([H])C([H])([H])C([H])([H])C([H])([H])[H])C([H])([H])C([H])([H])C([H])([H])C([H])([H])[H])c(Cl)c2C([H])([H])[H])C([H])([H])c2c([H])c([H])c([H])c([H])c2C1([H])[H]


 57 62  0  0  0  0  0  0  0  0999 V2000
    3.0208    3.6318   13.0610 C   0  0  0  0  0  0  0  0  0  0  0  0
    3.6936    2.9939   14.1103 C   0  0  0  0  0  0  0  0  0  0  0  0
    3.7485    3.5299   15.3715 C   0  0  0  0  0  0  0  0  0  0  0  0
    3.1351    4.7354   15.6611 C   0  0  0  0  0  0  0  0  0  0  0  0
    2.4720    5.3626   14.6294 C   0  0  0  0  0  0  0  0  0  0  0  0
    2.4139    4.8284   13.3628 C   0  0  0  0  0  0  0  0  0  0  0  0
    1.6815    5.5484   12.3437 C   0  0  0  0  0  0  0  0  0  0  0  0
    0.4367    5.4107   12.2112 O   0  0  0  0  0  0  0  0  0  0  0  0
    2.3212    6.4516   11.4337 N   0  0  0  0  0  0  0  0  0  0  0  0
    3.7704    6.5896   11.5716 C   0  0  0  0  0  0  0  0  0  0  0  0
    4.3762    6.8387   10.2171 C   0  0  0  0  0  0  0  0  0  0  0  0
    5.5438    6.2657    9.8031 C   0  0  0  0  0  0  0  0  0  0  0  0
    6.0445    6.5405    8.5561 C   0  0  0  0  0  0  0  0  0  0  0  0
    5.3429    7.4062    7.7335 C   0  0  0  0  0  0  0  0  0  0  0  0
    4.1439    7.9863    8.1720 C   0  0  0  0  0  0  0  0  0  0  0  0
    3.6451    7.7120    9.4154 C   0  0  0  0  0  0  0  0  0  0  0  0
    2.3751    8.3078    9.8906 C   0  0  0  0  0  0  0  0  0  0  0  0
    1.5510    7.1745   10.4618 C   0  0  0  0  0  0  0  0  0  0  0  0
    0.9875    6.3185    9.3511 C   0  0  0  0  0  0  0  0  0  0  0  0
    0.0445    7.1022    8.6815 O   0  0  0  0  0  0  0  0  0  0  0  0
   -0.7242    6.5568    8.4514 H   0  0  0  0  0  0  0  0  0  0  0  0
    3.5532    2.5447    9.6891 C   0  0  0  0  0  0  0  0  0  0  0  0
    3.8392    3.2570   10.7686 N   0  0  0  0  0  0  0  0  0  0  0  0
    3.0247    3.0435   11.7752 N   0  0  0  0  0  0  0  0  0  0  0  0
    2.1275    2.1296   11.3575 C   0  0  0  0  0  0  0  0  0  0  0  0
    0.9947    1.6014   12.1599 C   0  0  0  0  0  0  0  0  0  0  0  0
    2.4333    1.7989   10.0598 C   0  0  0  0  0  0  0  0  0  0  0  0
    1.6012    0.6558    9.0357 Cl  0  0  0  0  0  0  0  0  0  0  0  0
    5.2292    1.7001    7.9596 N   0  0  0  0  0  0  0  0  0  0  0  0
    4.1932    2.5434    8.3866 C   0  0  0  0  0  0  0  0  0  0  0  0
    3.7663    3.4115    7.5409 O   0  0  0  0  0  0  0  0  0  0  0  0
    5.7074    1.9322    6.5857 C   0  0  0  0  0  0  0  0  0  0  0  0
    7.1807    2.1118    6.4815 C   0  0  0  0  0  0  0  0  0  0  0  0
    8.8885    3.3901    7.7887 C   0  0  0  0  0  0  0  0  0  0  0  0
    7.5722    3.4777    7.0633 C   0  0  0  0  0  0  0  0  0  0  0  0
    5.8842    0.6704    8.7038 C   0  0  0  0  0  0  0  0  0  0  0  0
    5.3627   -0.7206    8.4652 C   0  0  0  0  0  0  0  0  0  0  0  0
    4.6493   -1.1184    9.7659 C   0  0  0  0  0  0  0  0  0  0  0  0
    3.8737   -2.3830    9.6252 C   0  0  0  0  0  0  0  0  0  0  0  0
    3.1968    5.3412   16.9818 C   0  0  0  0  0  0  0  0  0  0  0  0
    2.1873    5.3055   17.7012 O   0  0  0  0  0  0  0  0  0  0  0  0
    4.3734    5.9558   17.4306 N   0  0  0  0  0  0  0  0  0  0  0  0
    5.2134    5.9732   16.8040 H   0  0  0  0  0  0  0  0  0  0  0  0
    4.5848    6.7162   18.9635 S   0  0  0  0  0  0  0  0  0  0  0  0
    3.4884    7.7478   19.0882 O   0  0  0  0  0  0  0  0  0  0  0  0
    5.8915    7.4554   18.9777 O   0  0  0  0  0  0  0  0  0  0  0  0
    4.4968    5.5838   20.2780 C   0  0  0  0  0  0  0  0  0  0  0  0
    4.4659    5.9878   21.5939 C   0  0  0  0  0  0  0  0  0  0  0  0
    4.3679    5.0833   22.6279 C   0  0  0  0  0  0  0  0  0  0  0  0
    4.2966    3.7333   22.3952 C   0  0  0  0  0  0  0  0  0  0  0  0
    4.1879    2.8320   23.4356 C   0  0  0  0  0  0  0  0  0  0  0  0
    4.1058    1.4747   23.1913 C   0  0  0  0  0  0  0  0  0  0  0  0
    4.1330    1.0125   21.8845 C   0  0  0  0  0  0  0  0  0  0  0  0
    4.2416    1.9223   20.8570 C   0  0  0  0  0  0  0  0  0  0  0  0
    4.2736    1.3725   19.2036 Cl  0  0  0  0  0  0  0  0  0  0  0  0
    4.3257    3.2894   21.0766 C   0  0  0  0  0  0  0  0  0  0  0  0
    4.4244    4.2050   20.0447 C   0  0  0  0  0  0  0  0  0  0  0  0
 34 35  1  0  0  0
 35 33  1  0  0  0
 33 32  1  0  0  0
 32 29  1  0  0  0
 29 36  1  0  0  0
 36 37  1  0  0  0
 37 38  1  0  0  0
 38 39  1  0  0  0
 29 30  1  0  0  0
 30 31  2  0  0  0
 30 22  1  0  0  0
 22 23  2  0  0  0
 23 24  1  0  0  0
 24 25  1  0  0  0
 25 26  1  0  0  0
 25 27  2  0  0  0
 27 28  1  0  0  0
 24  1  1  0  0  0
  1  2  2  0  0  0
  2  3  1  0  0  0
  3  4  2  0  0  0
  4  5  1  0  0  0
  5  6  2  0  0  0
  6  7  1  0  0  0
  7  8  2  0  0  0
  7  9  1  0  0  0
  9 10  1  0  0  0
 10 11  1  0  0  0
 11 12  2  0  0  0
 12 13  1  0  0  0
 13 14  2  0  0  0
 14 15  1  0  0  0
 15 16  2  0  0  0
 16 17  1  0  0  0
 17 18  1  0  0  0
 18 19  1  0  0  0
 19 20  1  0  0  0
  4 40  1  0  0  0
 40 41  2  0  0  0
 40 42  1  0  0  0
 42 44  1  0  0  0
 44 45  2  0  0  0
 44 46  2  0  0  0
 44 47  1  0  0  0
 47 48  2  0  0  0
 48 49  1  0  0  0
 49 50  2  0  0  0
 50 51  1  0  0  0
 51 52  2  0  0  0
 52 53  1  0  0  0
 53 54  2  0  0  0
 54 55  1  0  0  0
 54 56  1  0  0  0
 56 57  2  0  0  0
 27 22  1  0  0  0
  6  1  1  0  0  0
 18  9  1  0  0  0
 57 47  1  0  0  0
 16 11  1  0  0  0
 56 50  1  0  0  0
 20 21  1  0  0  0
 42 43  1  0  0  0
M  END
> <minimizedAffinity>
-8.81333

> <CNNscore>
0.0488590561

> <CNNaffinity>
7.0079088211

> <CNN_VS>
0.3423998058

> <CNNaffinity_variance>
0.4769235551

$$$$
[H]c1c([H])c(S(=O)(=O)N2C([H])([H])C([H])([H])N(C([H])([H])c3c([H])c([H])c([N+](=O)[O-])c([H])c3[H])C([H])([H])C2([H])[H])c([H])c([H])c1Br


 26 28  0  0  0  0  0  0  0  0999 V2000
    4.9443    5.5573   20.2577 N   0  0  0  0  0  0  0  0  0  0  0  0
    6.0669    5.6994   21.0942 C   0  0  0  0  0  0  0  0  0  0  0  0
    5.7853    5.6943   22.5721 C   0  0  0  0  0  0  0  0  0  0  0  0
    4.8034    4.7439   22.9855 N   0  0  0  0  0  0  0  0  0  0  0  0
    3.6099    4.9396   22.2447 C   0  0  0  0  0  0  0  0  0  0  0  0
    3.7544    5.0164   20.7772 C   0  0  0  0  0  0  0  0  0  0  0  0
    5.4013    3.1371   22.9437 S   0  0  0  0  0  0  0  0  0  0  0  0
    5.2381    2.5368   24.3109 O   0  0  0  0  0  0  0  0  0  0  0  0
    6.8871    3.1426   22.6575 O   0  0  0  0  0  0  0  0  0  0  0  0
    4.6306    2.1792   21.7038 C   0  0  0  0  0  0  0  0  0  0  0  0
    3.5213    1.4040   21.9730 C   0  0  0  0  0  0  0  0  0  0  0  0
    2.9039    0.6423   20.9969 C   0  0  0  0  0  0  0  0  0  0  0  0
    3.3809    0.6299   19.7025 C   0  0  0  0  0  0  0  0  0  0  0  0
    2.5282   -0.4230   18.3497 Br  0  0  0  0  0  0  0  0  0  0  0  0
    4.4892    1.4001   19.4191 C   0  0  0  0  0  0  0  0  0  0  0  0
    5.0973    2.1559   20.3994 C   0  0  0  0  0  0  0  0  0  0  0  0
    4.8234    6.4715   19.1753 C   0  0  0  0  0  0  0  0  0  0  0  0
    4.0395    4.2695   15.5453 C   0  0  0  0  0  0  0  0  0  0  0  0
    3.3616    5.4298   15.8508 C   0  0  0  0  0  0  0  0  0  0  0  0
    3.5959    6.1499   17.0018 C   0  0  0  0  0  0  0  0  0  0  0  0
    4.5412    5.7228   17.9107 C   0  0  0  0  0  0  0  0  0  0  0  0
    5.2292    4.5515   17.6075 C   0  0  0  0  0  0  0  0  0  0  0  0
    5.0023    3.8241   16.4589 C   0  0  0  0  0  0  0  0  0  0  0  0
    3.3536    2.2518   14.4163 O   0  0  0  0  0  0  0  0  0  0  0  0
    3.7883    3.5412   14.3592 N   0  0  0  0  0  0  0  0  0  0  0  0
    3.9656    4.0823   13.2634 O   0  0  0  0  0  0  0  0  0  0  0  0
 24 25  1  0  0  0
 25 26  2  0  0  0
 25 18  1  0  0  0
 18 19  2  0  0  0
 19 20  1  0  0  0
 20 21  2  0  0  0
 21 17  1  0  0  0
 17  1  1  0  0  0
  1  2  1  0  0  0
  2  3  1  0  0  0
  3  4  1  0  0  0
  4  5  1  0  0  0
  5  6  1  0  0  0
  4  7  1  0  0  0
  7  8  2  0  0  0
  7  9  2  0  0  0
  7 10  1  0  0  0
 10 11  2  0  0  0
 11 12  1  0  0  0
 12 13  2  0  0  0
 13 14  1  0  0  0
 13 15  1  0  0  0
 15 16  2  0  0  0
 21 22  1  0  0  0
 22 23  2  0  0  0
 23 18  1  0  0  0
  6  1  1  0  0  0
 16 10  1  0  0  0
M  CHG 1  24  -1
M  CHG 1  25   1
M  END
> <minimizedAffinity>
-7.52177

> <CNNscore>
0.6887587309

> <CNNaffinity>
6.5178055763

> <CNN_VS>
4.4891953468

> <CNNaffinity_variance>
0.0238506105

$$$$
[H]c1c([H])c(S(=O)(=O)N2C([H])([H])C([H])([H])N(C([H])([H])c3c([H])c([H])c([N+](=O)[O-])c([H])c3[H])C([H])([H])C2([H])[H])c([H])c([H])c1Br


 26 28  0  0  0  0  0  0  0  0999 V2000
    5.9732    6.4004   18.5986 N   0  0  0  0  0  0  0  0  0  0  0  0
    7.1613    7.0587   18.9667 C   0  0  0  0  0  0  0  0  0  0  0  0
    7.0148    8.1414   20.0009 C   0  0  0  0  0  0  0  0  0  0  0  0
    6.1080    7.8318   21.0594 N   0  0  0  0  0  0  0  0  0  0  0  0
    4.8464    7.4776   20.5170 C   0  0  0  0  0  0  0  0  0  0  0  0
    4.8548    6.4574   19.4496 C   0  0  0  0  0  0  0  0  0  0  0  0
    6.7554    6.6749   22.1474 S   0  0  0  0  0  0  0  0  0  0  0  0
    6.8404    7.3031   23.5091 O   0  0  0  0  0  0  0  0  0  0  0  0
    8.1737    6.3260   21.7519 O   0  0  0  0  0  0  0  0  0  0  0  0
    5.8329    5.1924   22.1587 C   0  0  0  0  0  0  0  0  0  0  0  0
    4.6644    5.0726   22.8824 C   0  0  0  0  0  0  0  0  0  0  0  0
    3.9267    3.9022   22.8969 C   0  0  0  0  0  0  0  0  0  0  0  0
    4.3380    2.7982   22.1791 C   0  0  0  0  0  0  0  0  0  0  0  0
    3.3190    1.1773   22.1971 Br  0  0  0  0  0  0  0  0  0  0  0  0
    5.5045    2.9036   21.4511 C   0  0  0  0  0  0  0  0  0  0  0  0
    6.2324    4.0750   21.4433 C   0  0  0  0  0  0  0  0  0  0  0  0
    5.7232    6.2453   17.2074 C   0  0  0  0  0  0  0  0  0  0  0  0
    3.7695    2.4716   16.4442 C   0  0  0  0  0  0  0  0  0  0  0  0
    4.8087    2.5820   17.3426 C   0  0  0  0  0  0  0  0  0  0  0  0
    5.4459    3.7753   17.6035 C   0  0  0  0  0  0  0  0  0  0  0  0
    5.0552    4.9296   16.9578 C   0  0  0  0  0  0  0  0  0  0  0  0
    4.0059    4.8243   16.0493 C   0  0  0  0  0  0  0  0  0  0  0  0
    3.3621    3.6355   15.7814 C   0  0  0  0  0  0  0  0  0  0  0  0
    3.3502    0.1589   16.9850 O   0  0  0  0  0  0  0  0  0  0  0  0
    3.1247    1.2394   16.1871 N   0  0  0  0  0  0  0  0  0  0  0  0
    2.3503    1.1455   15.2296 O   0  0  0  0  0  0  0  0  0  0  0  0
 24 25  1  0  0  0
 25 26  2  0  0  0
 25 18  1  0  0  0
 18 19  2  0  0  0
 19 20  1  0  0  0
 20 21  2  0  0  0
 21 17  1  0  0  0
 17  1  1  0  0  0
  1  2  1  0  0  0
  2  3  1  0  0  0
  3  4  1  0  0  0
  4  5  1  0  0  0
  5  6  1  0  0  0
  4  7  1  0  0  0
  7  8  2  0  0  0
  7  9  2  0  0  0
  7 10  1  0  0  0
 10 11  2  0  0  0
 11 12  1  0  0  0
 12 13  2  0  0  0
 13 14  1  0  0  0
 13 15  1  0  0  0
 15 16  2  0  0  0
 21 22  1  0  0  0
 22 23  2  0  0  0
 23 18  1  0  0  0
  6  1  1  0  0  0
 16 10  1  0  0  0
M  CHG 1  24  -1
M  CHG 1  25   1
M  END
> <minimizedAffinity>
-7.62591

> <CNNscore>
0.4755625427

> <CNNaffinity>
5.9007730484

> <CNN_VS>
2.8061866760

> <CNNaffinity_variance>
0.0953009874

$$$$
[H]c1c([H])c(S(=O)(=O)N2C([H])([H])C([H])([H])N(C([H])([H])c3c([H])c([H])c([N+](=O)[O-])c([H])c3[H])C([H])([H])C2([H])[H])c([H])c([H])c1Br


 26 28  0  0  0  0  0  0  0  0999 V2000
    5.3930    7.0129   20.6407 N   0  0  0  0  0  0  0  0  0  0  0  0
    4.4378    7.4657   19.7118 C   0  0  0  0  0  0  0  0  0  0  0  0
    4.5933    8.8913   19.2571 C   0  0  0  0  0  0  0  0  0  0  0  0
    5.9427    9.2966   19.0267 N   0  0  0  0  0  0  0  0  0  0  0  0
    6.7188    9.0494   20.1878 C   0  0  0  0  0  0  0  0  0  0  0  0
    6.6157    7.6961   20.7693 C   0  0  0  0  0  0  0  0  0  0  0  0
    6.5869    8.6129   17.5918 S   0  0  0  0  0  0  0  0  0  0  0  0
    8.0781    8.5152   17.7435 O   0  0  0  0  0  0  0  0  0  0  0  0
    6.3395    9.5366   16.4192 O   0  0  0  0  0  0  0  0  0  0  0  0
    5.8579    7.0727   17.2108 C   0  0  0  0  0  0  0  0  0  0  0  0
    6.4031    5.8848   17.6527 C   0  0  0  0  0  0  0  0  0  0  0  0
    5.8322    4.6599   17.3560 C   0  0  0  0  0  0  0  0  0  0  0  0
    4.6823    4.5808   16.5980 C   0  0  0  0  0  0  0  0  0  0  0  0
    3.8899    2.8871   16.1863 Br  0  0  0  0  0  0  0  0  0  0  0  0
    4.1263    5.7604   16.1494 C   0  0  0  0  0  0  0  0  0  0  0  0
    4.7033    6.9762   16.4508 C   0  0  0  0  0  0  0  0  0  0  0  0
    4.9064    6.3311   21.7897 C   0  0  0  0  0  0  0  0  0  0  0  0
    5.5184    2.0849   21.3044 C   0  0  0  0  0  0  0  0  0  0  0  0
    6.2908    2.8357   22.1640 C   0  0  0  0  0  0  0  0  0  0  0  0
    6.1128    4.1909   22.3364 C   0  0  0  0  0  0  0  0  0  0  0  0
    5.1303    4.8594   21.6365 C   0  0  0  0  0  0  0  0  0  0  0  0
    4.3469    4.1063   20.7669 C   0  0  0  0  0  0  0  0  0  0  0  0
    4.5169    2.7503   20.5874 C   0  0  0  0  0  0  0  0  0  0  0  0
    6.9687    0.1681   21.1063 O   0  0  0  0  0  0  0  0  0  0  0  0
    5.7127    0.6939   21.1383 N   0  0  0  0  0  0  0  0  0  0  0  0
    4.7325   -0.0482   21.0216 O   0  0  0  0  0  0  0  0  0  0  0  0
 24 25  1  0  0  0
 25 26  2  0  0  0
 25 18  1  0  0  0
 18 19  2  0  0  0
 19 20  1  0  0  0
 20 21  2  0  0  0
 21 17  1  0  0  0
 17  1  1  0  0  0
  1  2  1  0  0  0
  2  3  1  0  0  0
  3  4  1  0  0  0
  4  5  1  0  0  0
  5  6  1  0  0  0
  4  7  1  0  0  0
  7  8  2  0  0  0
  7  9  2  0  0  0
  7 10  1  0  0  0
 10 11  2  0  0  0
 11 12  1  0  0  0
 12 13  2  0  0  0
 13 14  1  0  0  0
 13 15  1  0  0  0
 15 16  2  0  0  0
 21 22  1  0  0  0
 22 23  2  0  0  0
 23 18  1  0  0  0
  6  1  1  0  0  0
 16 10  1  0  0  0
M  CHG 1  24  -1
M  CHG 1  25   1
M  END
> <minimizedAffinity>
-7.30439

> <CNNscore>
0.4030236900

> <CNNaffinity>
5.6607871056

> <CNN_VS>
2.2814311981

> <CNNaffinity_variance>
0.1218051463

$$$$
[H]c1c([H])c(S(=O)(=O)N2C([H])([H])C([H])([H])N(C([H])([H])c3c([H])c([H])c([N+](=O)[O-])c([H])c3[H])C([H])([H])C2([H])[H])c([H])c([H])c1Br


 26 28  0  0  0  0  0  0  0  0999 V2000
    5.7846    5.5945   18.3514 N   0  0  0  0  0  0  0  0  0  0  0  0
    6.7932    6.5750   18.3894 C   0  0  0  0  0  0  0  0  0  0  0  0
    6.3169    7.9995   18.4750 C   0  0  0  0  0  0  0  0  0  0  0  0
    5.2040    8.2014   19.3463 N   0  0  0  0  0  0  0  0  0  0  0  0
    4.1442    7.3360   18.9731 C   0  0  0  0  0  0  0  0  0  0  0  0
    4.4906    5.9108   18.8029 C   0  0  0  0  0  0  0  0  0  0  0  0
    5.6496    8.0952   20.9990 S   0  0  0  0  0  0  0  0  0  0  0  0
    4.8312    9.0886   21.7734 O   0  0  0  0  0  0  0  0  0  0  0  0
    7.0948    8.5070   21.1753 O   0  0  0  0  0  0  0  0  0  0  0  0
    5.4854    6.4726   21.6228 C   0  0  0  0  0  0  0  0  0  0  0  0
    6.5669    5.6212   21.7189 C   0  0  0  0  0  0  0  0  0  0  0  0
    6.4464    4.3342   22.2122 C   0  0  0  0  0  0  0  0  0  0  0  0
    5.2248    3.8492   22.6313 C   0  0  0  0  0  0  0  0  0  0  0  0
    5.0551    2.0687   23.3147 Br  0  0  0  0  0  0  0  0  0  0  0  0
    4.1349    4.6892   22.5409 C   0  0  0  0  0  0  0  0  0  0  0  0
    4.2658    5.9705   22.0477 C   0  0  0  0  0  0  0  0  0  0  0  0
    5.8958    4.5895   17.3517 C   0  0  0  0  0  0  0  0  0  0  0  0
    3.6016    1.1367   18.5581 C   0  0  0  0  0  0  0  0  0  0  0  0
    3.6112    1.5819   17.2539 C   0  0  0  0  0  0  0  0  0  0  0  0
    4.3366    2.6796   16.8455 C   0  0  0  0  0  0  0  0  0  0  0  0
    5.0973    3.3886   17.7515 C   0  0  0  0  0  0  0  0  0  0  0  0
    5.0917    2.9436   19.0703 C   0  0  0  0  0  0  0  0  0  0  0  0
    4.3696    1.8467   19.4888 C   0  0  0  0  0  0  0  0  0  0  0  0
    2.1030   -0.6865   18.0612 O   0  0  0  0  0  0  0  0  0  0  0  0
    2.8522    0.0075   18.9624 N   0  0  0  0  0  0  0  0  0  0  0  0
    2.8795   -0.3502   20.1441 O   0  0  0  0  0  0  0  0  0  0  0  0
 24 25  1  0  0  0
 25 26  2  0  0  0
 25 18  1  0  0  0
 18 19  2  0  0  0
 19 20  1  0  0  0
 20 21  2  0  0  0
 21 17  1  0  0  0
 17  1  1  0  0  0
  1  2  1  0  0  0
  2  3  1  0  0  0
  3  4  1  0  0  0
  4  5  1  0  0  0
  5  6  1  0  0  0
  4  7  1  0  0  0
  7  8  2  0  0  0
  7  9  2  0  0  0
  7 10  1  0  0  0
 10 11  2  0  0  0
 11 12  1  0  0  0
 12 13  2  0  0  0
 13 14  1  0  0  0
 13 15  1  0  0  0
 15 16  2  0  0  0
 21 22  1  0  0  0
 22 23  2  0  0  0
 23 18  1  0  0  0
  6  1  1  0  0  0
 16 10  1  0  0  0
M  CHG 1  24  -1
M  CHG 1  25   1
M  END
> <minimizedAffinity>
-8.53667

> <CNNscore>
0.4011940360

> <CNNaffinity>
6.0615792274

> <CNN_VS>
2.4318695068

> <CNNaffinity_variance>
0.1394203156

$$$$
[H]c1c([H])c(S(=O)(=O)N2C([H])([H])C([H])([H])N(C([H])([H])c3c([H])c([H])c([N+](=O)[O-])c([H])c3[H])C([H])([H])C2([H])[H])c([H])c([H])c1Br


 26 28  0  0  0  0  0  0  0  0999 V2000
    5.8711    4.2009   21.4511 N   0  0  0  0  0  0  0  0  0  0  0  0
    4.5958    4.7453   21.2113 C   0  0  0  0  0  0  0  0  0  0  0  0
    4.3034    6.0518   21.8974 C   0  0  0  0  0  0  0  0  0  0  0  0
    5.3938    6.9734   21.9077 N   0  0  0  0  0  0  0  0  0  0  0  0
    6.5372    6.3517   22.4713 C   0  0  0  0  0  0  0  0  0  0  0  0
    6.9043    5.0319   21.9204 C   0  0  0  0  0  0  0  0  0  0  0  0
    5.6628    7.6735   20.3653 S   0  0  0  0  0  0  0  0  0  0  0  0
    7.1105    8.0626   20.2694 O   0  0  0  0  0  0  0  0  0  0  0  0
    4.8695    8.9549   20.2305 O   0  0  0  0  0  0  0  0  0  0  0  0
    5.1746    6.6138   19.0663 C   0  0  0  0  0  0  0  0  0  0  0  0
    3.8591    6.5260   18.6595 C   0  0  0  0  0  0  0  0  0  0  0  0
    3.4632    5.6895   17.6311 C   0  0  0  0  0  0  0  0  0  0  0  0
    4.3810    4.9027   16.9664 C   0  0  0  0  0  0  0  0  0  0  0  0
    3.8359    3.7444   15.5426 Br  0  0  0  0  0  0  0  0  0  0  0  0
    5.6996    4.9802   17.3626 C   0  0  0  0  0  0  0  0  0  0  0  0
    6.0839    5.8174   18.3890 C   0  0  0  0  0  0  0  0  0  0  0  0
    5.9316    2.8257   21.8074 C   0  0  0  0  0  0  0  0  0  0  0  0
    3.3444    0.5086   19.2426 C   0  0  0  0  0  0  0  0  0  0  0  0
    4.1594    1.5020   18.7444 C   0  0  0  0  0  0  0  0  0  0  0  0
    4.9941    2.2528   19.5430 C   0  0  0  0  0  0  0  0  0  0  0  0
    5.0435    2.0300   20.9031 C   0  0  0  0  0  0  0  0  0  0  0  0
    4.2227    1.0278   21.4121 C   0  0  0  0  0  0  0  0  0  0  0  0
    3.3844    0.2713   20.6218 C   0  0  0  0  0  0  0  0  0  0  0  0
    2.8309   -0.5030   17.1144 O   0  0  0  0  0  0  0  0  0  0  0  0
    2.4930   -0.2544   18.4101 N   0  0  0  0  0  0  0  0  0  0  0  0
    1.4341   -0.6981   18.8653 O   0  0  0  0  0  0  0  0  0  0  0  0
 24 25  1  0  0  0
 25 26  2  0  0  0
 25 18  1  0  0  0
 18 19  2  0  0  0
 19 20  1  0  0  0
 20 21  2  0  0  0
 21 17  1  0  0  0
 17  1  1  0  0  0
  1  2  1  0  0  0
  2  3  1  0  0  0
  3  4  1  0  0  0
  4  5  1  0  0  0
  5  6  1  0  0  0
  4  7  1  0  0  0
  7  8  2  0  0  0
  7  9  2  0  0  0
  7 10  1  0  0  0
 10 11  2  0  0  0
 11 12  1  0  0  0
 12 13  2  0  0  0
 13 14  1  0  0  0
 13 15  1  0  0  0
 15 16  2  0  0  0
 21 22  1  0  0  0
 22 23  2  0  0  0
 23 18  1  0  0  0
  6  1  1  0  0  0
 16 10  1  0  0  0
M  CHG 1  24  -1
M  CHG 1  25   1
M  END
> <minimizedAffinity>
-8.09955

> <CNNscore>
0.3956845701

> <CNNaffinity>
6.2613325119

> <CNN_VS>
2.4775125980

> <CNNaffinity_variance>
0.0819182843

$$$$
[H]c1c([H])c(S(=O)(=O)N2C([H])([H])C([H])([H])N(C([H])([H])c3c([H])c([H])c([N+](=O)[O-])c([H])c3[H])C([H])([H])C2([H])[H])c([H])c([H])c1Br


 26 28  0  0  0  0  0  0  0  0999 V2000
    3.6202    5.9349   16.7504 N   0  0  0  0  0  0  0  0  0  0  0  0
    2.4308    5.2039   16.5731 C   0  0  0  0  0  0  0  0  0  0  0  0
    1.6840    5.4713   15.2948 C   0  0  0  0  0  0  0  0  0  0  0  0
    2.5141    5.6196   14.1427 N   0  0  0  0  0  0  0  0  0  0  0  0
    3.4838    6.6267   14.3812 C   0  0  0  0  0  0  0  0  0  0  0  0
    4.2550    6.5105   15.6350 C   0  0  0  0  0  0  0  0  0  0  0  0
    3.1688    4.1227   13.6209 S   0  0  0  0  0  0  0  0  0  0  0  0
    4.5781    4.3595   13.1582 O   0  0  0  0  0  0  0  0  0  0  0  0
    2.4069    3.6136   12.4168 O   0  0  0  0  0  0  0  0  0  0  0  0
    3.0759    2.8953   14.8594 C   0  0  0  0  0  0  0  0  0  0  0  0
    2.0318    1.9947   14.9088 C   0  0  0  0  0  0  0  0  0  0  0  0
    1.9501    1.0187   15.8860 C   0  0  0  0  0  0  0  0  0  0  0  0
    2.9221    0.9091   16.8589 C   0  0  0  0  0  0  0  0  0  0  0  0
    2.8118   -0.4409   18.2122 Br  0  0  0  0  0  0  0  0  0  0  0  0
    3.9716    1.8028   16.8218 C   0  0  0  0  0  0  0  0  0  0  0  0
    4.0437    2.7720   15.8433 C   0  0  0  0  0  0  0  0  0  0  0  0
    3.8044    6.5774   18.0054 C   0  0  0  0  0  0  0  0  0  0  0  0
    4.8776    3.6319   20.9741 C   0  0  0  0  0  0  0  0  0  0  0  0
    3.9318    4.6026   21.2239 C   0  0  0  0  0  0  0  0  0  0  0  0
    3.5721    5.5513   20.2919 C   0  0  0  0  0  0  0  0  0  0  0  0
    4.1617    5.5621   19.0452 C   0  0  0  0  0  0  0  0  0  0  0  0
    5.1177    4.5840   18.7870 C   0  0  0  0  0  0  0  0  0  0  0  0
    5.4844    3.6306   19.7124 C   0  0  0  0  0  0  0  0  0  0  0  0
    5.8885    3.0296   23.0793 O   0  0  0  0  0  0  0  0  0  0  0  0
    5.2363    2.6641   21.9410 N   0  0  0  0  0  0  0  0  0  0  0  0
    4.9538    1.4773   21.7485 O   0  0  0  0  0  0  0  0  0  0  0  0
 24 25  1  0  0  0
 25 26  2  0  0  0
 25 18  1  0  0  0
 18 19  2  0  0  0
 19 20  1  0  0  0
 20 21  2  0  0  0
 21 17  1  0  0  0
 17  1  1  0  0  0
  1  2  1  0  0  0
  2  3  1  0  0  0
  3  4  1  0  0  0
  4  5  1  0  0  0
  5  6  1  0  0  0
  4  7  1  0  0  0
  7  8  2  0  0  0
  7  9  2  0  0  0
  7 10  1  0  0  0
 10 11  2  0  0  0
 11 12  1  0  0  0
 12 13  2  0  0  0
 13 14  1  0  0  0
 13 15  1  0  0  0
 15 16  2  0  0  0
 21 22  1  0  0  0
 22 23  2  0  0  0
 23 18  1  0  0  0
  6  1  1  0  0  0
 16 10  1  0  0  0
M  CHG 1  24  -1
M  CHG 1  25   1
M  END
> <minimizedAffinity>
-6.35076

> <CNNscore>
0.3902110159

> <CNNaffinity>
5.9091348648

> <CNN_VS>
2.3058094978

> <CNNaffinity_variance>
0.1358848512

$$$$
[H]c1c([H])c(S(=O)(=O)N2C([H])([H])C([H])([H])N(C([H])([H])c3c([H])c([H])c([N+](=O)[O-])c([H])c3[H])C([H])([H])C2([H])[H])c([H])c([H])c1Br


 26 28  0  0  0  0  0  0  0  0999 V2000
    3.7221    2.3810   17.0596 N   0  0  0  0  0  0  0  0  0  0  0  0
    4.5757    3.3848   16.5656 C   0  0  0  0  0  0  0  0  0  0  0  0
    4.4686    3.6665   15.0917 C   0  0  0  0  0  0  0  0  0  0  0  0
    3.1348    3.6620   14.5823 N   0  0  0  0  0  0  0  0  0  0  0  0
    2.5048    2.4340   14.9088 C   0  0  0  0  0  0  0  0  0  0  0  0
    2.5826    2.0128   16.3219 C   0  0  0  0  0  0  0  0  0  0  0  0
    2.2548    5.0533   15.0628 S   0  0  0  0  0  0  0  0  0  0  0  0
    3.1744    6.2393   14.9984 O   0  0  0  0  0  0  0  0  0  0  0  0
    1.8287    4.9251   16.5090 O   0  0  0  0  0  0  0  0  0  0  0  0
    0.8111    5.2824   14.1077 C   0  0  0  0  0  0  0  0  0  0  0  0
   -0.0246    6.3621   14.3066 C   0  0  0  0  0  0  0  0  0  0  0  0
   -1.1702    6.5519   13.5544 C   0  0  0  0  0  0  0  0  0  0  0  0
   -1.5231    5.6570   12.5656 C   0  0  0  0  0  0  0  0  0  0  0  0
   -3.1077    5.9174   11.5229 Br  0  0  0  0  0  0  0  0  0  0  0  0
   -0.6970    4.5729   12.3558 C   0  0  0  0  0  0  0  0  0  0  0  0
    0.4427    4.3930   13.1111 C   0  0  0  0  0  0  0  0  0  0  0  0
    4.3054    1.3871   17.8925 C   0  0  0  0  0  0  0  0  0  0  0  0
    4.1019    2.6871   22.0046 C   0  0  0  0  0  0  0  0  0  0  0  0
    3.7122    1.4213   21.6236 C   0  0  0  0  0  0  0  0  0  0  0  0
    3.7699    0.9840   20.3184 C   0  0  0  0  0  0  0  0  0  0  0  0
    4.2313    1.8197   19.3232 C   0  0  0  0  0  0  0  0  0  0  0  0
    4.6265    3.0995   19.7019 C   0  0  0  0  0  0  0  0  0  0  0  0
    4.5728    3.5464   21.0046 C   0  0  0  0  0  0  0  0  0  0  0  0
    3.3190    4.2284   23.6862 O   0  0  0  0  0  0  0  0  0  0  0  0
    4.0375    3.1217   23.3489 N   0  0  0  0  0  0  0  0  0  0  0  0
    4.6393    2.4896   24.2227 O   0  0  0  0  0  0  0  0  0  0  0  0
 24 25  1  0  0  0
 25 26  2  0  0  0
 25 18  1  0  0  0
 18 19  2  0  0  0
 19 20  1  0  0  0
 20 21  2  0  0  0
 21 17  1  0  0  0
 17  1  1  0  0  0
  1  2  1  0  0  0
  2  3  1  0  0  0
  3  4  1  0  0  0
  4  5  1  0  0  0
  5  6  1  0  0  0
  4  7  1  0  0  0
  7  8  2  0  0  0
  7  9  2  0  0  0
  7 10  1  0  0  0
 10 11  2  0  0  0
 11 12  1  0  0  0
 12 13  2  0  0  0
 13 14  1  0  0  0
 13 15  1  0  0  0
 15 16  2  0  0  0
 21 22  1  0  0  0
 22 23  2  0  0  0
 23 18  1  0  0  0
  6  1  1  0  0  0
 16 10  1  0  0  0
M  CHG 1  24  -1
M  CHG 1  25   1
M  END
> <minimizedAffinity>
-7.34172

> <CNNscore>
0.3752826452

> <CNNaffinity>
5.8188562393

> <CNN_VS>
2.1837158203

> <CNNaffinity_variance>
0.2085874379

$$$$
[H]c1c([H])c(S(=O)(=O)N2C([H])([H])C([H])([H])N(C([H])([H])c3c([H])c([H])c([N+](=O)[O-])c([H])c3[H])C([H])([H])C2([H])[H])c([H])c([H])c1Br


 26 28  0  0  0  0  0  0  0  0999 V2000
    5.6779    5.7898   21.1860 N   0  0  0  0  0  0  0  0  0  0  0  0
    4.7472    6.7721   21.5722 C   0  0  0  0  0  0  0  0  0  0  0  0
    5.1600    8.1972   21.3228 C   0  0  0  0  0  0  0  0  0  0  0  0
    5.8291    8.4121   20.0801 N   0  0  0  0  0  0  0  0  0  0  0  0
    6.9426    7.5392   19.9818 C   0  0  0  0  0  0  0  0  0  0  0  0
    6.6828    6.1119   20.2561 C   0  0  0  0  0  0  0  0  0  0  0  0
    4.7546    8.3341   18.7456 S   0  0  0  0  0  0  0  0  0  0  0  0
    5.2861    9.2243   17.6588 O   0  0  0  0  0  0  0  0  0  0  0  0
    3.4041    8.8964   19.1320 O   0  0  0  0  0  0  0  0  0  0  0  0
    4.5042    6.6957   18.1962 C   0  0  0  0  0  0  0  0  0  0  0  0
    5.4012    6.0692   17.3555 C   0  0  0  0  0  0  0  0  0  0  0  0
    5.2112    4.7713   16.9154 C   0  0  0  0  0  0  0  0  0  0  0  0
    4.1040    4.0472   17.3062 C   0  0  0  0  0  0  0  0  0  0  0  0
    3.8388    2.2508   16.6990 Br  0  0  0  0  0  0  0  0  0  0  0  0
    3.1989    4.6609   18.1463 C   0  0  0  0  0  0  0  0  0  0  0  0
    3.3976    5.9551   18.5793 C   0  0  0  0  0  0  0  0  0  0  0  0
    5.9709    4.7684   22.1309 C   0  0  0  0  0  0  0  0  0  0  0  0
    3.9370    1.1312   21.0019 C   0  0  0  0  0  0  0  0  0  0  0  0
    3.6489    1.7884   22.1785 C   0  0  0  0  0  0  0  0  0  0  0  0
    4.2834    2.9507   22.5586 C   0  0  0  0  0  0  0  0  0  0  0  0
    5.2535    3.5104   21.7538 C   0  0  0  0  0  0  0  0  0  0  0  0
    5.5486    2.8512   20.5640 C   0  0  0  0  0  0  0  0  0  0  0  0
    4.9196    1.6882   20.1747 C   0  0  0  0  0  0  0  0  0  0  0  0
    2.5809   -0.1287   19.4559 O   0  0  0  0  0  0  0  0  0  0  0  0
    3.2766   -0.0612   20.6248 N   0  0  0  0  0  0  0  0  0  0  0  0
    3.3335   -1.0487   21.3642 O   0  0  0  0  0  0  0  0  0  0  0  0
 24 25  1  0  0  0
 25 26  2  0  0  0
 25 18  1  0  0  0
 18 19  2  0  0  0
 19 20  1  0  0  0
 20 21  2  0  0  0
 21 17  1  0  0  0
 17  1  1  0  0  0
  1  2  1  0  0  0
  2  3  1  0  0  0
  3  4  1  0  0  0
  4  5  1  0  0  0
  5  6  1  0  0  0
  4  7  1  0  0  0
  7  8  2  0  0  0
  7  9  2  0  0  0
  7 10  1  0  0  0
 10 11  2  0  0  0
 11 12  1  0  0  0
 12 13  2  0  0  0
 13 14  1  0  0  0
 13 15  1  0  0  0
 15 16  2  0  0  0
 21 22  1  0  0  0
 22 23  2  0  0  0
 23 18  1  0  0  0
  6  1  1  0  0  0
 16 10  1  0  0  0
M  CHG 1  24  -1
M  CHG 1  25   1
M  END
> <minimizedAffinity>
-7.64219

> <CNNscore>
0.3682222366

> <CNNaffinity>
5.9291839600

> <CNN_VS>
2.1832573414

> <CNNaffinity_variance>
0.0574061945

$$$$
[H]c1c([H])c(S(=O)(=O)N2C([H])([H])C([H])([H])N(C([H])([H])c3c([H])c([H])c([N+](=O)[O-])c([H])c3[H])C([H])([H])C2([H])[H])c([H])c([H])c1Br


 26 28  0  0  0  0  0  0  0  0999 V2000
    4.4626    6.9604   18.8022 N   0  0  0  0  0  0  0  0  0  0  0  0
    3.6141    5.9921   19.3703 C   0  0  0  0  0  0  0  0  0  0  0  0
    2.8295    5.1578   18.3947 C   0  0  0  0  0  0  0  0  0  0  0  0
    3.5595    4.7582   17.2346 N   0  0  0  0  0  0  0  0  0  0  0  0
    4.1037    5.9023   16.5972 C   0  0  0  0  0  0  0  0  0  0  0  0
    4.8571    6.8360   17.4579 C   0  0  0  0  0  0  0  0  0  0  0  0
    4.7092    3.5346   17.5841 S   0  0  0  0  0  0  0  0  0  0  0  0
    6.0450    3.9781   17.0595 O   0  0  0  0  0  0  0  0  0  0  0  0
    4.3606    2.2652   16.8379 O   0  0  0  0  0  0  0  0  0  0  0  0
    4.7619    3.1465   19.2857 C   0  0  0  0  0  0  0  0  0  0  0  0
    5.6098    3.8051   20.1523 C   0  0  0  0  0  0  0  0  0  0  0  0
    5.6581    3.5046   21.5020 C   0  0  0  0  0  0  0  0  0  0  0  0
    4.8498    2.5230   22.0372 C   0  0  0  0  0  0  0  0  0  0  0  0
    4.9143    2.1054   23.9047 Br  0  0  0  0  0  0  0  0  0  0  0  0
    3.9973    1.8564   21.1825 C   0  0  0  0  0  0  0  0  0  0  0  0
    3.9569    2.1636   19.8387 C   0  0  0  0  0  0  0  0  0  0  0  0
    4.3967    8.2749   19.3405 C   0  0  0  0  0  0  0  0  0  0  0  0
    6.7646    8.5472   22.9404 C   0  0  0  0  0  0  0  0  0  0  0  0
    6.8734    7.4765   22.0797 C   0  0  0  0  0  0  0  0  0  0  0  0
    6.1298    7.3689   20.9249 C   0  0  0  0  0  0  0  0  0  0  0  0
    5.2280    8.3545   20.5823 C   0  0  0  0  0  0  0  0  0  0  0  0
    5.1138    9.4386   21.4478 C   0  0  0  0  0  0  0  0  0  0  0  0
    5.8531    9.5555   22.6052 C   0  0  0  0  0  0  0  0  0  0  0  0
    8.7307    7.9997   24.2254 O   0  0  0  0  0  0  0  0  0  0  0  0
    7.5353    8.6440   24.1223 N   0  0  0  0  0  0  0  0  0  0  0  0
    7.1177    9.3200   25.0678 O   0  0  0  0  0  0  0  0  0  0  0  0
 24 25  1  0  0  0
 25 26  2  0  0  0
 25 18  1  0  0  0
 18 19  2  0  0  0
 19 20  1  0  0  0
 20 21  2  0  0  0
 21 17  1  0  0  0
 17  1  1  0  0  0
  1  2  1  0  0  0
  2  3  1  0  0  0
  3  4  1  0  0  0
  4  5  1  0  0  0
  5  6  1  0  0  0
  4  7  1  0  0  0
  7  8  2  0  0  0
  7  9  2  0  0  0
  7 10  1  0  0  0
 10 11  2  0  0  0
 11 12  1  0  0  0
 12 13  2  0  0  0
 13 14  1  0  0  0
 13 15  1  0  0  0
 15 16  2  0  0  0
 21 22  1  0  0  0
 22 23  2  0  0  0
 23 18  1  0  0  0
  6  1  1  0  0  0
 16 10  1  0  0  0
M  CHG 1  24  -1
M  CHG 1  25   1
M  END
> <minimizedAffinity>
-7.58329

> <CNNscore>
0.3537144363

> <CNNaffinity>
5.6773972511

> <CNN_VS>
2.0081772804

> <CNNaffinity_variance>
0.0269760285

$$$$
[H]OC([H])([H])[C@@]1(O[H])C([H])([H])[C@@]2([H])O[C@]1(C([H])([H])[H])n1c3c([H])c([H])c([H])c([H])c3c3c4c(c5c6c([H])c([H])c([H])c([H])c6n2c5c31)C(=O)N([H])C4([H])[H]


 36 43  0  0  0  0  0  0  0  0999 V2000
    6.6621    6.0236   20.4526 C   0  0  0  0  0  0  0  0  0  0  0  0
    5.4687    5.5266   19.7110 C   0  0  0  0  0  0  0  0  0  0  0  0
    6.0223    5.3787   18.4092 O   0  0  0  0  0  0  0  0  0  0  0  0
    5.0613    5.5739   17.4773 C   0  0  0  0  0  0  0  0  0  0  0  0
    4.1197    6.5653   18.0140 C   0  0  0  0  0  0  0  0  0  0  0  0
    4.4009    6.5590   19.5002 C   0  0  0  0  0  0  0  0  0  0  0  0
    3.2059    6.2430   20.1291 O   0  0  0  0  0  0  0  0  0  0  0  0
    4.4441    4.2977   17.0929 N   0  0  0  0  0  0  0  0  0  0  0  0
    4.0445    3.8877   15.9015 C   0  0  0  0  0  0  0  0  0  0  0  0
    4.0992    4.5542   14.7049 C   0  0  0  0  0  0  0  0  0  0  0  0
    3.6136    3.9149   13.5708 C   0  0  0  0  0  0  0  0  0  0  0  0
    3.0930    2.6485   13.6479 C   0  0  0  0  0  0  0  0  0  0  0  0
    3.0359    1.9653   14.8686 C   0  0  0  0  0  0  0  0  0  0  0  0
    3.5155    2.6027   15.9760 C   0  0  0  0  0  0  0  0  0  0  0  0
    3.6121    2.2381   17.2997 C   0  0  0  0  0  0  0  0  0  0  0  0
    3.2531    1.1066   18.0093 C   0  0  0  0  0  0  0  0  0  0  0  0
    2.6489   -0.1675   17.6640 C   0  0  0  0  0  0  0  0  0  0  0  0
    2.2675   -0.6095   16.5790 O   0  0  0  0  0  0  0  0  0  0  0  0
    2.5389   -0.9301   18.8700 N   0  0  0  0  0  0  0  0  0  0  0  0
    3.0488   -0.1825   19.9937 C   0  0  0  0  0  0  0  0  0  0  0  0
    3.4886    1.0903   19.3715 C   0  0  0  0  0  0  0  0  0  0  0  0
    4.0687    2.1646   20.0370 C   0  0  0  0  0  0  0  0  0  0  0  0
    4.3946    2.4362   21.3284 C   0  0  0  0  0  0  0  0  0  0  0  0
    4.2422    1.6729   22.4629 C   0  0  0  0  0  0  0  0  0  0  0  0
    4.6463    2.1990   23.6936 C   0  0  0  0  0  0  0  0  0  0  0  0
    5.1861    3.4723   23.7265 C   0  0  0  0  0  0  0  0  0  0  0  0
    5.3289    4.2205   22.5708 C   0  0  0  0  0  0  0  0  0  0  0  0
    4.9396    3.7225   21.3506 C   0  0  0  0  0  0  0  0  0  0  0  0
    4.9569    4.2418   20.0938 N   0  0  0  0  0  0  0  0  0  0  0  0
    4.4085    3.2545   19.3084 C   0  0  0  0  0  0  0  0  0  0  0  0
    4.1883    3.3082   17.9496 C   0  0  0  0  0  0  0  0  0  0  0  0
    2.7249    7.0843   20.3183 H   0  0  0  0  0  0  0  0  0  0  0  0
    2.1463   -1.9053   18.9678 H   0  0  0  0  0  0  0  0  0  0  0  0
    4.8025    7.9371   19.9042 C   0  0  0  0  0  0  0  0  0  0  0  0
    3.6668    8.7475   19.8893 O   0  0  0  0  0  0  0  0  0  0  0  0
    3.6784    9.4072   19.1499 H   0  0  0  0  0  0  0  0  0  0  0  0
  2  1  1  0  0  0
  2  3  1  0  0  0
  3  4  1  0  0  0
  4  5  1  0  0  0
  5  6  1  0  0  0
  6  7  1  0  0  0
  6 34  1  0  0  0
 34 35  1  0  0  0
  4  8  1  0  0  0
  8  9  1  0  0  0
  9 10  2  0  0  0
 10 11  1  0  0  0
 11 12  2  0  0  0
 12 13  1  0  0  0
 13 14  2  0  0  0
 14 15  1  0  0  0
 15 16  2  0  0  0
 16 17  1  0  0  0
 17 18  2  0  0  0
 17 19  1  0  0  0
 19 20  1  0  0  0
 20 21  1  0  0  0
 21 22  2  0  0  0
 22 23  1  0  0  0
 23 24  2  0  0  0
 24 25  1  0  0  0
 25 26  2  0  0  0
 26 27  1  0  0  0
 27 28  2  0  0  0
 28 29  1  0  0  0
 29 30  1  0  0  0
 30 31  2  0  0  0
  6  2  1  0  0  0
 31  8  1  0  0  0
 29  2  1  0  0  0
 14  9  1  0  0  0
 31 15  1  0  0  0
 21 16  1  0  0  0
 30 22  1  0  0  0
 28 23  1  0  0  0
  7 32  1  0  0  0
 35 36  1  0  0  0
 19 33  1  0  0  0
M  END
> <minimizedAffinity>
-12.81854

> <CNNscore>
0.8928605318

> <CNNaffinity>
6.9619827271

> <CNN_VS>
6.2160797119

> <CNNaffinity_variance>
0.2042560279

$$$$
[H]OC([H])([H])[C@@]1(O[H])C([H])([H])[C@@]2([H])O[C@]1(C([H])([H])[H])n1c3c([H])c([H])c([H])c([H])c3c3c4c(c5c6c([H])c([H])c([H])c([H])c6n2c5c31)C(=O)N([H])C4([H])[H]


 36 43  0  0  0  0  0  0  0  0999 V2000
    3.8250    6.9400   16.6157 C   0  0  0  0  0  0  0  0  0  0  0  0
    4.4495    5.8506   17.4185 C   0  0  0  0  0  0  0  0  0  0  0  0
    3.8993    6.1318   18.6996 O   0  0  0  0  0  0  0  0  0  0  0  0
    4.7616    5.7397   19.6653 C   0  0  0  0  0  0  0  0  0  0  0  0
    6.1225    5.9215   19.1432 C   0  0  0  0  0  0  0  0  0  0  0  0
    5.9223    6.0214   17.6472 C   0  0  0  0  0  0  0  0  0  0  0  0
    6.6829    5.0118   17.0767 O   0  0  0  0  0  0  0  0  0  0  0  0
    4.4595    4.3719   20.1069 N   0  0  0  0  0  0  0  0  0  0  0  0
    4.5029    3.8576   21.3238 C   0  0  0  0  0  0  0  0  0  0  0  0
    4.8479    4.4714   22.5000 C   0  0  0  0  0  0  0  0  0  0  0  0
    4.8194    3.7208   23.6689 C   0  0  0  0  0  0  0  0  0  0  0  0
    4.4551    2.3990   23.6454 C   0  0  0  0  0  0  0  0  0  0  0  0
    4.1022    1.7694   22.4457 C   0  0  0  0  0  0  0  0  0  0  0  0
    4.1336    2.5160   21.3037 C   0  0  0  0  0  0  0  0  0  0  0  0
    3.8566    2.2273   19.9867 C   0  0  0  0  0  0  0  0  0  0  0  0
    3.4584    1.0822   19.3213 C   0  0  0  0  0  0  0  0  0  0  0  0
    3.1479   -0.2779   19.7233 C   0  0  0  0  0  0  0  0  0  0  0  0
    3.1592   -0.8110   20.8340 O   0  0  0  0  0  0  0  0  0  0  0  0
    2.7878   -1.0018   18.5425 N   0  0  0  0  0  0  0  0  0  0  0  0
    2.8632   -0.1503   17.3802 C   0  0  0  0  0  0  0  0  0  0  0  0
    3.2860    1.1518   17.9514 C   0  0  0  0  0  0  0  0  0  0  0  0
    3.4984    2.3249   17.2356 C   0  0  0  0  0  0  0  0  0  0  0  0
    3.4300    2.6802   15.9253 C   0  0  0  0  0  0  0  0  0  0  0  0
    3.1017    1.9330   14.8177 C   0  0  0  0  0  0  0  0  0  0  0  0
    3.1267    2.5400   13.5585 C   0  0  0  0  0  0  0  0  0  0  0  0
    3.4821    3.8740   13.4712 C   0  0  0  0  0  0  0  0  0  0  0  0
    3.8083    4.6044   14.6007 C   0  0  0  0  0  0  0  0  0  0  0  0
    3.7891    4.0283   15.8481 C   0  0  0  0  0  0  0  0  0  0  0  0
    4.0722    4.5058   17.0897 N   0  0  0  0  0  0  0  0  0  0  0  0
    3.8861    3.4262   17.9217 C   0  0  0  0  0  0  0  0  0  0  0  0
    4.0693    3.3954   19.2868 C   0  0  0  0  0  0  0  0  0  0  0  0
    7.5820    5.3729   16.8864 H   0  0  0  0  0  0  0  0  0  0  0  0
    2.5013   -2.0164   18.4857 H   0  0  0  0  0  0  0  0  0  0  0  0
    6.4575    7.3368   17.1924 C   0  0  0  0  0  0  0  0  0  0  0  0
    6.4992    8.1972   18.2900 O   0  0  0  0  0  0  0  0  0  0  0  0
    5.8239    8.9202   18.2341 H   0  0  0  0  0  0  0  0  0  0  0  0
  2  1  1  0  0  0
  2  3  1  0  0  0
  3  4  1  0  0  0
  4  5  1  0  0  0
  5  6  1  0  0  0
  6  7  1  0  0  0
  6 34  1  0  0  0
 34 35  1  0  0  0
  4  8  1  0  0  0
  8  9  1  0  0  0
  9 10  2  0  0  0
 10 11  1  0  0  0
 11 12  2  0  0  0
 12 13  1  0  0  0
 13 14  2  0  0  0
 14 15  1  0  0  0
 15 16  2  0  0  0
 16 17  1  0  0  0
 17 18  2  0  0  0
 17 19  1  0  0  0
 19 20  1  0  0  0
 20 21  1  0  0  0
 21 22  2  0  0  0
 22 23  1  0  0  0
 23 24  2  0  0  0
 24 25  1  0  0  0
 25 26  2  0  0  0
 26 27  1  0  0  0
 27 28  2  0  0  0
 28 29  1  0  0  0
 29 30  1  0  0  0
 30 31  2  0  0  0
  6  2  1  0  0  0
 31  8  1  0  0  0
 29  2  1  0  0  0
 14  9  1  0  0  0
 31 15  1  0  0  0
 21 16  1  0  0  0
 30 22  1  0  0  0
 28 23  1  0  0  0
  7 32  1  0  0  0
 35 36  1  0  0  0
 19 33  1  0  0  0
M  END
> <minimizedAffinity>
-11.07724

> <CNNscore>
0.4804911315

> <CNNaffinity>
6.3549666405

> <CNN_VS>
3.0535051823

> <CNNaffinity_variance>
0.1183441058

$$$$
[H]OC([H])([H])[C@@]1(O[H])C([H])([H])[C@@]2([H])O[C@]1(C([H])([H])[H])n1c3c([H])c([H])c([H])c([H])c3c3c4c(c5c6c([H])c([H])c([H])c([H])c6n2c5c31)C(=O)N([H])C4([H])[H]


 36 43  0  0  0  0  0  0  0  0999 V2000
    2.6394    0.0417    9.5228 C   0  0  0  0  0  0  0  0  0  0  0  0
    2.3278    1.4990    9.5415 C   0  0  0  0  0  0  0  0  0  0  0  0
    1.5702    1.5813   10.7425 O   0  0  0  0  0  0  0  0  0  0  0  0
    0.6672    2.5841   10.6473 C   0  0  0  0  0  0  0  0  0  0  0  0
    0.2518    2.6731    9.2412 C   0  0  0  0  0  0  0  0  0  0  0  0
    1.3402    1.9308    8.4981 C   0  0  0  0  0  0  0  0  0  0  0  0
    1.8731    2.8228    7.5796 O   0  0  0  0  0  0  0  0  0  0  0  0
    1.2159    3.8306   11.1973 N   0  0  0  0  0  0  0  0  0  0  0  0
    0.6132    4.7660   11.9109 C   0  0  0  0  0  0  0  0  0  0  0  0
   -0.6929    4.8183   12.3236 C   0  0  0  0  0  0  0  0  0  0  0  0
   -1.1046    5.9135   13.0731 C   0  0  0  0  0  0  0  0  0  0  0  0
   -0.2252    6.9164   13.3916 C   0  0  0  0  0  0  0  0  0  0  0  0
    1.1094    6.8656   12.9715 C   0  0  0  0  0  0  0  0  0  0  0  0
    1.5029    5.7856   12.2359 C   0  0  0  0  0  0  0  0  0  0  0  0
    2.7055    5.4215   11.6740 C   0  0  0  0  0  0  0  0  0  0  0  0
    3.9569    6.0084   11.6278 C   0  0  0  0  0  0  0  0  0  0  0  0
    4.5333    7.2298   12.1604 C   0  0  0  0  0  0  0  0  0  0  0  0
    4.0303    8.1288   12.8363 O   0  0  0  0  0  0  0  0  0  0  0  0
    5.9069    7.2650   11.7605 N   0  0  0  0  0  0  0  0  0  0  0  0
    6.2384    6.1016   10.9743 C   0  0  0  0  0  0  0  0  0  0  0  0
    4.9594    5.3510   10.9393 C   0  0  0  0  0  0  0  0  0  0  0  0
    4.7465    4.1335   10.3021 C   0  0  0  0  0  0  0  0  0  0  0  0
    5.5083    3.2893    9.5573 C   0  0  0  0  0  0  0  0  0  0  0  0
    6.8270    3.3838    9.1767 C   0  0  0  0  0  0  0  0  0  0  0  0
    7.3770    2.3750    8.3803 C   0  0  0  0  0  0  0  0  0  0  0  0
    6.5728    1.3149    8.0020 C   0  0  0  0  0  0  0  0  0  0  0  0
    5.2485    1.2428    8.3979 C   0  0  0  0  0  0  0  0  0  0  0  0
    4.6880    2.2224    9.1817 C   0  0  0  0  0  0  0  0  0  0  0  0
    3.4376    2.3969    9.6874 N   0  0  0  0  0  0  0  0  0  0  0  0
    3.5085    3.5889   10.3706 C   0  0  0  0  0  0  0  0  0  0  0  0
    2.4840    4.2146   11.0463 C   0  0  0  0  0  0  0  0  0  0  0  0
    1.3673    2.7362    6.7360 H   0  0  0  0  0  0  0  0  0  0  0  0
    6.6122    8.0173   11.9870 H   0  0  0  0  0  0  0  0  0  0  0  0
    0.7105    0.8013    7.7557 C   0  0  0  0  0  0  0  0  0  0  0  0
   -0.6754    0.9306    7.8526 O   0  0  0  0  0  0  0  0  0  0  0  0
   -1.0843    0.2355    8.4285 H   0  0  0  0  0  0  0  0  0  0  0  0
  2  1  1  0  0  0
  2  3  1  0  0  0
  3  4  1  0  0  0
  4  5  1  0  0  0
  5  6  1  0  0  0
  6  7  1  0  0  0
  6 34  1  0  0  0
 34 35  1  0  0  0
  4  8  1  0  0  0
  8  9  1  0  0  0
  9 10  2  0  0  0
 10 11  1  0  0  0
 11 12  2  0  0  0
 12 13  1  0  0  0
 13 14  2  0  0  0
 14 15  1  0  0  0
 15 16  2  0  0  0
 16 17  1  0  0  0
 17 18  2  0  0  0
 17 19  1  0  0  0
 19 20  1  0  0  0
 20 21  1  0  0  0
 21 22  2  0  0  0
 22 23  1  0  0  0
 23 24  2  0  0  0
 24 25  1  0  0  0
 25 26  2  0  0  0
 26 27  1  0  0  0
 27 28  2  0  0  0
 28 29  1  0  0  0
 29 30  1  0  0  0
 30 31  2  0  0  0
  6  2  1  0  0  0
 31  8  1  0  0  0
 29  2  1  0  0  0
 14  9  1  0  0  0
 31 15  1  0  0  0
 21 16  1  0  0  0
 30 22  1  0  0  0
 28 23  1  0  0  0
  7 32  1  0  0  0
 35 36  1  0  0  0
 19 33  1  0  0  0
M  END
> <minimizedAffinity>
-6.64304

> <CNNscore>
0.4556498230

> <CNNaffinity>
5.2596993446

> <CNN_VS>
2.3965811729

> <CNNaffinity_variance>
0.1636712104

$$$$
[H]OC([H])([H])[C@@]1(O[H])C([H])([H])[C@@]2([H])O[C@]1(C([H])([H])[H])n1c3c([H])c([H])c([H])c([H])c3c3c4c(c5c6c([H])c([H])c([H])c([H])c6n2c5c31)C(=O)N([H])C4([H])[H]


 36 43  0  0  0  0  0  0  0  0999 V2000
    4.7705    6.9780   12.4147 C   0  0  0  0  0  0  0  0  0  0  0  0
    4.5211    6.1463   11.2034 C   0  0  0  0  0  0  0  0  0  0  0  0
    5.4159    5.0679   11.4472 O   0  0  0  0  0  0  0  0  0  0  0  0
    5.8487    4.5563   10.2721 C   0  0  0  0  0  0  0  0  0  0  0  0
    5.9165    5.6616    9.3070 C   0  0  0  0  0  0  0  0  0  0  0  0
    5.0541    6.7361    9.9312 C   0  0  0  0  0  0  0  0  0  0  0  0
    4.0607    7.0328    9.0101 O   0  0  0  0  0  0  0  0  0  0  0  0
    4.9998    3.4345    9.8502 N   0  0  0  0  0  0  0  0  0  0  0  0
    5.3438    2.2988    9.2677 C   0  0  0  0  0  0  0  0  0  0  0  0
    6.5928    1.8706    8.8992 C   0  0  0  0  0  0  0  0  0  0  0  0
    6.7116    0.6250    8.2950 C   0  0  0  0  0  0  0  0  0  0  0  0
    5.6061   -0.1556    8.0733 C   0  0  0  0  0  0  0  0  0  0  0  0
    4.3293    0.2791    8.4486 C   0  0  0  0  0  0  0  0  0  0  0  0
    4.2242    1.5039    9.0412 C   0  0  0  0  0  0  0  0  0  0  0  0
    3.1547    2.2239    9.5231 C   0  0  0  0  0  0  0  0  0  0  0  0
    1.7924    1.9921    9.5793 C   0  0  0  0  0  0  0  0  0  0  0  0
    0.9241    0.8997    9.1786 C   0  0  0  0  0  0  0  0  0  0  0  0
    1.1835   -0.1803    8.6453 O   0  0  0  0  0  0  0  0  0  0  0  0
   -0.4159    1.2719    9.5161 N   0  0  0  0  0  0  0  0  0  0  0  0
   -0.4440    2.5822   10.1193 C   0  0  0  0  0  0  0  0  0  0  0  0
    0.9876    2.9707   10.1324 C   0  0  0  0  0  0  0  0  0  0  0  0
    1.5036    4.1635   10.6270 C   0  0  0  0  0  0  0  0  0  0  0  0
    0.9753    5.2817   11.1911 C   0  0  0  0  0  0  0  0  0  0  0  0
   -0.3329    5.6028   11.4714 C   0  0  0  0  0  0  0  0  0  0  0  0
   -0.6183    6.8457   12.0441 C   0  0  0  0  0  0  0  0  0  0  0  0
    0.4280    7.7110   12.3090 C   0  0  0  0  0  0  0  0  0  0  0  0
    1.7359    7.3645   12.0176 C   0  0  0  0  0  0  0  0  0  0  0  0
    2.0393    6.1477   11.4557 C   0  0  0  0  0  0  0  0  0  0  0  0
    3.2109    5.5771   11.0670 N   0  0  0  0  0  0  0  0  0  0  0  0
    2.8425    4.3540   10.5563 C   0  0  0  0  0  0  0  0  0  0  0  0
    3.6764    3.4025   10.0111 C   0  0  0  0  0  0  0  0  0  0  0  0
    4.3861    7.7621    8.4295 H   0  0  0  0  0  0  0  0  0  0  0  0
   -1.2891    0.6985    9.3625 H   0  0  0  0  0  0  0  0  0  0  0  0
    5.8958    7.9505   10.1325 C   0  0  0  0  0  0  0  0  0  0  0  0
    5.6223    8.8501    9.1017 O   0  0  0  0  0  0  0  0  0  0  0  0
    6.3753    8.9404    8.4640 H   0  0  0  0  0  0  0  0  0  0  0  0
  2  1  1  0  0  0
  2  3  1  0  0  0
  3  4  1  0  0  0
  4  5  1  0  0  0
  5  6  1  0  0  0
  6  7  1  0  0  0
  6 34  1  0  0  0
 34 35  1  0  0  0
  4  8  1  0  0  0
  8  9  1  0  0  0
  9 10  2  0  0  0
 10 11  1  0  0  0
 11 12  2  0  0  0
 12 13  1  0  0  0
 13 14  2  0  0  0
 14 15  1  0  0  0
 15 16  2  0  0  0
 16 17  1  0  0  0
 17 18  2  0  0  0
 17 19  1  0  0  0
 19 20  1  0  0  0
 20 21  1  0  0  0
 21 22  2  0  0  0
 22 23  1  0  0  0
 23 24  2  0  0  0
 24 25  1  0  0  0
 25 26  2  0  0  0
 26 27  1  0  0  0
 27 28  2  0  0  0
 28 29  1  0  0  0
 29 30  1  0  0  0
 30 31  2  0  0  0
  6  2  1  0  0  0
 31  8  1  0  0  0
 29  2  1  0  0  0
 14  9  1  0  0  0
 31 15  1  0  0  0
 21 16  1  0  0  0
 30 22  1  0  0  0
 28 23  1  0  0  0
  7 32  1  0  0  0
 35 36  1  0  0  0
 19 33  1  0  0  0
M  END
> <minimizedAffinity>
-6.25463

> <CNNscore>
0.4369302094

> <CNNaffinity>
5.3083982468

> <CNN_VS>
2.3193995953

> <CNNaffinity_variance>
0.2469727546

$$$$
[H]OC([H])([H])[C@@]1(O[H])C([H])([H])[C@@]2([H])O[C@]1(C([H])([H])[H])n1c3c([H])c([H])c([H])c([H])c3c3c4c(c5c6c([H])c([H])c([H])c([H])c6n2c5c31)C(=O)N([H])C4([H])[H]


 36 43  0  0  0  0  0  0  0  0999 V2000
    4.0925    8.6003   19.2022 C   0  0  0  0  0  0  0  0  0  0  0  0
    4.6733    7.2324   19.0896 C   0  0  0  0  0  0  0  0  0  0  0  0
    4.0122    6.5861   20.1705 O   0  0  0  0  0  0  0  0  0  0  0  0
    4.8003    5.6068   20.6705 C   0  0  0  0  0  0  0  0  0  0  0  0
    6.1952    6.0414   20.5193 C   0  0  0  0  0  0  0  0  0  0  0  0
    6.1176    7.1424   19.4850 C   0  0  0  0  0  0  0  0  0  0  0  0
    6.9462    6.7639   18.4393 O   0  0  0  0  0  0  0  0  0  0  0  0
    4.4943    4.3187   20.0346 N   0  0  0  0  0  0  0  0  0  0  0  0
    4.4484    3.1115   20.5711 C   0  0  0  0  0  0  0  0  0  0  0  0
    4.6802    2.7441   21.8712 C   0  0  0  0  0  0  0  0  0  0  0  0
    4.5722    1.3999   22.2061 C   0  0  0  0  0  0  0  0  0  0  0  0
    4.2418    0.4650   21.2588 C   0  0  0  0  0  0  0  0  0  0  0  0
    4.0045    0.8374   19.9302 C   0  0  0  0  0  0  0  0  0  0  0  0
    4.1133    2.1601   19.6124 C   0  0  0  0  0  0  0  0  0  0  0  0
    3.9533    2.8584   18.4371 C   0  0  0  0  0  0  0  0  0  0  0  0
    3.6383    2.4917   17.1413 C   0  0  0  0  0  0  0  0  0  0  0  0
    3.3272    1.2366   16.4812 C   0  0  0  0  0  0  0  0  0  0  0  0
    3.2586    0.0894   16.9252 O   0  0  0  0  0  0  0  0  0  0  0  0
    3.0832    1.5275   15.1014 N   0  0  0  0  0  0  0  0  0  0  0  0
    3.2351    2.9389   14.8438 C   0  0  0  0  0  0  0  0  0  0  0  0
    3.5787    3.4836   16.1801 C   0  0  0  0  0  0  0  0  0  0  0  0
    3.8226    4.8200   16.4770 C   0  0  0  0  0  0  0  0  0  0  0  0
    3.8550    5.9757   15.7622 C   0  0  0  0  0  0  0  0  0  0  0  0
    3.6372    6.1984   14.4221 C   0  0  0  0  0  0  0  0  0  0  0  0
    3.7525    7.4993   13.9233 C   0  0  0  0  0  0  0  0  0  0  0  0
    4.0829    8.5190   14.7977 C   0  0  0  0  0  0  0  0  0  0  0  0
    4.2972    8.2692   16.1421 C   0  0  0  0  0  0  0  0  0  0  0  0
    4.1879    6.9986   16.6539 C   0  0  0  0  0  0  0  0  0  0  0  0
    4.3558    6.4894   17.9037 N   0  0  0  0  0  0  0  0  0  0  0  0
    4.1263    5.1410   17.7571 C   0  0  0  0  0  0  0  0  0  0  0  0
    4.1963    4.1803   18.7421 C   0  0  0  0  0  0  0  0  0  0  0  0
    7.8494    7.1215   18.6162 H   0  0  0  0  0  0  0  0  0  0  0  0
    2.8260    0.8366   14.3456 H   0  0  0  0  0  0  0  0  0  0  0  0
    6.6581    8.3919   20.0934 C   0  0  0  0  0  0  0  0  0  0  0  0
    7.1555    8.0841   21.3601 O   0  0  0  0  0  0  0  0  0  0  0  0
    6.6010    8.4609   22.0898 H   0  0  0  0  0  0  0  0  0  0  0  0
  2  1  1  0  0  0
  2  3  1  0  0  0
  3  4  1  0  0  0
  4  5  1  0  0  0
  5  6  1  0  0  0
  6  7  1  0  0  0
  6 34  1  0  0  0
 34 35  1  0  0  0
  4  8  1  0  0  0
  8  9  1  0  0  0
  9 10  2  0  0  0
 10 11  1  0  0  0
 11 12  2  0  0  0
 12 13  1  0  0  0
 13 14  2  0  0  0
 14 15  1  0  0  0
 15 16  2  0  0  0
 16 17  1  0  0  0
 17 18  2  0  0  0
 17 19  1  0  0  0
 19 20  1  0  0  0
 20 21  1  0  0  0
 21 22  2  0  0  0
 22 23  1  0  0  0
 23 24  2  0  0  0
 24 25  1  0  0  0
 25 26  2  0  0  0
 26 27  1  0  0  0
 27 28  2  0  0  0
 28 29  1  0  0  0
 29 30  1  0  0  0
 30 31  2  0  0  0
  6  2  1  0  0  0
 31  8  1  0  0  0
 29  2  1  0  0  0
 14  9  1  0  0  0
 31 15  1  0  0  0
 21 16  1  0  0  0
 30 22  1  0  0  0
 28 23  1  0  0  0
  7 32  1  0  0  0
 35 36  1  0  0  0
 19 33  1  0  0  0
M  END
> <minimizedAffinity>
-10.82824

> <CNNscore>
0.3936671019

> <CNNaffinity>
5.9856858253

> <CNN_VS>
2.3563675880

> <CNNaffinity_variance>
0.3105178475

$$$$
[H]OC([H])([H])[C@@]1(O[H])C([H])([H])[C@@]2([H])O[C@]1(C([H])([H])[H])n1c3c([H])c([H])c([H])c([H])c3c3c4c(c5c6c([H])c([H])c([H])c([H])c6n2c5c31)C(=O)N([H])C4([H])[H]


 36 43  0  0  0  0  0  0  0  0999 V2000
    1.1113    7.3321    4.7076 C   0  0  0  0  0  0  0  0  0  0  0  0
    0.7073    7.6533    6.1057 C   0  0  0  0  0  0  0  0  0  0  0  0
    0.0363    6.4499    6.4589 O   0  0  0  0  0  0  0  0  0  0  0  0
   -0.9349    6.7146    7.3626 C   0  0  0  0  0  0  0  0  0  0  0  0
   -1.4576    8.0558    7.0700 C   0  0  0  0  0  0  0  0  0  0  0  0
   -0.3805    8.6809    6.2115 C   0  0  0  0  0  0  0  0  0  0  0  0
    0.0239    9.8373    6.8615 O   0  0  0  0  0  0  0  0  0  0  0  0
   -0.4301    6.5461    8.7315 N   0  0  0  0  0  0  0  0  0  0  0  0
   -1.0385    6.0407    9.7907 C   0  0  0  0  0  0  0  0  0  0  0  0
   -2.3114    5.5415    9.8886 C   0  0  0  0  0  0  0  0  0  0  0  0
   -2.7376    5.0583   11.1197 C   0  0  0  0  0  0  0  0  0  0  0  0
   -1.9048    5.0808   12.2089 C   0  0  0  0  0  0  0  0  0  0  0  0
   -0.6042    5.5900   12.1118 C   0  0  0  0  0  0  0  0  0  0  0  0
   -0.1960    6.0619   10.8981 C   0  0  0  0  0  0  0  0  0  0  0  0
    0.9832    6.6175   10.4562 C   0  0  0  0  0  0  0  0  0  0  0  0
    2.1868    6.9194   11.0669 C   0  0  0  0  0  0  0  0  0  0  0  0
    2.7196    6.7638   12.4085 C   0  0  0  0  0  0  0  0  0  0  0  0
    2.2099    6.2943   13.4272 O   0  0  0  0  0  0  0  0  0  0  0  0
    4.0548    7.2787   12.4013 N   0  0  0  0  0  0  0  0  0  0  0  0
    4.4031    7.7730   11.0914 C   0  0  0  0  0  0  0  0  0  0  0  0
    3.1768    7.5057   10.3005 C   0  0  0  0  0  0  0  0  0  0  0  0
    2.9978    7.7950    8.9523 C   0  0  0  0  0  0  0  0  0  0  0  0
    3.7563    8.3674    7.9803 C   0  0  0  0  0  0  0  0  0  0  0  0
    5.0345    8.8737    8.0329 C   0  0  0  0  0  0  0  0  0  0  0  0
    5.5893    9.4359    6.8794 C   0  0  0  0  0  0  0  0  0  0  0  0
    4.8305    9.4634    5.7230 C   0  0  0  0  0  0  0  0  0  0  0  0
    3.5465    8.9474    5.6957 C   0  0  0  0  0  0  0  0  0  0  0  0
    2.9822    8.3891    6.8173 C   0  0  0  0  0  0  0  0  0  0  0  0
    1.7637    7.8358    7.0596 N   0  0  0  0  0  0  0  0  0  0  0  0
    1.8065    7.4834    8.3887 C   0  0  0  0  0  0  0  0  0  0  0  0
    0.7956    6.8995    9.1202 C   0  0  0  0  0  0  0  0  0  0  0  0
   -0.5358   10.5842    6.5393 H   0  0  0  0  0  0  0  0  0  0  0  0
    4.7242    7.3115   13.2172 H   0  0  0  0  0  0  0  0  0  0  0  0
   -0.9878    9.0571    4.9026 C   0  0  0  0  0  0  0  0  0  0  0  0
   -2.3398    8.7131    4.9308 O   0  0  0  0  0  0  0  0  0  0  0  0
   -2.5511    7.9471    4.3388 H   0  0  0  0  0  0  0  0  0  0  0  0
  2  1  1  0  0  0
  2  3  1  0  0  0
  3  4  1  0  0  0
  4  5  1  0  0  0
  5  6  1  0  0  0
  6  7  1  0  0  0
  6 34  1  0  0  0
 34 35  1  0  0  0
  4  8  1  0  0  0
  8  9  1  0  0  0
  9 10  2  0  0  0
 10 11  1  0  0  0
 11 12  2  0  0  0
 12 13  1  0  0  0
 13 14  2  0  0  0
 14 15  1  0  0  0
 15 16  2  0  0  0
 16 17  1  0  0  0
 17 18  2  0  0  0
 17 19  1  0  0  0
 19 20  1  0  0  0
 20 21  1  0  0  0
 21 22  2  0  0  0
 22 23  1  0  0  0
 23 24  2  0  0  0
 24 25  1  0  0  0
 25 26  2  0  0  0
 26 27  1  0  0  0
 27 28  2  0  0  0
 28 29  1  0  0  0
 29 30  1  0  0  0
 30 31  2  0  0  0
  6  2  1  0  0  0
 31  8  1  0  0  0
 29  2  1  0  0  0
 14  9  1  0  0  0
 31 15  1  0  0  0
 21 16  1  0  0  0
 30 22  1  0  0  0
 28 23  1  0  0  0
  7 32  1  0  0  0
 35 36  1  0  0  0
 19 33  1  0  0  0
M  END
> <minimizedAffinity>
-7.16882

> <CNNscore>
0.3910136521

> <CNNaffinity>
5.0092048645

> <CNN_VS>
1.9586675167

> <CNNaffinity_variance>
0.6244727969

$$$$
[H]OC([H])([H])[C@@]1(O[H])C([H])([H])[C@@]2([H])O[C@]1(C([H])([H])[H])n1c3c([H])c([H])c([H])c([H])c3c3c4c(c5c6c([H])c([H])c([H])c([H])c6n2c5c31)C(=O)N([H])C4([H])[H]


 36 43  0  0  0  0  0  0  0  0999 V2000
    4.5458    4.7878   11.2423 C   0  0  0  0  0  0  0  0  0  0  0  0
    4.1063    5.9137   10.3703 C   0  0  0  0  0  0  0  0  0  0  0  0
    4.6495    5.4964    9.1238 O   0  0  0  0  0  0  0  0  0  0  0  0
    4.9538    6.5783    8.3708 C   0  0  0  0  0  0  0  0  0  0  0  0
    5.3622    7.6527    9.2853 C   0  0  0  0  0  0  0  0  0  0  0  0
    4.8230    7.2065   10.6263 C   0  0  0  0  0  0  0  0  0  0  0  0
    3.9832    8.2160   11.0723 O   0  0  0  0  0  0  0  0  0  0  0  0
    3.8337    6.9274    7.4872 N   0  0  0  0  0  0  0  0  0  0  0  0
    3.8575    7.3584    6.2378 C   0  0  0  0  0  0  0  0  0  0  0  0
    4.9434    7.5974    5.4361 C   0  0  0  0  0  0  0  0  0  0  0  0
    4.7207    8.0523    4.1422 C   0  0  0  0  0  0  0  0  0  0  0  0
    3.4460    8.2566    3.6798 C   0  0  0  0  0  0  0  0  0  0  0  0
    2.3350    8.0134    4.4964 C   0  0  0  0  0  0  0  0  0  0  0  0
    2.5652    7.5669    5.7653 C   0  0  0  0  0  0  0  0  0  0  0  0
    1.7309    7.2361    6.8088 C   0  0  0  0  0  0  0  0  0  0  0  0
    0.3580    7.2416    6.9751 C   0  0  0  0  0  0  0  0  0  0  0  0
   -0.7730    7.5741    6.1276 C   0  0  0  0  0  0  0  0  0  0  0  0
   -0.8158    7.9678    4.9610 O   0  0  0  0  0  0  0  0  0  0  0  0
   -1.9610    7.3656    6.8977 N   0  0  0  0  0  0  0  0  0  0  0  0
   -1.6330    6.9131    8.2278 C   0  0  0  0  0  0  0  0  0  0  0  0
   -0.1511    6.8517    8.1999 C   0  0  0  0  0  0  0  0  0  0  0  0
    0.6680    6.4595    9.2529 C   0  0  0  0  0  0  0  0  0  0  0  0
    0.4631    6.0564   10.5349 C   0  0  0  0  0  0  0  0  0  0  0  0
   -0.7073    5.8970   11.2402 C   0  0  0  0  0  0  0  0  0  0  0  0
   -0.6442    5.4836   12.5743 C   0  0  0  0  0  0  0  0  0  0  0  0
    0.5967    5.2495   13.1390 C   0  0  0  0  0  0  0  0  0  0  0  0
    1.7601    5.4172   12.4082 C   0  0  0  0  0  0  0  0  0  0  0  0
    1.7212    5.8215   11.0954 C   0  0  0  0  0  0  0  0  0  0  0  0
    2.6930    6.0698   10.1770 N   0  0  0  0  0  0  0  0  0  0  0  0
    2.0072    6.4653    9.0520 C   0  0  0  0  0  0  0  0  0  0  0  0
    2.5517    6.8485    7.8460 C   0  0  0  0  0  0  0  0  0  0  0  0
    4.5199    8.8514   11.6044 H   0  0  0  0  0  0  0  0  0  0  0  0
   -2.9563    7.5105    6.5763 H   0  0  0  0  0  0  0  0  0  0  0  0
    5.9691    7.0868   11.5727 C   0  0  0  0  0  0  0  0  0  0  0  0
    5.7208    7.9125   12.6697 O   0  0  0  0  0  0  0  0  0  0  0  0
    6.3184    8.7025   12.6958 H   0  0  0  0  0  0  0  0  0  0  0  0
  2  1  1  0  0  0
  2  3  1  0  0  0
  3  4  1  0  0  0
  4  5  1  0  0  0
  5  6  1  0  0  0
  6  7  1  0  0  0
  6 34  1  0  0  0
 34 35  1  0  0  0
  4  8  1  0  0  0
  8  9  1  0  0  0
  9 10  2  0  0  0
 10 11  1  0  0  0
 11 12  2  0  0  0
 12 13  1  0  0  0
 13 14  2  0  0  0
 14 15  1  0  0  0
 15 16  2  0  0  0
 16 17  1  0  0  0
 17 18  2  0  0  0
 17 19  1  0  0  0
 19 20  1  0  0  0
 20 21  1  0  0  0
 21 22  2  0  0  0
 22 23  1  0  0  0
 23 24  2  0  0  0
 24 25  1  0  0  0
 25 26  2  0  0  0
 26 27  1  0  0  0
 27 28  2  0  0  0
 28 29  1  0  0  0
 29 30  1  0  0  0
 30 31  2  0  0  0
  6  2  1  0  0  0
 31  8  1  0  0  0
 29  2  1  0  0  0
 14  9  1  0  0  0
 31 15  1  0  0  0
 21 16  1  0  0  0
 30 22  1  0  0  0
 28 23  1  0  0  0
  7 32  1  0  0  0
 35 36  1  0  0  0
 19 33  1  0  0  0
M  END
> <minimizedAffinity>
-5.94127

> <CNNscore>
0.3646771908

> <CNNaffinity>
5.2120161057

> <CNN_VS>
1.9007034302

> <CNNaffinity_variance>
0.1994161159

$$$$
[H]OC([H])([H])[C@@]1(O[H])C([H])([H])[C@@]2([H])O[C@]1(C([H])([H])[H])n1c3c([H])c([H])c([H])c([H])c3c3c4c(c5c6c([H])c([H])c([H])c([H])c6n2c5c31)C(=O)N([H])C4([H])[H]


 36 43  0  0  0  0  0  0  0  0999 V2000
    5.8342   -0.0204    7.9139 C   0  0  0  0  0  0  0  0  0  0  0  0
    5.0202    1.1829    8.2466 C   0  0  0  0  0  0  0  0  0  0  0  0
    4.4238    0.7569    9.4655 O   0  0  0  0  0  0  0  0  0  0  0  0
    3.2144    1.3445    9.6143 C   0  0  0  0  0  0  0  0  0  0  0  0
    2.6403    1.5202    8.2737 C   0  0  0  0  0  0  0  0  0  0  0  0
    3.8331    1.3893    7.3528 C   0  0  0  0  0  0  0  0  0  0  0  0
    3.9003    2.5653    6.6208 O   0  0  0  0  0  0  0  0  0  0  0  0
    3.3322    2.5857   10.3906 N   0  0  0  0  0  0  0  0  0  0  0  0
    2.5157    3.0807   11.3048 C   0  0  0  0  0  0  0  0  0  0  0  0
    1.3343    2.5616   11.7673 C   0  0  0  0  0  0  0  0  0  0  0  0
    0.6406    3.2673   12.7427 C   0  0  0  0  0  0  0  0  0  0  0  0
    1.1268    4.4534   13.2300 C   0  0  0  0  0  0  0  0  0  0  0  0
    2.3332    4.9859   12.7595 C   0  0  0  0  0  0  0  0  0  0  0  0
    3.0061    4.2846   11.8015 C   0  0  0  0  0  0  0  0  0  0  0  0
    4.1879    4.5080   11.1322 C   0  0  0  0  0  0  0  0  0  0  0  0
    5.1282    5.5216   11.1628 C   0  0  0  0  0  0  0  0  0  0  0  0
    5.2788    6.7537   11.9159 C   0  0  0  0  0  0  0  0  0  0  0  0
    4.5635    7.2599   12.7820 O   0  0  0  0  0  0  0  0  0  0  0  0
    6.4924    7.3754   11.4816 N   0  0  0  0  0  0  0  0  0  0  0  0
    7.1325    6.5840   10.4591 C   0  0  0  0  0  0  0  0  0  0  0  0
    6.2169    5.4257   10.3161 C   0  0  0  0  0  0  0  0  0  0  0  0
    6.3894    4.3531    9.4481 C   0  0  0  0  0  0  0  0  0  0  0  0
    7.3167    4.0066    8.5166 C   0  0  0  0  0  0  0  0  0  0  0  0
    8.4602    4.6582    8.1155 C   0  0  0  0  0  0  0  0  0  0  0  0
    9.2453    4.0915    7.1070 C   0  0  0  0  0  0  0  0  0  0  0  0
    8.8427    2.8926    6.5466 C   0  0  0  0  0  0  0  0  0  0  0  0
    7.6877    2.2565    6.9676 C   0  0  0  0  0  0  0  0  0  0  0  0
    6.9019    2.7950    7.9580 C   0  0  0  0  0  0  0  0  0  0  0  0
    5.7384    2.3913    8.5347 N   0  0  0  0  0  0  0  0  0  0  0  0
    5.4488    3.3789    9.4476 C   0  0  0  0  0  0  0  0  0  0  0  0
    4.3497    3.4401   10.2760 C   0  0  0  0  0  0  0  0  0  0  0  0
    3.3692    2.4466    5.7968 H   0  0  0  0  0  0  0  0  0  0  0  0
    6.8980    8.2846   11.8333 H   0  0  0  0  0  0  0  0  0  0  0  0
    3.5763    0.2582    6.4157 C   0  0  0  0  0  0  0  0  0  0  0  0
    2.2509   -0.1490    6.5717 O   0  0  0  0  0  0  0  0  0  0  0  0
    2.1727   -1.0357    7.0071 H   0  0  0  0  0  0  0  0  0  0  0  0
  2  1  1  0  0  0
  2  3  1  0  0  0
  3  4  1  0  0  0
  4  5  1  0  0  0
  5  6  1  0  0  0
  6  7  1  0  0  0
  6 34  1  0  0  0
 34 35  1  0  0  0
  4  8  1  0  0  0
  8  9  1  0  0  0
  9 10  2  0  0  0
 10 11  1  0  0  0
 11 12  2  0  0  0
 12 13  1  0  0  0
 13 14  2  0  0  0
 14 15  1  0  0  0
 15 16  2  0  0  0
 16 17  1  0  0  0
 17 18  2  0  0  0
 17 19  1  0  0  0
 19 20  1  0  0  0
 20 21  1  0  0  0
 21 22  2  0  0  0
 22 23  1  0  0  0
 23 24  2  0  0  0
 24 25  1  0  0  0
 25 26  2  0  0  0
 26 27  1  0  0  0
 27 28  2  0  0  0
 28 29  1  0  0  0
 29 30  1  0  0  0
 30 31  2  0  0  0
  6  2  1  0  0  0
 31  8  1  0  0  0
 29  2  1  0  0  0
 14  9  1  0  0  0
 31 15  1  0  0  0
 21 16  1  0  0  0
 30 22  1  0  0  0
 28 23  1  0  0  0
  7 32  1  0  0  0
 35 36  1  0  0  0
 19 33  1  0  0  0
M  END
> <minimizedAffinity>
-5.94469

> <CNNscore>
0.3505046666

> <CNNaffinity>
5.0939383507

> <CNN_VS>
1.7854491472

> <CNNaffinity_variance>
0.5511047244

$$$$
[H]OC([H])([H])[C@@]1(O[H])C([H])([H])[C@@]2([H])O[C@]1(C([H])([H])[H])n1c3c([H])c([H])c([H])c([H])c3c3c4c(c5c6c([H])c([H])c([H])c([H])c6n2c5c31)C(=O)N([H])C4([H])[H]


 36 43  0  0  0  0  0  0  0  0999 V2000
    6.9123    6.2527   20.1399 C   0  0  0  0  0  0  0  0  0  0  0  0
    5.6122    6.0517   19.4395 C   0  0  0  0  0  0  0  0  0  0  0  0
    5.9428    6.5406   18.1454 O   0  0  0  0  0  0  0  0  0  0  0  0
    4.8412    7.0591   17.5558 C   0  0  0  0  0  0  0  0  0  0  0  0
    4.0024    7.6351   18.6151 C   0  0  0  0  0  0  0  0  0  0  0  0
    4.5254    6.9880   19.8783 C   0  0  0  0  0  0  0  0  0  0  0  0
    3.4504    6.3379   20.4657 O   0  0  0  0  0  0  0  0  0  0  0  0
    4.1676    6.0463   16.7326 N   0  0  0  0  0  0  0  0  0  0  0  0
    3.5762    6.1819   15.5582 C   0  0  0  0  0  0  0  0  0  0  0  0
    3.4330    7.3137   14.7983 C   0  0  0  0  0  0  0  0  0  0  0  0
    2.7660    7.2128   13.5836 C   0  0  0  0  0  0  0  0  0  0  0  0
    2.2639    6.0103   13.1565 C   0  0  0  0  0  0  0  0  0  0  0  0
    2.4087    4.8526   13.9305 C   0  0  0  0  0  0  0  0  0  0  0  0
    3.0654    4.9632   15.1217 C   0  0  0  0  0  0  0  0  0  0  0  0
    3.3790    4.0552   16.1074 C   0  0  0  0  0  0  0  0  0  0  0  0
    3.1410    2.7031   16.2739 C   0  0  0  0  0  0  0  0  0  0  0  0
    2.4867    1.6756   15.4841 C   0  0  0  0  0  0  0  0  0  0  0  0
    1.9307    1.7366   14.3863 O   0  0  0  0  0  0  0  0  0  0  0  0
    2.5767    0.4498   16.2171 N   0  0  0  0  0  0  0  0  0  0  0  0
    3.2662    0.6537   17.4679 C   0  0  0  0  0  0  0  0  0  0  0  0
    3.5984    2.0989   17.4303 C   0  0  0  0  0  0  0  0  0  0  0  0
    4.2817    2.8037   18.4151 C   0  0  0  0  0  0  0  0  0  0  0  0
    4.8169    2.4946   19.6258 C   0  0  0  0  0  0  0  0  0  0  0  0
    4.8533    1.2968   20.3019 C   0  0  0  0  0  0  0  0  0  0  0  0
    5.4558    1.2477   21.5625 C   0  0  0  0  0  0  0  0  0  0  0  0
    5.9950    2.4088   22.0866 C   0  0  0  0  0  0  0  0  0  0  0  0
    5.9456    3.6018   21.3866 C   0  0  0  0  0  0  0  0  0  0  0  0
    5.3594    3.6725   20.1457 C   0  0  0  0  0  0  0  0  0  0  0  0
    5.1694    4.6971   19.2718 N   0  0  0  0  0  0  0  0  0  0  0  0
    4.4975    4.1257   18.2160 C   0  0  0  0  0  0  0  0  0  0  0  0
    4.0559    4.7629   17.0773 C   0  0  0  0  0  0  0  0  0  0  0  0
    3.0082    6.9687   21.0833 H   0  0  0  0  0  0  0  0  0  0  0  0
    2.2046   -0.4929   15.9207 H   0  0  0  0  0  0  0  0  0  0  0  0
    4.9897    8.0672   20.7967 C   0  0  0  0  0  0  0  0  0  0  0  0
    4.4006    7.8649   22.0452 O   0  0  0  0  0  0  0  0  0  0  0  0
    3.7151    8.5478   22.2590 H   0  0  0  0  0  0  0  0  0  0  0  0
  2  1  1  0  0  0
  2  3  1  0  0  0
  3  4  1  0  0  0
  4  5  1  0  0  0
  5  6  1  0  0  0
  6  7  1  0  0  0
  6 34  1  0  0  0
 34 35  1  0  0  0
  4  8  1  0  0  0
  8  9  1  0  0  0
  9 10  2  0  0  0
 10 11  1  0  0  0
 11 12  2  0  0  0
 12 13  1  0  0  0
 13 14  2  0  0  0
 14 15  1  0  0  0
 15 16  2  0  0  0
 16 17  1  0  0  0
 17 18  2  0  0  0
 17 19  1  0  0  0
 19 20  1  0  0  0
 20 21  1  0  0  0
 21 22  2  0  0  0
 22 23  1  0  0  0
 23 24  2  0  0  0
 24 25  1  0  0  0
 25 26  2  0  0  0
 26 27  1  0  0  0
 27 28  2  0  0  0
 28 29  1  0  0  0
 29 30  1  0  0  0
 30 31  2  0  0  0
  6  2  1  0  0  0
 31  8  1  0  0  0
 29  2  1  0  0  0
 14  9  1  0  0  0
 31 15  1  0  0  0
 21 16  1  0  0  0
 30 22  1  0  0  0
 28 23  1  0  0  0
  7 32  1  0  0  0
 35 36  1  0  0  0
 19 33  1  0  0  0
M  END
> <minimizedAffinity>
-12.20813

> <CNNscore>
0.3114794493

> <CNNaffinity>
6.0264539719

> <CNN_VS>
1.8771165609

> <CNNaffinity_variance>
0.1796424091

$$$$
[H]OC(=O)[C@@]([H])(N([H])C(=O)[C@@]([H])(N([H])C(=O)[C@@]([H])(N([H])C(=O)[C@@]([H])(N([H])C(=O)OC(C([H])([H])[H])(C([H])([H])[H])C([H])([H])[H])C([H])([H])c1c([H])n([H])c2c([H])c([H])c([H])c([H])c12)[C@@]([H])(C([H])([H])[H])C([H])([H])C([H])([H])[H])C([H])([H])C([H])(C([H])([H])[H])C([H])([H])[H])C([H])([H])c1c([H])c([H])c([H])c([H])c1[H]


 55 57  0  0  0  0  0  0  0  0999 V2000
    3.6417    3.7639   15.5458 C   0  0  0  0  0  0  0  0  0  0  0  0
    3.2998    4.6646   14.4618 C   0  0  0  0  0  0  0  0  0  0  0  0
    2.3077    4.2363   13.7121 O   0  0  0  0  0  0  0  0  0  0  0  0
    3.8046    5.8861   14.0647 N   0  0  0  0  0  0  0  0  0  0  0  0
    4.5672    6.3788   14.5205 H   0  0  0  0  0  0  0  0  0  0  0  0
    3.2381    6.6574   12.8837 C   0  0  0  0  0  0  0  0  0  0  0  0
    4.3759    7.1785   12.1909 C   0  0  0  0  0  0  0  0  0  0  0  0
    4.9664    8.2217   12.6436 O   0  0  0  0  0  0  0  0  0  0  0  0
    4.9538    6.6494   11.0285 N   0  0  0  0  0  0  0  0  0  0  0  0
    4.5511    5.8089   10.5799 H   0  0  0  0  0  0  0  0  0  0  0  0
    6.1480    7.2220   10.4078 C   0  0  0  0  0  0  0  0  0  0  0  0
    6.0223    7.6123    9.0204 C   0  0  0  0  0  0  0  0  0  0  0  0
    6.7116    6.9266    8.0312 O   0  0  0  0  0  0  0  0  0  0  0  0
    5.3160    8.5615    8.6302 O   0  0  0  0  0  0  0  0  0  0  0  0
    7.6988    6.7096    8.1466 H   0  0  0  0  0  0  0  0  0  0  0  0
    7.3444    6.3545   10.7408 C   0  0  0  0  0  0  0  0  0  0  0  0
    8.5314    7.0545   11.2261 C   0  0  0  0  0  0  0  0  0  0  0  0
    8.4819    8.0200   12.2215 C   0  0  0  0  0  0  0  0  0  0  0  0
    9.5593    8.6750   12.7267 C   0  0  0  0  0  0  0  0  0  0  0  0
   10.8034    8.3788   12.2316 C   0  0  0  0  0  0  0  0  0  0  0  0
   10.9222    7.4267   11.2382 C   0  0  0  0  0  0  0  0  0  0  0  0
    9.7965    6.7633   10.7339 C   0  0  0  0  0  0  0  0  0  0  0  0
    2.2581    7.5478   13.5327 C   0  0  0  0  0  0  0  0  0  0  0  0
    0.8243    7.4949   13.2297 C   0  0  0  0  0  0  0  0  0  0  0  0
   -0.0130    6.7336   14.2404 C   0  0  0  0  0  0  0  0  0  0  0  0
    0.3948    7.2716   11.8385 C   0  0  0  0  0  0  0  0  0  0  0  0
    3.8435    4.4763   16.7770 N   0  0  0  0  0  0  0  0  0  0  0  0
    2.9820    5.0427   17.6934 C   0  0  0  0  0  0  0  0  0  0  0  0
    1.7328    5.0194   17.5358 O   0  0  0  0  0  0  0  0  0  0  0  0
    4.8954    4.5995   17.0160 H   0  0  0  0  0  0  0  0  0  0  0  0
    3.4364    5.7253   18.9479 C   0  0  0  0  0  0  0  0  0  0  0  0
    3.4756    4.8757   20.0650 N   0  0  0  0  0  0  0  0  0  0  0  0
    4.2735    3.7251   20.2568 C   0  0  0  0  0  0  0  0  0  0  0  0
    5.0601    3.3917   19.3371 O   0  0  0  0  0  0  0  0  0  0  0  0
    2.8502    5.1270   20.8818 H   0  0  0  0  0  0  0  0  0  0  0  0
    4.2400    2.9452   21.3872 O   0  0  0  0  0  0  0  0  0  0  0  0
    4.8629    3.1870   22.6044 C   0  0  0  0  0  0  0  0  0  0  0  0
    4.2749    4.4518   23.2169 C   0  0  0  0  0  0  0  0  0  0  0  0
    4.6416    2.0720   23.6047 C   0  0  0  0  0  0  0  0  0  0  0  0
    6.3520    3.4487   22.4617 C   0  0  0  0  0  0  0  0  0  0  0  0
    4.7044    6.4960   18.7746 C   0  0  0  0  0  0  0  0  0  0  0  0
    4.8542    7.6936   19.6122 C   0  0  0  0  0  0  0  0  0  0  0  0
    4.2500    8.9327   19.4007 C   0  0  0  0  0  0  0  0  0  0  0  0
    4.6065    9.7259   20.3887 N   0  0  0  0  0  0  0  0  0  0  0  0
    5.4246    9.0991   21.2650 C   0  0  0  0  0  0  0  0  0  0  0  0
    6.0454    9.5308   22.4117 C   0  0  0  0  0  0  0  0  0  0  0  0
    6.8522    8.6478   23.0933 C   0  0  0  0  0  0  0  0  0  0  0  0
    7.0384    7.3565   22.6410 C   0  0  0  0  0  0  0  0  0  0  0  0
    6.4115    6.9389   21.4963 C   0  0  0  0  0  0  0  0  0  0  0  0
    5.5832    7.7985   20.7686 C   0  0  0  0  0  0  0  0  0  0  0  0
    4.3158   10.7211   20.5186 H   0  0  0  0  0  0  0  0  0  0  0  0
    3.1454    2.3897   15.5994 C   0  0  0  0  0  0  0  0  0  0  0  0
    3.0969    1.5821   14.3292 C   0  0  0  0  0  0  0  0  0  0  0  0
    2.9820    0.2259   16.9832 C   0  0  0  0  0  0  0  0  0  0  0  0
    3.6575    1.4904   16.6880 C   0  0  0  0  0  0  0  0  0  0  0  0
 54 55  1  0  0  0
 55 52  1  0  0  0
 52 53  1  0  0  0
 52  1  1  0  0  0
  1 27  1  0  0  0
 27 28  1  0  0  0
 28 29  2  0  0  0
 28 31  1  0  0  0
 31 41  1  0  0  0
 41 42  1  0  0  0
 42 43  2  0  0  0
 43 44  1  0  0  0
 44 45  1  0  0  0
 45 46  2  0  0  0
 46 47  1  0  0  0
 47 48  2  0  0  0
 48 49  1  0  0  0
 49 50  2  0  0  0
 31 32  1  0  0  0
 32 33  1  0  0  0
 33 34  2  0  0  0
 33 36  1  0  0  0
 36 37  1  0  0  0
 37 38  1  0  0  0
 37 39  1  0  0  0
 37 40  1  0  0  0
  1  2  1  0  0  0
  2  3  2  0  0  0
  2  4  1  0  0  0
  4  6  1  0  0  0
  6 23  1  0  0  0
 23 24  1  0  0  0
 24 25  1  0  0  0
 24 26  1  0  0  0
  6  7  1  0  0  0
  7  8  2  0  0  0
  7  9  1  0  0  0
  9 11  1  0  0  0
 11 16  1  0  0  0
 16 17  1  0  0  0
 17 18  2  0  0  0
 18 19  1  0  0  0
 19 20  2  0  0  0
 20 21  1  0  0  0
 21 22  2  0  0  0
 11 12  1  0  0  0
 12 13  1  0  0  0
 12 14  2  0  0  0
 50 42  1  0  0  0
 22 17  1  0  0  0
 50 45  1  0  0  0
 27 30  1  0  0  0
 44 51  1  0  0  0
 32 35  1  0  0  0
  4  5  1  0  0  0
  9 10  1  0  0  0
 13 15  1  0  0  0
M  END
> <minimizedAffinity>
-8.71718

> <CNNscore>
0.3869720399

> <CNNaffinity>
7.1386780739

> <CNN_VS>
2.7624688148

> <CNNaffinity_variance>
0.2347671688

$$$$
[H]OC(=O)[C@@]([H])(N([H])C(=O)[C@@]([H])(N([H])C(=O)[C@@]([H])(N([H])C(=O)[C@@]([H])(N([H])C(=O)OC(C([H])([H])[H])(C([H])([H])[H])C([H])([H])[H])C([H])([H])c1c([H])n([H])c2c([H])c([H])c([H])c([H])c12)[C@@]([H])(C([H])([H])[H])C([H])([H])C([H])([H])[H])C([H])([H])C([H])(C([H])([H])[H])C([H])([H])[H])C([H])([H])c1c([H])c([H])c([H])c([H])c1[H]


 55 57  0  0  0  0  0  0  0  0999 V2000
    5.4254    4.5577   21.1703 C   0  0  0  0  0  0  0  0  0  0  0  0
    6.5571    5.3798   21.5532 C   0  0  0  0  0  0  0  0  0  0  0  0
    6.8642    6.3017   20.6668 O   0  0  0  0  0  0  0  0  0  0  0  0
    7.3719    5.3913   22.6669 N   0  0  0  0  0  0  0  0  0  0  0  0
    7.2883    4.7597   23.4582 H   0  0  0  0  0  0  0  0  0  0  0  0
    8.4977    6.3974   22.8430 C   0  0  0  0  0  0  0  0  0  0  0  0
    7.8673    7.6810   22.8068 C   0  0  0  0  0  0  0  0  0  0  0  0
    7.1371    8.0528   23.7919 O   0  0  0  0  0  0  0  0  0  0  0  0
    7.9704    8.6275   21.7779 N   0  0  0  0  0  0  0  0  0  0  0  0
    8.5343    8.4245   20.9348 H   0  0  0  0  0  0  0  0  0  0  0  0
    7.3257    9.9387   21.8420 C   0  0  0  0  0  0  0  0  0  0  0  0
    7.8948   10.8855   22.7764 C   0  0  0  0  0  0  0  0  0  0  0  0
    9.2621   10.9101   23.0084 O   0  0  0  0  0  0  0  0  0  0  0  0
    7.2208   11.7121   23.4202 O   0  0  0  0  0  0  0  0  0  0  0  0
    9.7719   10.0463   23.1783 H   0  0  0  0  0  0  0  0  0  0  0  0
    5.8252    9.7499   21.9295 C   0  0  0  0  0  0  0  0  0  0  0  0
    5.0790    9.9444   20.6885 C   0  0  0  0  0  0  0  0  0  0  0  0
    5.0766   11.1442   19.9915 C   0  0  0  0  0  0  0  0  0  0  0  0
    4.4250   11.3641   18.8200 C   0  0  0  0  0  0  0  0  0  0  0  0
    3.7058   10.3382   18.2625 C   0  0  0  0  0  0  0  0  0  0  0  0
    3.6666    9.1172   18.9066 C   0  0  0  0  0  0  0  0  0  0  0  0
    4.3479    8.9139   20.1133 C   0  0  0  0  0  0  0  0  0  0  0  0
    9.4554    5.9808   21.8021 C   0  0  0  0  0  0  0  0  0  0  0  0
   10.9034    6.1623   21.9459 C   0  0  0  0  0  0  0  0  0  0  0  0
   11.5551    5.2804   22.9946 C   0  0  0  0  0  0  0  0  0  0  0  0
   11.4606    7.5254   21.9101 C   0  0  0  0  0  0  0  0  0  0  0  0
    5.2687    4.5114   19.7429 N   0  0  0  0  0  0  0  0  0  0  0  0
    4.3126    5.0065   18.8805 C   0  0  0  0  0  0  0  0  0  0  0  0
    3.3037    5.6358   19.2951 O   0  0  0  0  0  0  0  0  0  0  0  0
    6.0660    3.9575   19.2569 H   0  0  0  0  0  0  0  0  0  0  0  0
    4.3792    4.8532   17.3911 C   0  0  0  0  0  0  0  0  0  0  0  0
    5.0758    5.8913   16.7520 N   0  0  0  0  0  0  0  0  0  0  0  0
    4.5418    7.0068   16.0679 C   0  0  0  0  0  0  0  0  0  0  0  0
    3.2931    7.1196   16.0062 O   0  0  0  0  0  0  0  0  0  0  0  0
    6.1333    5.8591   16.7971 H   0  0  0  0  0  0  0  0  0  0  0  0
    5.3048    7.9756   15.4625 O   0  0  0  0  0  0  0  0  0  0  0  0
    5.1552    8.4993   14.1853 C   0  0  0  0  0  0  0  0  0  0  0  0
    4.3520    9.7907   14.2723 C   0  0  0  0  0  0  0  0  0  0  0  0
    6.4794    8.8495   13.5397 C   0  0  0  0  0  0  0  0  0  0  0  0
    4.3702    7.5839   13.2622 C   0  0  0  0  0  0  0  0  0  0  0  0
    4.8474    3.5025   16.9569 C   0  0  0  0  0  0  0  0  0  0  0  0
    3.8915    2.7058   16.1760 C   0  0  0  0  0  0  0  0  0  0  0  0
    3.1643    1.6060   16.6307 C   0  0  0  0  0  0  0  0  0  0  0  0
    2.3966    1.1973   15.6428 N   0  0  0  0  0  0  0  0  0  0  0  0
    2.5597    1.9554   14.5342 C   0  0  0  0  0  0  0  0  0  0  0  0
    1.9928    1.8890   13.2848 C   0  0  0  0  0  0  0  0  0  0  0  0
    2.3837    2.8079   12.3372 C   0  0  0  0  0  0  0  0  0  0  0  0
    3.3234    3.7769   12.6280 C   0  0  0  0  0  0  0  0  0  0  0  0
    3.8796    3.8323   13.8791 C   0  0  0  0  0  0  0  0  0  0  0  0
    3.5161    2.9209   14.8751 C   0  0  0  0  0  0  0  0  0  0  0  0
    1.7295    0.3935   15.6695 H   0  0  0  0  0  0  0  0  0  0  0  0
    4.9975    3.4071   21.9643 C   0  0  0  0  0  0  0  0  0  0  0  0
    4.1156    3.6363   23.1634 C   0  0  0  0  0  0  0  0  0  0  0  0
    5.3440    1.0499   20.9909 C   0  0  0  0  0  0  0  0  0  0  0  0
    4.4731    2.1993   21.2414 C   0  0  0  0  0  0  0  0  0  0  0  0
 54 55  1  0  0  0
 55 52  1  0  0  0
 52 53  1  0  0  0
 52  1  1  0  0  0
  1 27  1  0  0  0
 27 28  1  0  0  0
 28 29  2  0  0  0
 28 31  1  0  0  0
 31 41  1  0  0  0
 41 42  1  0  0  0
 42 43  2  0  0  0
 43 44  1  0  0  0
 44 45  1  0  0  0
 45 46  2  0  0  0
 46 47  1  0  0  0
 47 48  2  0  0  0
 48 49  1  0  0  0
 49 50  2  0  0  0
 31 32  1  0  0  0
 32 33  1  0  0  0
 33 34  2  0  0  0
 33 36  1  0  0  0
 36 37  1  0  0  0
 37 38  1  0  0  0
 37 39  1  0  0  0
 37 40  1  0  0  0
  1  2  1  0  0  0
  2  3  2  0  0  0
  2  4  1  0  0  0
  4  6  1  0  0  0
  6 23  1  0  0  0
 23 24  1  0  0  0
 24 25  1  0  0  0
 24 26  1  0  0  0
  6  7  1  0  0  0
  7  8  2  0  0  0
  7  9  1  0  0  0
  9 11  1  0  0  0
 11 16  1  0  0  0
 16 17  1  0  0  0
 17 18  2  0  0  0
 18 19  1  0  0  0
 19 20  2  0  0  0
 20 21  1  0  0  0
 21 22  2  0  0  0
 11 12  1  0  0  0
 12 13  1  0  0  0
 12 14  2  0  0  0
 50 42  1  0  0  0
 22 17  1  0  0  0
 50 45  1  0  0  0
 27 30  1  0  0  0
 44 51  1  0  0  0
 32 35  1  0  0  0
  4  5  1  0  0  0
  9 10  1  0  0  0
 13 15  1  0  0  0
M  END
> <minimizedAffinity>
-9.05796

> <CNNscore>
0.3855773211

> <CNNaffinity>
7.3320493698

> <CNN_VS>
2.8270719051

> <CNNaffinity_variance>
0.2458511144

$$$$
[H]OC(=O)[C@@]([H])(N([H])C(=O)[C@@]([H])(N([H])C(=O)[C@@]([H])(N([H])C(=O)[C@@]([H])(N([H])C(=O)OC(C([H])([H])[H])(C([H])([H])[H])C([H])([H])[H])C([H])([H])c1c([H])n([H])c2c([H])c([H])c([H])c([H])c12)[C@@]([H])(C([H])([H])[H])C([H])([H])C([H])([H])[H])C([H])([H])C([H])(C([H])([H])[H])C([H])([H])[H])C([H])([H])c1c([H])c([H])c([H])c([H])c1[H]


 55 57  0  0  0  0  0  0  0  0999 V2000
    3.4079    3.4142   14.6400 C   0  0  0  0  0  0  0  0  0  0  0  0
    3.1522    4.6096   13.8597 C   0  0  0  0  0  0  0  0  0  0  0  0
    4.0828    4.8663   12.9664 O   0  0  0  0  0  0  0  0  0  0  0  0
    2.1222    5.5281   13.8638 N   0  0  0  0  0  0  0  0  0  0  0  0
    1.3137    5.4960   14.4780 H   0  0  0  0  0  0  0  0  0  0  0  0
    2.0756    6.7049   12.9028 C   0  0  0  0  0  0  0  0  0  0  0  0
    2.6184    7.8101   13.6310 C   0  0  0  0  0  0  0  0  0  0  0  0
    1.8760    8.8229   13.8857 O   0  0  0  0  0  0  0  0  0  0  0  0
    3.9236    7.9133   14.1318 N   0  0  0  0  0  0  0  0  0  0  0  0
    4.6049    7.1504   13.9779 H   0  0  0  0  0  0  0  0  0  0  0  0
    4.3845    9.0648   14.9068 C   0  0  0  0  0  0  0  0  0  0  0  0
    4.8555   10.2008   14.1446 C   0  0  0  0  0  0  0  0  0  0  0  0
    5.7342   10.0226   13.0863 O   0  0  0  0  0  0  0  0  0  0  0  0
    4.5219   11.3778   14.3798 O   0  0  0  0  0  0  0  0  0  0  0  0
    6.5533    9.4283   13.1906 H   0  0  0  0  0  0  0  0  0  0  0  0
    5.3069    8.5843   16.0082 C   0  0  0  0  0  0  0  0  0  0  0  0
    5.1104    9.1915   17.3225 C   0  0  0  0  0  0  0  0  0  0  0  0
    6.0558   10.0110   17.9224 C   0  0  0  0  0  0  0  0  0  0  0  0
    5.9066   10.6221   19.1263 C   0  0  0  0  0  0  0  0  0  0  0  0
    4.7416   10.4300   19.8238 C   0  0  0  0  0  0  0  0  0  0  0  0
    3.7592    9.6242   19.2825 C   0  0  0  0  0  0  0  0  0  0  0  0
    3.9354    9.0057   18.0384 C   0  0  0  0  0  0  0  0  0  0  0  0
    0.6692    6.6916   12.4598 C   0  0  0  0  0  0  0  0  0  0  0  0
   -0.3801    5.9744   13.1910 C   0  0  0  0  0  0  0  0  0  0  0  0
   -1.1012    4.9078   12.3880 C   0  0  0  0  0  0  0  0  0  0  0  0
   -1.2763    6.7312   14.0820 C   0  0  0  0  0  0  0  0  0  0  0  0
    3.7502    3.7363   15.9977 N   0  0  0  0  0  0  0  0  0  0  0  0
    3.0794    4.3861   17.0129 C   0  0  0  0  0  0  0  0  0  0  0  0
    1.9251    4.8626   16.8500 O   0  0  0  0  0  0  0  0  0  0  0  0
    4.7508    3.4076   16.2612 H   0  0  0  0  0  0  0  0  0  0  0  0
    3.6432    4.5824   18.3876 C   0  0  0  0  0  0  0  0  0  0  0  0
    3.6564    3.4101   19.1600 N   0  0  0  0  0  0  0  0  0  0  0  0
    4.3821    2.2202   18.9254 C   0  0  0  0  0  0  0  0  0  0  0  0
    5.1205    2.1689   17.9115 O   0  0  0  0  0  0  0  0  0  0  0  0
    3.0706    3.4096   20.0423 H   0  0  0  0  0  0  0  0  0  0  0  0
    4.3277    1.1130   19.7367 O   0  0  0  0  0  0  0  0  0  0  0  0
    4.7644    1.0004   21.0500 C   0  0  0  0  0  0  0  0  0  0  0  0
    4.8349    2.3912   21.6676 C   0  0  0  0  0  0  0  0  0  0  0  0
    3.8213    0.1862   21.9105 C   0  0  0  0  0  0  0  0  0  0  0  0
    6.1667    0.4275   21.1568 C   0  0  0  0  0  0  0  0  0  0  0  0
    4.9643    5.2799   18.3898 C   0  0  0  0  0  0  0  0  0  0  0  0
    5.2756    6.0741   19.5859 C   0  0  0  0  0  0  0  0  0  0  0  0
    4.4631    6.2336   20.7083 C   0  0  0  0  0  0  0  0  0  0  0  0
    5.1142    6.9855   21.5703 N   0  0  0  0  0  0  0  0  0  0  0  0
    6.3280    7.3527   21.0991 C   0  0  0  0  0  0  0  0  0  0  0  0
    7.3228    8.1342   21.6344 C   0  0  0  0  0  0  0  0  0  0  0  0
    8.4609    8.3486   20.8901 C   0  0  0  0  0  0  0  0  0  0  0  0
    8.6066    7.7946   19.6337 C   0  0  0  0  0  0  0  0  0  0  0  0
    7.6067    7.0157   19.1129 C   0  0  0  0  0  0  0  0  0  0  0  0
    6.4317    6.7694   19.8293 C   0  0  0  0  0  0  0  0  0  0  0  0
    4.7734    7.2839   22.5119 H   0  0  0  0  0  0  0  0  0  0  0  0
    2.7312    2.1478   14.3649 C   0  0  0  0  0  0  0  0  0  0  0  0
    2.5979    1.1367   15.4730 C   0  0  0  0  0  0  0  0  0  0  0  0
    1.3796    1.9480   12.1838 C   0  0  0  0  0  0  0  0  0  0  0  0
    1.4232    2.1857   13.6274 C   0  0  0  0  0  0  0  0  0  0  0  0
 54 55  1  0  0  0
 55 52  1  0  0  0
 52 53  1  0  0  0
 52  1  1  0  0  0
  1 27  1  0  0  0
 27 28  1  0  0  0
 28 29  2  0  0  0
 28 31  1  0  0  0
 31 41  1  0  0  0
 41 42  1  0  0  0
 42 43  2  0  0  0
 43 44  1  0  0  0
 44 45  1  0  0  0
 45 46  2  0  0  0
 46 47  1  0  0  0
 47 48  2  0  0  0
 48 49  1  0  0  0
 49 50  2  0  0  0
 31 32  1  0  0  0
 32 33  1  0  0  0
 33 34  2  0  0  0
 33 36  1  0  0  0
 36 37  1  0  0  0
 37 38  1  0  0  0
 37 39  1  0  0  0
 37 40  1  0  0  0
  1  2  1  0  0  0
  2  3  2  0  0  0
  2  4  1  0  0  0
  4  6  1  0  0  0
  6 23  1  0  0  0
 23 24  1  0  0  0
 24 25  1  0  0  0
 24 26  1  0  0  0
  6  7  1  0  0  0
  7  8  2  0  0  0
  7  9  1  0  0  0
  9 11  1  0  0  0
 11 16  1  0  0  0
 16 17  1  0  0  0
 17 18  2  0  0  0
 18 19  1  0  0  0
 19 20  2  0  0  0
 20 21  1  0  0  0
 21 22  2  0  0  0
 11 12  1  0  0  0
 12 13  1  0  0  0
 12 14  2  0  0  0
 50 42  1  0  0  0
 22 17  1  0  0  0
 50 45  1  0  0  0
 27 30  1  0  0  0
 44 51  1  0  0  0
 32 35  1  0  0  0
  4  5  1  0  0  0
  9 10  1  0  0  0
 13 15  1  0  0  0
M  END
> <minimizedAffinity>
-8.60869

> <CNNscore>
0.3282811642

> <CNNaffinity>
7.3889875412

> <CNN_VS>
2.4256653786

> <CNNaffinity_variance>
0.3136638701

$$$$
[H]OC(=O)[C@@]([H])(N([H])C(=O)[C@@]([H])(N([H])C(=O)[C@@]([H])(N([H])C(=O)[C@@]([H])(N([H])C(=O)OC(C([H])([H])[H])(C([H])([H])[H])C([H])([H])[H])C([H])([H])c1c([H])n([H])c2c([H])c([H])c([H])c([H])c12)[C@@]([H])(C([H])([H])[H])C([H])([H])C([H])([H])[H])C([H])([H])C([H])(C([H])([H])[H])C([H])([H])[H])C([H])([H])c1c([H])c([H])c([H])c([H])c1[H]


 55 57  0  0  0  0  0  0  0  0999 V2000
    5.6505    4.5501   21.1957 C   0  0  0  0  0  0  0  0  0  0  0  0
    6.7537    5.3850   21.6303 C   0  0  0  0  0  0  0  0  0  0  0  0
    7.1051    6.2965   20.7497 O   0  0  0  0  0  0  0  0  0  0  0  0
    7.5040    5.4174   22.7881 N   0  0  0  0  0  0  0  0  0  0  0  0
    7.3793    4.7964   23.5824 H   0  0  0  0  0  0  0  0  0  0  0  0
    8.6120    6.4335   23.0134 C   0  0  0  0  0  0  0  0  0  0  0  0
    7.9724    7.7114   22.9499 C   0  0  0  0  0  0  0  0  0  0  0  0
    7.2223    8.0898   23.9173 O   0  0  0  0  0  0  0  0  0  0  0  0
    8.0861    8.6456   21.9109 N   0  0  0  0  0  0  0  0  0  0  0  0
    8.6660    8.4365   21.0804 H   0  0  0  0  0  0  0  0  0  0  0  0
    7.4301    9.9524   21.9472 C   0  0  0  0  0  0  0  0  0  0  0  0
    7.9772   10.9163   22.8771 C   0  0  0  0  0  0  0  0  0  0  0  0
    9.3474   11.0056   23.0733 O   0  0  0  0  0  0  0  0  0  0  0  0
    7.2813   11.7023   23.5478 O   0  0  0  0  0  0  0  0  0  0  0  0
    9.9031   10.1661   23.2199 H   0  0  0  0  0  0  0  0  0  0  0  0
    5.9300    9.7527   22.0141 C   0  0  0  0  0  0  0  0  0  0  0  0
    5.1955    9.9736   20.7706 C   0  0  0  0  0  0  0  0  0  0  0  0
    4.4000    9.0005   20.1828 C   0  0  0  0  0  0  0  0  0  0  0  0
    3.6750    9.1678   19.0463 C   0  0  0  0  0  0  0  0  0  0  0  0
    3.7158   10.3821   18.4105 C   0  0  0  0  0  0  0  0  0  0  0  0
    4.4896   11.3943   18.9435 C   0  0  0  0  0  0  0  0  0  0  0  0
    5.2276   11.1984   20.1176 C   0  0  0  0  0  0  0  0  0  0  0  0
    9.6179    6.0260   22.0152 C   0  0  0  0  0  0  0  0  0  0  0  0
   11.0566    6.2193   22.2225 C   0  0  0  0  0  0  0  0  0  0  0  0
   11.7161    5.1859   23.1167 C   0  0  0  0  0  0  0  0  0  0  0  0
   11.5715    7.5825   22.4379 C   0  0  0  0  0  0  0  0  0  0  0  0
    5.4133    4.6851   19.7851 N   0  0  0  0  0  0  0  0  0  0  0  0
    4.3636    5.1918   19.0474 C   0  0  0  0  0  0  0  0  0  0  0  0
    3.3251    5.6489   19.5940 O   0  0  0  0  0  0  0  0  0  0  0  0
    6.2299    4.2900   19.1886 H   0  0  0  0  0  0  0  0  0  0  0  0
    4.3549    5.2534   17.5500 C   0  0  0  0  0  0  0  0  0  0  0  0
    4.7854    6.4877   17.0378 N   0  0  0  0  0  0  0  0  0  0  0  0
    4.2850    7.1882   15.9170 C   0  0  0  0  0  0  0  0  0  0  0  0
    3.3348    6.6760   15.2763 O   0  0  0  0  0  0  0  0  0  0  0  0
    5.5681    6.9766   17.5575 H   0  0  0  0  0  0  0  0  0  0  0  0
    4.7762    8.3951   15.4818 O   0  0  0  0  0  0  0  0  0  0  0  0
    4.4178    9.0947   14.3372 C   0  0  0  0  0  0  0  0  0  0  0  0
    5.5500    8.9947   13.3229 C   0  0  0  0  0  0  0  0  0  0  0  0
    3.1814    8.5288   13.6708 C   0  0  0  0  0  0  0  0  0  0  0  0
    4.2192   10.5785   14.5924 C   0  0  0  0  0  0  0  0  0  0  0  0
    5.0499    4.0974   16.9076 C   0  0  0  0  0  0  0  0  0  0  0  0
    4.2023    2.9556   16.5387 C   0  0  0  0  0  0  0  0  0  0  0  0
    3.6889    2.6810   15.2713 C   0  0  0  0  0  0  0  0  0  0  0  0
    3.0138    1.5537   15.3484 N   0  0  0  0  0  0  0  0  0  0  0  0
    3.0340    1.0415   16.6004 C   0  0  0  0  0  0  0  0  0  0  0  0
    2.4626   -0.0845   17.1412 C   0  0  0  0  0  0  0  0  0  0  0  0
    2.6478   -0.3348   18.4821 C   0  0  0  0  0  0  0  0  0  0  0  0
    3.3892    0.5213   19.2721 C   0  0  0  0  0  0  0  0  0  0  0  0
    3.9548    1.6401   18.7188 C   0  0  0  0  0  0  0  0  0  0  0  0
    3.7946    1.9383   17.3623 C   0  0  0  0  0  0  0  0  0  0  0  0
    2.5116    1.0786   14.5649 H   0  0  0  0  0  0  0  0  0  0  0  0
    5.3363    3.2784   21.8450 C   0  0  0  0  0  0  0  0  0  0  0  0
    6.3423    2.1594   21.7814 C   0  0  0  0  0  0  0  0  0  0  0  0
    3.5177    3.9915   23.5206 C   0  0  0  0  0  0  0  0  0  0  0  0
    4.7825    3.3101   23.2409 C   0  0  0  0  0  0  0  0  0  0  0  0
 54 55  1  0  0  0
 55 52  1  0  0  0
 52 53  1  0  0  0
 52  1  1  0  0  0
  1 27  1  0  0  0
 27 28  1  0  0  0
 28 29  2  0  0  0
 28 31  1  0  0  0
 31 41  1  0  0  0
 41 42  1  0  0  0
 42 43  2  0  0  0
 43 44  1  0  0  0
 44 45  1  0  0  0
 45 46  2  0  0  0
 46 47  1  0  0  0
 47 48  2  0  0  0
 48 49  1  0  0  0
 49 50  2  0  0  0
 31 32  1  0  0  0
 32 33  1  0  0  0
 33 34  2  0  0  0
 33 36  1  0  0  0
 36 37  1  0  0  0
 37 38  1  0  0  0
 37 39  1  0  0  0
 37 40  1  0  0  0
  1  2  1  0  0  0
  2  3  2  0  0  0
  2  4  1  0  0  0
  4  6  1  0  0  0
  6 23  1  0  0  0
 23 24  1  0  0  0
 24 25  1  0  0  0
 24 26  1  0  0  0
  6  7  1  0  0  0
  7  8  2  0  0  0
  7  9  1  0  0  0
  9 11  1  0  0  0
 11 16  1  0  0  0
 16 17  1  0  0  0
 17 18  2  0  0  0
 18 19  1  0  0  0
 19 20  2  0  0  0
 20 21  1  0  0  0
 21 22  2  0  0  0
 11 12  1  0  0  0
 12 13  1  0  0  0
 12 14  2  0  0  0
 50 42  1  0  0  0
 22 17  1  0  0  0
 50 45  1  0  0  0
 27 30  1  0  0  0
 44 51  1  0  0  0
 32 35  1  0  0  0
  4  5  1  0  0  0
  9 10  1  0  0  0
 13 15  1  0  0  0
M  END
> <minimizedAffinity>
-9.60386

> <CNNscore>
0.2789614201

> <CNNaffinity>
7.1448836327

> <CNN_VS>
1.9931468964

> <CNNaffinity_variance>
0.3470198512

$$$$
[H]OC(=O)[C@@]([H])(N([H])C(=O)[C@@]([H])(N([H])C(=O)[C@@]([H])(N([H])C(=O)[C@@]([H])(N([H])C(=O)OC(C([H])([H])[H])(C([H])([H])[H])C([H])([H])[H])C([H])([H])c1c([H])n([H])c2c([H])c([H])c([H])c([H])c12)[C@@]([H])(C([H])([H])[H])C([H])([H])C([H])([H])[H])C([H])([H])C([H])(C([H])([H])[H])C([H])([H])[H])C([H])([H])c1c([H])c([H])c([H])c([H])c1[H]


 55 57  0  0  0  0  0  0  0  0999 V2000
    4.2998    5.3671   16.9151 C   0  0  0  0  0  0  0  0  0  0  0  0
    4.5984    6.6001   17.6178 C   0  0  0  0  0  0  0  0  0  0  0  0
    5.7854    7.0929   17.3387 O   0  0  0  0  0  0  0  0  0  0  0  0
    3.8810    7.3631   18.5166 N   0  0  0  0  0  0  0  0  0  0  0  0
    2.9460    7.1473   18.8501 H   0  0  0  0  0  0  0  0  0  0  0  0
    4.4210    8.6590   19.0992 C   0  0  0  0  0  0  0  0  0  0  0  0
    4.9571    8.3052   20.3773 C   0  0  0  0  0  0  0  0  0  0  0  0
    4.5853    8.9534   21.4183 O   0  0  0  0  0  0  0  0  0  0  0  0
    5.8738    7.2770   20.6371 N   0  0  0  0  0  0  0  0  0  0  0  0
    6.2398    6.6949   19.8644 H   0  0  0  0  0  0  0  0  0  0  0  0
    6.3379    6.9533   21.9858 C   0  0  0  0  0  0  0  0  0  0  0  0
    7.1794    7.9408   22.6260 C   0  0  0  0  0  0  0  0  0  0  0  0
    6.6365    8.8608   23.5108 O   0  0  0  0  0  0  0  0  0  0  0  0
    8.4062    8.0354   22.4308 O   0  0  0  0  0  0  0  0  0  0  0  0
    5.7865    9.3663   23.2719 H   0  0  0  0  0  0  0  0  0  0  0  0
    6.8630    5.5324   22.0020 C   0  0  0  0  0  0  0  0  0  0  0  0
    5.9115    4.4996   22.4053 C   0  0  0  0  0  0  0  0  0  0  0  0
    6.2370    3.1515   22.4486 C   0  0  0  0  0  0  0  0  0  0  0  0
    5.3984    2.1592   22.8453 C   0  0  0  0  0  0  0  0  0  0  0  0
    4.1261    2.4880   23.2373 C   0  0  0  0  0  0  0  0  0  0  0  0
    3.7379    3.8133   23.2170 C   0  0  0  0  0  0  0  0  0  0  0  0
    4.6210    4.8193   22.8051 C   0  0  0  0  0  0  0  0  0  0  0  0
    3.2640    9.5645   18.9740 C   0  0  0  0  0  0  0  0  0  0  0  0
    3.4068   10.9816   18.6253 C   0  0  0  0  0  0  0  0  0  0  0  0
    2.1034   11.6996   18.3291 C   0  0  0  0  0  0  0  0  0  0  0  0
    4.5074   11.3921   17.7364 C   0  0  0  0  0  0  0  0  0  0  0  0
    4.3531    5.5479   15.4908 N   0  0  0  0  0  0  0  0  0  0  0  0
    3.3842    5.6764   14.5174 C   0  0  0  0  0  0  0  0  0  0  0  0
    2.1557    5.6269   14.7901 O   0  0  0  0  0  0  0  0  0  0  0  0
    5.3712    5.5721   15.1147 H   0  0  0  0  0  0  0  0  0  0  0  0
    3.6892    5.8893   13.0656 C   0  0  0  0  0  0  0  0  0  0  0  0
    2.7934    5.2369   12.2037 N   0  0  0  0  0  0  0  0  0  0  0  0
    3.0675    4.1968   11.2869 C   0  0  0  0  0  0  0  0  0  0  0  0
    4.2471    3.7749   11.2076 O   0  0  0  0  0  0  0  0  0  0  0  0
    1.7786    5.5362   12.2495 H   0  0  0  0  0  0  0  0  0  0  0  0
    2.1231    3.6196   10.4732 O   0  0  0  0  0  0  0  0  0  0  0  0
    1.6455    2.3165   10.5182 C   0  0  0  0  0  0  0  0  0  0  0  0
    0.3116    2.2542    9.7853 C   0  0  0  0  0  0  0  0  0  0  0  0
    2.5692    1.3327    9.8314 C   0  0  0  0  0  0  0  0  0  0  0  0
    1.3642    1.8415   11.9329 C   0  0  0  0  0  0  0  0  0  0  0  0
    3.8786    7.3271   12.7068 C   0  0  0  0  0  0  0  0  0  0  0  0
    4.7076    7.5959   11.5241 C   0  0  0  0  0  0  0  0  0  0  0  0
    6.0861    7.8076   11.5100 C   0  0  0  0  0  0  0  0  0  0  0  0
    6.4525    7.9762   10.2571 N   0  0  0  0  0  0  0  0  0  0  0  0
    5.3999    7.8943    9.4112 C   0  0  0  0  0  0  0  0  0  0  0  0
    5.3063    8.0220    8.0468 C   0  0  0  0  0  0  0  0  0  0  0  0
    4.0662    7.9057    7.4605 C   0  0  0  0  0  0  0  0  0  0  0  0
    2.9377    7.6664    8.2194 C   0  0  0  0  0  0  0  0  0  0  0  0
    3.0462    7.5397    9.5795 C   0  0  0  0  0  0  0  0  0  0  0  0
    4.2831    7.6508   10.2216 C   0  0  0  0  0  0  0  0  0  0  0  0
    7.4241    8.1522    9.9151 H   0  0  0  0  0  0  0  0  0  0  0  0
    4.6295    4.0563   17.4724 C   0  0  0  0  0  0  0  0  0  0  0  0
    5.2453    3.9816   18.8447 C   0  0  0  0  0  0  0  0  0  0  0  0
    3.5275    2.1201   16.1837 C   0  0  0  0  0  0  0  0  0  0  0  0
    3.6027    2.9641   17.3772 C   0  0  0  0  0  0  0  0  0  0  0  0
 54 55  1  0  0  0
 55 52  1  0  0  0
 52 53  1  0  0  0
 52  1  1  0  0  0
  1 27  1  0  0  0
 27 28  1  0  0  0
 28 29  2  0  0  0
 28 31  1  0  0  0
 31 41  1  0  0  0
 41 42  1  0  0  0
 42 43  2  0  0  0
 43 44  1  0  0  0
 44 45  1  0  0  0
 45 46  2  0  0  0
 46 47  1  0  0  0
 47 48  2  0  0  0
 48 49  1  0  0  0
 49 50  2  0  0  0
 31 32  1  0  0  0
 32 33  1  0  0  0
 33 34  2  0  0  0
 33 36  1  0  0  0
 36 37  1  0  0  0
 37 38  1  0  0  0
 37 39  1  0  0  0
 37 40  1  0  0  0
  1  2  1  0  0  0
  2  3  2  0  0  0
  2  4  1  0  0  0
  4  6  1  0  0  0
  6 23  1  0  0  0
 23 24  1  0  0  0
 24 25  1  0  0  0
 24 26  1  0  0  0
  6  7  1  0  0  0
  7  8  2  0  0  0
  7  9  1  0  0  0
  9 11  1  0  0  0
 11 16  1  0  0  0
 16 17  1  0  0  0
 17 18  2  0  0  0
 18 19  1  0  0  0
 19 20  2  0  0  0
 20 21  1  0  0  0
 21 22  2  0  0  0
 11 12  1  0  0  0
 12 13  1  0  0  0
 12 14  2  0  0  0
 50 42  1  0  0  0
 22 17  1  0  0  0
 50 45  1  0  0  0
 27 30  1  0  0  0
 44 51  1  0  0  0
 32 35  1  0  0  0
  4  5  1  0  0  0
  9 10  1  0  0  0
 13 15  1  0  0  0
M  END
> <minimizedAffinity>
-8.06063

> <CNNscore>
0.1880468428

> <CNNaffinity>
6.6086645126

> <CNN_VS>
1.2427384853

> <CNNaffinity_variance>
0.5463425517

$$$$
[H]OC(=O)[C@@]([H])(N([H])C(=O)[C@@]([H])(N([H])C(=O)[C@@]([H])(N([H])C(=O)[C@@]([H])(N([H])C(=O)OC(C([H])([H])[H])(C([H])([H])[H])C([H])([H])[H])C([H])([H])c1c([H])n([H])c2c([H])c([H])c([H])c([H])c12)[C@@]([H])(C([H])([H])[H])C([H])([H])C([H])([H])[H])C([H])([H])C([H])(C([H])([H])[H])C([H])([H])[H])C([H])([H])c1c([H])c([H])c([H])c([H])c1[H]


 55 57  0  0  0  0  0  0  0  0999 V2000
    3.3018    4.1705   15.1813 C   0  0  0  0  0  0  0  0  0  0  0  0
    2.6691    4.9669   14.1476 C   0  0  0  0  0  0  0  0  0  0  0  0
    2.2788    6.1534   14.5596 O   0  0  0  0  0  0  0  0  0  0  0  0
    2.4012    4.7294   12.8148 N   0  0  0  0  0  0  0  0  0  0  0  0
    2.6309    3.8746   12.3163 H   0  0  0  0  0  0  0  0  0  0  0  0
    1.7377    5.7635   11.9198 C   0  0  0  0  0  0  0  0  0  0  0  0
    0.4645    5.2079   11.5785 C   0  0  0  0  0  0  0  0  0  0  0  0
   -0.3550    4.8900   12.5109 O   0  0  0  0  0  0  0  0  0  0  0  0
   -0.0178    4.9716   10.2837 N   0  0  0  0  0  0  0  0  0  0  0  0
    0.5673    5.1907    9.4594 H   0  0  0  0  0  0  0  0  0  0  0  0
   -1.3548    4.4392   10.0227 C   0  0  0  0  0  0  0  0  0  0  0  0
   -1.4135    3.1092    9.4563 C   0  0  0  0  0  0  0  0  0  0  0  0
   -0.5886    2.1028    9.9366 O   0  0  0  0  0  0  0  0  0  0  0  0
   -2.1774    2.7865    8.5266 O   0  0  0  0  0  0  0  0  0  0  0  0
    0.4035    2.2746   10.0817 H   0  0  0  0  0  0  0  0  0  0  0  0
   -2.1783    5.4933    9.3117 C   0  0  0  0  0  0  0  0  0  0  0  0
   -3.4581    5.8340    9.9286 C   0  0  0  0  0  0  0  0  0  0  0  0
   -4.5527    6.2742    9.1982 C   0  0  0  0  0  0  0  0  0  0  0  0
   -5.7701    6.5731    9.7215 C   0  0  0  0  0  0  0  0  0  0  0  0
   -5.9582    6.4391   11.0732 C   0  0  0  0  0  0  0  0  0  0  0  0
   -4.9079    6.0054   11.8582 C   0  0  0  0  0  0  0  0  0  0  0  0
   -3.6618    5.7019   11.2956 C   0  0  0  0  0  0  0  0  0  0  0  0
    2.7725    6.0018   10.8966 C   0  0  0  0  0  0  0  0  0  0  0  0
    3.5867    7.2210   10.8688 C   0  0  0  0  0  0  0  0  0  0  0  0
    4.2281    7.5286    9.5285 C   0  0  0  0  0  0  0  0  0  0  0  0
    4.4659    7.5203   12.0122 C   0  0  0  0  0  0  0  0  0  0  0  0
    3.6499    4.9712   16.3223 N   0  0  0  0  0  0  0  0  0  0  0  0
    2.9881    5.2914   17.4895 C   0  0  0  0  0  0  0  0  0  0  0  0
    1.8228    4.8784   17.7291 O   0  0  0  0  0  0  0  0  0  0  0  0
    4.6325    5.4227   16.2266 H   0  0  0  0  0  0  0  0  0  0  0  0
    3.5795    6.1424   18.5723 C   0  0  0  0  0  0  0  0  0  0  0  0
    4.1172    5.4009   19.6364 N   0  0  0  0  0  0  0  0  0  0  0  0
    5.1445    4.4314   19.5913 C   0  0  0  0  0  0  0  0  0  0  0  0
    5.6683    4.1771   18.4792 O   0  0  0  0  0  0  0  0  0  0  0  0
    3.7290    5.5961   20.6022 H   0  0  0  0  0  0  0  0  0  0  0  0
    5.6047    3.7462   20.6894 O   0  0  0  0  0  0  0  0  0  0  0  0
    5.1205    2.5537   21.2104 C   0  0  0  0  0  0  0  0  0  0  0  0
    4.2272    1.8879   20.1715 C   0  0  0  0  0  0  0  0  0  0  0  0
    6.2236    1.5686   21.5355 C   0  0  0  0  0  0  0  0  0  0  0  0
    4.2489    2.7582   22.4371 C   0  0  0  0  0  0  0  0  0  0  0  0
    4.5312    7.1734   18.0593 C   0  0  0  0  0  0  0  0  0  0  0  0
    4.0170    8.5472   17.9799 C   0  0  0  0  0  0  0  0  0  0  0  0
    3.5602    9.3231   19.0451 C   0  0  0  0  0  0  0  0  0  0  0  0
    3.2213   10.5012   18.5659 N   0  0  0  0  0  0  0  0  0  0  0  0
    3.4182   10.5748   17.2295 C   0  0  0  0  0  0  0  0  0  0  0  0
    3.1927   11.5810   16.3221 C   0  0  0  0  0  0  0  0  0  0  0  0
    3.4794   11.3455   14.9964 C   0  0  0  0  0  0  0  0  0  0  0  0
    3.9822   10.1286   14.5804 C   0  0  0  0  0  0  0  0  0  0  0  0
    4.2038    9.1343   15.4969 C   0  0  0  0  0  0  0  0  0  0  0  0
    3.9276    9.3246   16.8542 C   0  0  0  0  0  0  0  0  0  0  0  0
    2.8446   11.3070   19.1143 H   0  0  0  0  0  0  0  0  0  0  0  0
    2.9764    2.7595   15.3828 C   0  0  0  0  0  0  0  0  0  0  0  0
    2.8417    1.8634   14.1799 C   0  0  0  0  0  0  0  0  0  0  0  0
    3.3752    0.6140   16.7472 C   0  0  0  0  0  0  0  0  0  0  0  0
    3.7346    1.9974   16.4319 C   0  0  0  0  0  0  0  0  0  0  0  0
 54 55  1  0  0  0
 55 52  1  0  0  0
 52 53  1  0  0  0
 52  1  1  0  0  0
  1 27  1  0  0  0
 27 28  1  0  0  0
 28 29  2  0  0  0
 28 31  1  0  0  0
 31 41  1  0  0  0
 41 42  1  0  0  0
 42 43  2  0  0  0
 43 44  1  0  0  0
 44 45  1  0  0  0
 45 46  2  0  0  0
 46 47  1  0  0  0
 47 48  2  0  0  0
 48 49  1  0  0  0
 49 50  2  0  0  0
 31 32  1  0  0  0
 32 33  1  0  0  0
 33 34  2  0  0  0
 33 36  1  0  0  0
 36 37  1  0  0  0
 37 38  1  0  0  0
 37 39  1  0  0  0
 37 40  1  0  0  0
  1  2  1  0  0  0
  2  3  2  0  0  0
  2  4  1  0  0  0
  4  6  1  0  0  0
  6 23  1  0  0  0
 23 24  1  0  0  0
 24 25  1  0  0  0
 24 26  1  0  0  0
  6  7  1  0  0  0
  7  8  2  0  0  0
  7  9  1  0  0  0
  9 11  1  0  0  0
 11 16  1  0  0  0
 16 17  1  0  0  0
 17 18  2  0  0  0
 18 19  1  0  0  0
 19 20  2  0  0  0
 20 21  1  0  0  0
 21 22  2  0  0  0
 11 12  1  0  0  0
 12 13  1  0  0  0
 12 14  2  0  0  0
 50 42  1  0  0  0
 22 17  1  0  0  0
 50 45  1  0  0  0
 27 30  1  0  0  0
 44 51  1  0  0  0
 32 35  1  0  0  0
  4  5  1  0  0  0
  9 10  1  0  0  0
 13 15  1  0  0  0
M  END
> <minimizedAffinity>
-8.23613

> <CNNscore>
0.1859900504

> <CNNaffinity>
6.5503129959

> <CNN_VS>
1.2182930708

> <CNNaffinity_variance>
0.5265821815

$$$$
[H]OC(=O)[C@@]([H])(N([H])C(=O)[C@@]([H])(N([H])C(=O)[C@@]([H])(N([H])C(=O)[C@@]([H])(N([H])C(=O)OC(C([H])([H])[H])(C([H])([H])[H])C([H])([H])[H])C([H])([H])c1c([H])n([H])c2c([H])c([H])c([H])c([H])c12)[C@@]([H])(C([H])([H])[H])C([H])([H])C([H])([H])[H])C([H])([H])C([H])(C([H])([H])[H])C([H])([H])[H])C([H])([H])c1c([H])c([H])c([H])c([H])c1[H]


 55 57  0  0  0  0  0  0  0  0999 V2000
    3.8035    4.1204   15.6022 C   0  0  0  0  0  0  0  0  0  0  0  0
    3.5128    5.0172   14.5001 C   0  0  0  0  0  0  0  0  0  0  0  0
    2.3978    5.6978   14.6528 O   0  0  0  0  0  0  0  0  0  0  0  0
    4.1780    5.3034   13.3253 N   0  0  0  0  0  0  0  0  0  0  0  0
    5.0554    4.8825   13.0336 H   0  0  0  0  0  0  0  0  0  0  0  0
    3.6649    6.3284   12.3269 C   0  0  0  0  0  0  0  0  0  0  0  0
    2.9009    5.5812   11.3759 C   0  0  0  0  0  0  0  0  0  0  0  0
    2.1670    6.2025   10.5290 O   0  0  0  0  0  0  0  0  0  0  0  0
    2.8701    4.1855   11.2489 N   0  0  0  0  0  0  0  0  0  0  0  0
    3.4251    3.5897   11.8867 H   0  0  0  0  0  0  0  0  0  0  0  0
    2.0920    3.5024   10.2158 C   0  0  0  0  0  0  0  0  0  0  0  0
    0.8171    2.9586   10.6310 C   0  0  0  0  0  0  0  0  0  0  0  0
    0.7188    2.2006   11.7884 O   0  0  0  0  0  0  0  0  0  0  0  0
   -0.2435    3.1218    9.9982 O   0  0  0  0  0  0  0  0  0  0  0  0
    1.3867    1.4563   11.9757 H   0  0  0  0  0  0  0  0  0  0  0  0
    2.9975    2.5516    9.4603 C   0  0  0  0  0  0  0  0  0  0  0  0
    4.1863    3.1432    8.8509 C   0  0  0  0  0  0  0  0  0  0  0  0
    4.1215    4.1167    7.8643 C   0  0  0  0  0  0  0  0  0  0  0  0
    5.1960    4.7177    7.2902 C   0  0  0  0  0  0  0  0  0  0  0  0
    6.4530    4.3516    7.6983 C   0  0  0  0  0  0  0  0  0  0  0  0
    6.5874    3.3868    8.6774 C   0  0  0  0  0  0  0  0  0  0  0  0
    5.4643    2.7820    9.2557 C   0  0  0  0  0  0  0  0  0  0  0  0
    4.9009    7.0324   11.9382 C   0  0  0  0  0  0  0  0  0  0  0  0
    5.6020    6.7567   10.6801 C   0  0  0  0  0  0  0  0  0  0  0  0
    7.0461    6.3186   10.8381 C   0  0  0  0  0  0  0  0  0  0  0  0
    5.3936    7.6568    9.5328 C   0  0  0  0  0  0  0  0  0  0  0  0
    4.0262    4.8437   16.8234 N   0  0  0  0  0  0  0  0  0  0  0  0
    3.1930    5.2593   17.8412 C   0  0  0  0  0  0  0  0  0  0  0  0
    1.9527    5.0420   17.8170 O   0  0  0  0  0  0  0  0  0  0  0  0
    5.0660    5.1281   16.9520 H   0  0  0  0  0  0  0  0  0  0  0  0
    3.6707    5.9926   19.0578 C   0  0  0  0  0  0  0  0  0  0  0  0
    3.2730    7.3386   19.0925 N   0  0  0  0  0  0  0  0  0  0  0  0
    4.0841    8.4826   19.2676 C   0  0  0  0  0  0  0  0  0  0  0  0
    5.3200    8.3143   19.4095 O   0  0  0  0  0  0  0  0  0  0  0  0
    2.2427    7.5388   18.9507 H   0  0  0  0  0  0  0  0  0  0  0  0
    3.6040    9.7694   19.2956 O   0  0  0  0  0  0  0  0  0  0  0  0
    3.5689   10.6854   18.2526 C   0  0  0  0  0  0  0  0  0  0  0  0
    2.2537   11.4517   18.3129 C   0  0  0  0  0  0  0  0  0  0  0  0
    4.6785   11.7121   18.3404 C   0  0  0  0  0  0  0  0  0  0  0  0
    3.6011   10.0232   16.8864 C   0  0  0  0  0  0  0  0  0  0  0  0
    3.3693    5.2774   20.3344 C   0  0  0  0  0  0  0  0  0  0  0  0
    4.5177    4.6791   21.0284 C   0  0  0  0  0  0  0  0  0  0  0  0
    5.3970    5.3340   21.8905 C   0  0  0  0  0  0  0  0  0  0  0  0
    6.2619    4.4451   22.3313 N   0  0  0  0  0  0  0  0  0  0  0  0
    6.0254    3.2167   21.8162 C   0  0  0  0  0  0  0  0  0  0  0  0
    6.6697    2.0143   21.9765 C   0  0  0  0  0  0  0  0  0  0  0  0
    6.1962    0.9195   21.2892 C   0  0  0  0  0  0  0  0  0  0  0  0
    5.0996    1.0196   20.4560 C   0  0  0  0  0  0  0  0  0  0  0  0
    4.4656    2.2253   20.3069 C   0  0  0  0  0  0  0  0  0  0  0  0
    4.9091    3.3660   20.9826 C   0  0  0  0  0  0  0  0  0  0  0  0
    7.0472    4.6235   22.9971 H   0  0  0  0  0  0  0  0  0  0  0  0
    3.2448    2.7713   15.6736 C   0  0  0  0  0  0  0  0  0  0  0  0
    3.0860    1.9798   14.4022 C   0  0  0  0  0  0  0  0  0  0  0  0
    3.2575    0.4713   16.8285 C   0  0  0  0  0  0  0  0  0  0  0  0
    3.7729    1.8374   16.7248 C   0  0  0  0  0  0  0  0  0  0  0  0
 54 55  1  0  0  0
 55 52  1  0  0  0
 52 53  1  0  0  0
 52  1  1  0  0  0
  1 27  1  0  0  0
 27 28  1  0  0  0
 28 29  2  0  0  0
 28 31  1  0  0  0
 31 41  1  0  0  0
 41 42  1  0  0  0
 42 43  2  0  0  0
 43 44  1  0  0  0
 44 45  1  0  0  0
 45 46  2  0  0  0
 46 47  1  0  0  0
 47 48  2  0  0  0
 48 49  1  0  0  0
 49 50  2  0  0  0
 31 32  1  0  0  0
 32 33  1  0  0  0
 33 34  2  0  0  0
 33 36  1  0  0  0
 36 37  1  0  0  0
 37 38  1  0  0  0
 37 39  1  0  0  0
 37 40  1  0  0  0
  1  2  1  0  0  0
  2  3  2  0  0  0
  2  4  1  0  0  0
  4  6  1  0  0  0
  6 23  1  0  0  0
 23 24  1  0  0  0
 24 25  1  0  0  0
 24 26  1  0  0  0
  6  7  1  0  0  0
  7  8  2  0  0  0
  7  9  1  0  0  0
  9 11  1  0  0  0
 11 16  1  0  0  0
 16 17  1  0  0  0
 17 18  2  0  0  0
 18 19  1  0  0  0
 19 20  2  0  0  0
 20 21  1  0  0  0
 21 22  2  0  0  0
 11 12  1  0  0  0
 12 13  1  0  0  0
 12 14  2  0  0  0
 50 42  1  0  0  0
 22 17  1  0  0  0
 50 45  1  0  0  0
 27 30  1  0  0  0
 44 51  1  0  0  0
 32 35  1  0  0  0
  4  5  1  0  0  0
  9 10  1  0  0  0
 13 15  1  0  0  0
M  END
> <minimizedAffinity>
-8.19869

> <CNNscore>
0.1795017570

> <CNNaffinity>
6.5664978027

> <CNN_VS>
1.1786979437

> <CNNaffinity_variance>
0.8275702596

$$$$
[H]OC(=O)[C@@]([H])(N([H])C(=O)[C@@]([H])(N([H])C(=O)[C@@]([H])(N([H])C(=O)[C@@]([H])(N([H])C(=O)OC(C([H])([H])[H])(C([H])([H])[H])C([H])([H])[H])C([H])([H])c1c([H])n([H])c2c([H])c([H])c([H])c([H])c12)[C@@]([H])(C([H])([H])[H])C([H])([H])C([H])([H])[H])C([H])([H])C([H])(C([H])([H])[H])C([H])([H])[H])C([H])([H])c1c([H])c([H])c([H])c([H])c1[H]


 55 57  0  0  0  0  0  0  0  0999 V2000
    3.5342    3.4945   15.4232 C   0  0  0  0  0  0  0  0  0  0  0  0
    3.1323    4.3579   14.3294 C   0  0  0  0  0  0  0  0  0  0  0  0
    1.9671    4.0419   13.8077 O   0  0  0  0  0  0  0  0  0  0  0  0
    3.7272    5.4503   13.7315 N   0  0  0  0  0  0  0  0  0  0  0  0
    4.6243    5.8455   13.9981 H   0  0  0  0  0  0  0  0  0  0  0  0
    3.0702    6.2155   12.5942 C   0  0  0  0  0  0  0  0  0  0  0  0
    4.1387    6.5785   11.7152 C   0  0  0  0  0  0  0  0  0  0  0  0
    5.0661    7.3555   12.1374 O   0  0  0  0  0  0  0  0  0  0  0  0
    4.3033    6.1540   10.3894 N   0  0  0  0  0  0  0  0  0  0  0  0
    3.6078    5.5266    9.9507 H   0  0  0  0  0  0  0  0  0  0  0  0
    5.4535    6.5399    9.5725 C   0  0  0  0  0  0  0  0  0  0  0  0
    6.7217    5.9436    9.9324 C   0  0  0  0  0  0  0  0  0  0  0  0
    7.9110    6.6077    9.6708 O   0  0  0  0  0  0  0  0  0  0  0  0
    6.8318    4.8291   10.4779 O   0  0  0  0  0  0  0  0  0  0  0  0
    8.0767    7.0290    8.7597 H   0  0  0  0  0  0  0  0  0  0  0  0
    5.4593    8.0453    9.4037 C   0  0  0  0  0  0  0  0  0  0  0  0
    4.7094    8.5677    8.2638 C   0  0  0  0  0  0  0  0  0  0  0  0
    3.3265    8.6812    8.2605 C   0  0  0  0  0  0  0  0  0  0  0  0
    2.5882    9.1881    7.2391 C   0  0  0  0  0  0  0  0  0  0  0  0
    3.2348    9.6277    6.1125 C   0  0  0  0  0  0  0  0  0  0  0  0
    4.6119    9.5421    6.0512 C   0  0  0  0  0  0  0  0  0  0  0  0
    5.3519    9.0168    7.1180 C   0  0  0  0  0  0  0  0  0  0  0  0
    2.2865    7.2356   13.3150 C   0  0  0  0  0  0  0  0  0  0  0  0
    0.8475    7.4198   13.1011 C   0  0  0  0  0  0  0  0  0  0  0  0
   -0.0381    6.8330   14.1844 C   0  0  0  0  0  0  0  0  0  0  0  0
    0.2972    7.2428   11.7463 C   0  0  0  0  0  0  0  0  0  0  0  0
    3.8807    4.2543   16.5923 N   0  0  0  0  0  0  0  0  0  0  0  0
    3.1361    4.9477   17.5238 C   0  0  0  0  0  0  0  0  0  0  0  0
    1.8818    5.0290   17.4468 O   0  0  0  0  0  0  0  0  0  0  0  0
    4.9531    4.2949   16.7564 H   0  0  0  0  0  0  0  0  0  0  0  0
    3.7325    5.6563   18.7021 C   0  0  0  0  0  0  0  0  0  0  0  0
    3.6894    4.9054   19.8877 N   0  0  0  0  0  0  0  0  0  0  0  0
    4.3170    3.6685   20.1590 C   0  0  0  0  0  0  0  0  0  0  0  0
    5.0110    3.1469   19.2523 O   0  0  0  0  0  0  0  0  0  0  0  0
    3.1388    5.3137   20.6950 H   0  0  0  0  0  0  0  0  0  0  0  0
    4.2127    2.9983   21.3536 O   0  0  0  0  0  0  0  0  0  0  0  0
    4.8034    3.3276   22.5663 C   0  0  0  0  0  0  0  0  0  0  0  0
    4.9255    2.0677   23.4139 C   0  0  0  0  0  0  0  0  0  0  0  0
    6.2027    3.8824   22.4020 C   0  0  0  0  0  0  0  0  0  0  0  0
    3.9686    4.2980   23.3834 C   0  0  0  0  0  0  0  0  0  0  0  0
    5.0922    6.2125   18.4303 C   0  0  0  0  0  0  0  0  0  0  0  0
    5.5566    7.2641   19.3451 C   0  0  0  0  0  0  0  0  0  0  0  0
    6.5069    7.1216   20.3560 C   0  0  0  0  0  0  0  0  0  0  0  0
    6.6693    8.2990   20.9217 N   0  0  0  0  0  0  0  0  0  0  0  0
    5.8799    9.2406   20.3556 C   0  0  0  0  0  0  0  0  0  0  0  0
    5.7048   10.5758   20.6265 C   0  0  0  0  0  0  0  0  0  0  0  0
    4.7941   11.2838   19.8752 C   0  0  0  0  0  0  0  0  0  0  0  0
    4.0693   10.6731   18.8709 C   0  0  0  0  0  0  0  0  0  0  0  0
    4.2555    9.3407   18.6106 C   0  0  0  0  0  0  0  0  0  0  0  0
    5.1679    8.5788   19.3465 C   0  0  0  0  0  0  0  0  0  0  0  0
    7.3170    8.5220   21.7107 H   0  0  0  0  0  0  0  0  0  0  0  0
    2.9857    2.1500   15.5929 C   0  0  0  0  0  0  0  0  0  0  0  0
    2.8063    1.2772   14.3788 C   0  0  0  0  0  0  0  0  0  0  0  0
    2.7413    0.1998   17.2545 C   0  0  0  0  0  0  0  0  0  0  0  0
    3.5409    1.2887   16.6911 C   0  0  0  0  0  0  0  0  0  0  0  0
 54 55  1  0  0  0
 55 52  1  0  0  0
 52 53  1  0  0  0
 52  1  1  0  0  0
  1 27  1  0  0  0
 27 28  1  0  0  0
 28 29  2  0  0  0
 28 31  1  0  0  0
 31 41  1  0  0  0
 41 42  1  0  0  0
 42 43  2  0  0  0
 43 44  1  0  0  0
 44 45  1  0  0  0
 45 46  2  0  0  0
 46 47  1  0  0  0
 47 48  2  0  0  0
 48 49  1  0  0  0
 49 50  2  0  0  0
 31 32  1  0  0  0
 32 33  1  0  0  0
 33 34  2  0  0  0
 33 36  1  0  0  0
 36 37  1  0  0  0
 37 38  1  0  0  0
 37 39  1  0  0  0
 37 40  1  0  0  0
  1  2  1  0  0  0
  2  3  2  0  0  0
  2  4  1  0  0  0
  4  6  1  0  0  0
  6 23  1  0  0  0
 23 24  1  0  0  0
 24 25  1  0  0  0
 24 26  1  0  0  0
  6  7  1  0  0  0
  7  8  2  0  0  0
  7  9  1  0  0  0
  9 11  1  0  0  0
 11 16  1  0  0  0
 16 17  1  0  0  0
 17 18  2  0  0  0
 18 19  1  0  0  0
 19 20  2  0  0  0
 20 21  1  0  0  0
 21 22  2  0  0  0
 11 12  1  0  0  0
 12 13  1  0  0  0
 12 14  2  0  0  0
 50 42  1  0  0  0
 22 17  1  0  0  0
 50 45  1  0  0  0
 27 30  1  0  0  0
 44 51  1  0  0  0
 32 35  1  0  0  0
  4  5  1  0  0  0
  9 10  1  0  0  0
 13 15  1  0  0  0
M  END
> <minimizedAffinity>
-8.29447

> <CNNscore>
0.1754022092

> <CNNaffinity>
6.7910599709

> <CNN_VS>
1.1911668777

> <CNNaffinity_variance>
0.3869838119

$$$$
[H]OC(=O)[C@@]([H])(N([H])C(=O)[C@@]([H])(N([H])C(=O)[C@@]([H])(N([H])C(=O)[C@@]([H])(N([H])C(=O)OC(C([H])([H])[H])(C([H])([H])[H])C([H])([H])[H])C([H])([H])c1c([H])n([H])c2c([H])c([H])c([H])c([H])c12)[C@@]([H])(C([H])([H])[H])C([H])([H])C([H])([H])[H])C([H])([H])C([H])(C([H])([H])[H])C([H])([H])[H])C([H])([H])c1c([H])c([H])c([H])c([H])c1[H]


 55 57  0  0  0  0  0  0  0  0999 V2000
    4.1809    4.8020   17.2317 C   0  0  0  0  0  0  0  0  0  0  0  0
    4.6794    5.9993   17.8807 C   0  0  0  0  0  0  0  0  0  0  0  0
    5.9414    6.2575   17.6153 O   0  0  0  0  0  0  0  0  0  0  0  0
    4.0900    6.9258   18.7166 N   0  0  0  0  0  0  0  0  0  0  0  0
    3.1242    6.8982   19.0304 H   0  0  0  0  0  0  0  0  0  0  0  0
    4.8399    8.1355   19.2503 C   0  0  0  0  0  0  0  0  0  0  0  0
    5.3297    7.7409   20.5350 C   0  0  0  0  0  0  0  0  0  0  0  0
    4.7355    8.1570   21.5913 O   0  0  0  0  0  0  0  0  0  0  0  0
    6.4262    6.9038   20.7839 N   0  0  0  0  0  0  0  0  0  0  0  0
    6.9772    6.5161   19.9991 H   0  0  0  0  0  0  0  0  0  0  0  0
    6.8335    6.5142   22.1336 C   0  0  0  0  0  0  0  0  0  0  0  0
    7.8070    7.3681   22.7787 C   0  0  0  0  0  0  0  0  0  0  0  0
    7.7585    7.5810   24.1485 O   0  0  0  0  0  0  0  0  0  0  0  0
    8.7216    7.9564   22.1709 O   0  0  0  0  0  0  0  0  0  0  0  0
    6.8778    7.8089   24.6040 H   0  0  0  0  0  0  0  0  0  0  0  0
    7.1465    5.0321   22.1488 C   0  0  0  0  0  0  0  0  0  0  0  0
    6.0269    4.1411   22.4441 C   0  0  0  0  0  0  0  0  0  0  0  0
    4.7915    4.6020   22.8762 C   0  0  0  0  0  0  0  0  0  0  0  0
    3.7130    3.8172   23.1334 C   0  0  0  0  0  0  0  0  0  0  0  0
    3.8276    2.4615   22.9618 C   0  0  0  0  0  0  0  0  0  0  0  0
    5.0316    1.9375   22.5339 C   0  0  0  0  0  0  0  0  0  0  0  0
    6.1296    2.7671   22.2736 C   0  0  0  0  0  0  0  0  0  0  0  0
    3.8423    9.2115   19.1044 C   0  0  0  0  0  0  0  0  0  0  0  0
    4.2188   10.6052   18.8473 C   0  0  0  0  0  0  0  0  0  0  0  0
    4.7457   10.8757   17.4504 C   0  0  0  0  0  0  0  0  0  0  0  0
    4.9372   11.3564   19.8911 C   0  0  0  0  0  0  0  0  0  0  0  0
    3.6796    5.0875   15.9159 N   0  0  0  0  0  0  0  0  0  0  0  0
    2.4160    5.3276   15.4174 C   0  0  0  0  0  0  0  0  0  0  0  0
    1.3946    5.3065   16.1537 O   0  0  0  0  0  0  0  0  0  0  0  0
    4.4658    5.0995   15.1673 H   0  0  0  0  0  0  0  0  0  0  0  0
    2.1367    5.6372   13.9778 C   0  0  0  0  0  0  0  0  0  0  0  0
    0.7881    5.4770   13.6221 N   0  0  0  0  0  0  0  0  0  0  0  0
    0.2352    4.5735   12.6864 C   0  0  0  0  0  0  0  0  0  0  0  0
    1.0157    3.7992   12.0805 O   0  0  0  0  0  0  0  0  0  0  0  0
    0.0832    6.0878   14.1237 H   0  0  0  0  0  0  0  0  0  0  0  0
   -1.1049    4.4913   12.3953 O   0  0  0  0  0  0  0  0  0  0  0  0
   -1.7723    5.0364   11.3066 C   0  0  0  0  0  0  0  0  0  0  0  0
   -0.9476    6.1896   10.7491 C   0  0  0  0  0  0  0  0  0  0  0  0
   -1.9560    4.0436   10.1781 C   0  0  0  0  0  0  0  0  0  0  0  0
   -3.1188    5.6315   11.6794 C   0  0  0  0  0  0  0  0  0  0  0  0
    2.6879    6.9548   13.5396 C   0  0  0  0  0  0  0  0  0  0  0  0
    3.7471    6.9080   12.5226 C   0  0  0  0  0  0  0  0  0  0  0  0
    3.7179    6.1864   11.3295 C   0  0  0  0  0  0  0  0  0  0  0  0
    4.8362    6.4373   10.6823 N   0  0  0  0  0  0  0  0  0  0  0  0
    5.6321    7.2897   11.3680 C   0  0  0  0  0  0  0  0  0  0  0  0
    6.8747    7.8071   11.0941 C   0  0  0  0  0  0  0  0  0  0  0  0
    7.4512    8.6523   12.0153 C   0  0  0  0  0  0  0  0  0  0  0  0
    6.8019    8.9771   13.1898 C   0  0  0  0  0  0  0  0  0  0  0  0
    5.5619    8.4548   13.4492 C   0  0  0  0  0  0  0  0  0  0  0  0
    4.9354    7.5914   12.5456 C   0  0  0  0  0  0  0  0  0  0  0  0
    5.1135    6.0489    9.7528 H   0  0  0  0  0  0  0  0  0  0  0  0
    4.7466    3.4807   17.4994 C   0  0  0  0  0  0  0  0  0  0  0  0
    4.7894    2.9801   18.9192 C   0  0  0  0  0  0  0  0  0  0  0  0
    3.4313    1.2958   17.1530 C   0  0  0  0  0  0  0  0  0  0  0  0
    4.3194    2.3341   16.6282 C   0  0  0  0  0  0  0  0  0  0  0  0
 54 55  1  0  0  0
 55 52  1  0  0  0
 52 53  1  0  0  0
 52  1  1  0  0  0
  1 27  1  0  0  0
 27 28  1  0  0  0
 28 29  2  0  0  0
 28 31  1  0  0  0
 31 41  1  0  0  0
 41 42  1  0  0  0
 42 43  2  0  0  0
 43 44  1  0  0  0
 44 45  1  0  0  0
 45 46  2  0  0  0
 46 47  1  0  0  0
 47 48  2  0  0  0
 48 49  1  0  0  0
 49 50  2  0  0  0
 31 32  1  0  0  0
 32 33  1  0  0  0
 33 34  2  0  0  0
 33 36  1  0  0  0
 36 37  1  0  0  0
 37 38  1  0  0  0
 37 39  1  0  0  0
 37 40  1  0  0  0
  1  2  1  0  0  0
  2  3  2  0  0  0
  2  4  1  0  0  0
  4  6  1  0  0  0
  6 23  1  0  0  0
 23 24  1  0  0  0
 24 25  1  0  0  0
 24 26  1  0  0  0
  6  7  1  0  0  0
  7  8  2  0  0  0
  7  9  1  0  0  0
  9 11  1  0  0  0
 11 16  1  0  0  0
 16 17  1  0  0  0
 17 18  2  0  0  0
 18 19  1  0  0  0
 19 20  2  0  0  0
 20 21  1  0  0  0
 21 22  2  0  0  0
 11 12  1  0  0  0
 12 13  1  0  0  0
 12 14  2  0  0  0
 50 42  1  0  0  0
 22 17  1  0  0  0
 50 45  1  0  0  0
 27 30  1  0  0  0
 44 51  1  0  0  0
 32 35  1  0  0  0
  4  5  1  0  0  0
  9 10  1  0  0  0
 13 15  1  0  0  0
M  END
> <minimizedAffinity>
-8.21190

> <CNNscore>
0.1632851213

> <CNNaffinity>
6.7434172630

> <CNN_VS>
1.1010997295

> <CNNaffinity_variance>
0.6334286928

$$$$
[H]OC(=O)C([H])(C([H])([H])c1c([H])c([H])c([H])c([H])c1[H])P(=O)(O[H])N([H])[C@]([H])(C(=O)O[H])C([H])([H])C([H])(C([H])([H])[H])C([H])([H])[H]


 27 27  0  0  0  0  0  0  0  0999 V2000
    4.1438    5.8917   19.8075 P   0  0  0  0  0  0  0  0  0  0  0  0
    4.2318    7.4175   20.5355 O   0  0  0  0  0  0  0  0  0  0  0  0
    2.7041    5.4273   19.8791 O   0  0  0  0  0  0  0  0  0  0  0  0
    5.0658    7.8275   20.1768 H   0  0  0  0  0  0  0  0  0  0  0  0
    5.1435    4.7807   20.7103 N   0  0  0  0  0  0  0  0  0  0  0  0
    5.8881    5.2893   21.2150 H   0  0  0  0  0  0  0  0  0  0  0  0
    4.2575    4.0205   21.5743 C   0  0  0  0  0  0  0  0  0  0  0  0
    4.3340    4.6163   22.9520 C   0  0  0  0  0  0  0  0  0  0  0  0
    5.1463    5.7029   23.1994 O   0  0  0  0  0  0  0  0  0  0  0  0
    3.6261    4.0692   23.8449 O   0  0  0  0  0  0  0  0  0  0  0  0
    6.0128    5.5097   23.6990 H   0  0  0  0  0  0  0  0  0  0  0  0
    4.7436    2.5950   21.7284 C   0  0  0  0  0  0  0  0  0  0  0  0
    4.3175    1.2380   19.6497 C   0  0  0  0  0  0  0  0  0  0  0  0
    3.7905    1.6887   20.9952 C   0  0  0  0  0  0  0  0  0  0  0  0
    3.5163    0.4150   21.7832 C   0  0  0  0  0  0  0  0  0  0  0  0
    4.6747    6.0773   18.1105 C   0  0  0  0  0  0  0  0  0  0  0  0
    5.7485    5.0885   17.7982 C   0  0  0  0  0  0  0  0  0  0  0  0
    6.8568    5.5510   17.1076 O   0  0  0  0  0  0  0  0  0  0  0  0
    5.7118    3.8781   18.1175 O   0  0  0  0  0  0  0  0  0  0  0  0
    7.0602    5.0673   16.2219 H   0  0  0  0  0  0  0  0  0  0  0  0
    3.6090    6.0712   17.0803 C   0  0  0  0  0  0  0  0  0  0  0  0
    3.3950    4.7811   16.3932 C   0  0  0  0  0  0  0  0  0  0  0  0
    2.6928    3.7436   16.9654 C   0  0  0  0  0  0  0  0  0  0  0  0
    2.5151    2.5568   16.2830 C   0  0  0  0  0  0  0  0  0  0  0  0
    3.0627    2.4483   15.0162 C   0  0  0  0  0  0  0  0  0  0  0  0
    3.7664    3.4781   14.4341 C   0  0  0  0  0  0  0  0  0  0  0  0
    3.9434    4.6589   15.1126 C   0  0  0  0  0  0  0  0  0  0  0  0
 13 14  1  0  0  0
 14 15  1  0  0  0
 14 12  1  0  0  0
 12  7  1  0  0  0
  7  5  1  0  0  0
  5  1  1  0  0  0
  1  2  1  0  0  0
  1  3  2  0  0  0
  1 16  1  0  0  0
 16 21  1  0  0  0
 21 22  1  0  0  0
 22 23  2  0  0  0
 23 24  1  0  0  0
 24 25  2  0  0  0
 25 26  1  0  0  0
 26 27  2  0  0  0
 16 17  1  0  0  0
 17 18  1  0  0  0
 17 19  2  0  0  0
  7  8  1  0  0  0
  8  9  1  0  0  0
  8 10  2  0  0  0
 27 22  1  0  0  0
  5  6  1  0  0  0
  2  4  1  0  0  0
 18 20  1  0  0  0
  9 11  1  0  0  0
M  END
> <minimizedAffinity>
-6.38178

> <CNNscore>
0.2883215249

> <CNNaffinity>
4.7640266418

> <CNN_VS>
1.3735713959

> <CNNaffinity_variance>
0.2915999293

$$$$
[H]OC(=O)C([H])(C([H])([H])c1c([H])c([H])c([H])c([H])c1[H])P(=O)(O[H])N([H])[C@]([H])(C(=O)O[H])C([H])([H])C([H])(C([H])([H])[H])C([H])([H])[H]


 27 27  0  0  0  0  0  0  0  0999 V2000
    5.1477    6.6036   18.2900 P   0  0  0  0  0  0  0  0  0  0  0  0
    6.0568    6.8203   16.8784 O   0  0  0  0  0  0  0  0  0  0  0  0
    4.3004    7.8429   18.4893 O   0  0  0  0  0  0  0  0  0  0  0  0
    6.3188    5.9016   16.5960 H   0  0  0  0  0  0  0  0  0  0  0  0
    6.2408    6.4406   19.6418 N   0  0  0  0  0  0  0  0  0  0  0  0
    6.9396    7.2018   19.6382 H   0  0  0  0  0  0  0  0  0  0  0  0
    5.4249    6.3934   20.8424 C   0  0  0  0  0  0  0  0  0  0  0  0
    5.6077    7.6927   21.5754 C   0  0  0  0  0  0  0  0  0  0  0  0
    4.5137    8.4478   21.9425 O   0  0  0  0  0  0  0  0  0  0  0  0
    6.7975    8.0392   21.8243 O   0  0  0  0  0  0  0  0  0  0  0  0
    4.3364    9.2805   21.3831 H   0  0  0  0  0  0  0  0  0  0  0  0
    5.9223    5.3254   21.7932 C   0  0  0  0  0  0  0  0  0  0  0  0
    3.4352    4.9794   21.9901 C   0  0  0  0  0  0  0  0  0  0  0  0
    4.7792    4.9156   22.6836 C   0  0  0  0  0  0  0  0  0  0  0  0
    4.9337    3.4782   23.1615 C   0  0  0  0  0  0  0  0  0  0  0  0
    4.1239    5.1578   18.0502 C   0  0  0  0  0  0  0  0  0  0  0  0
    2.9836    5.4819   17.1430 C   0  0  0  0  0  0  0  0  0  0  0  0
    3.1601    6.5244   16.2479 O   0  0  0  0  0  0  0  0  0  0  0  0
    1.8869    4.8771   17.1395 O   0  0  0  0  0  0  0  0  0  0  0  0
    2.4707    7.2861   16.3137 H   0  0  0  0  0  0  0  0  0  0  0  0
    4.8196    3.9173   17.6328 C   0  0  0  0  0  0  0  0  0  0  0  0
    4.3617    2.6777   18.2931 C   0  0  0  0  0  0  0  0  0  0  0  0
    4.6150    2.4068   19.6196 C   0  0  0  0  0  0  0  0  0  0  0  0
    4.1634    1.2359   20.1947 C   0  0  0  0  0  0  0  0  0  0  0  0
    3.4544    0.3530   19.3983 C   0  0  0  0  0  0  0  0  0  0  0  0
    3.1953    0.6126   18.0717 C   0  0  0  0  0  0  0  0  0  0  0  0
    3.6443    1.7774   17.4991 C   0  0  0  0  0  0  0  0  0  0  0  0
 13 14  1  0  0  0
 14 15  1  0  0  0
 14 12  1  0  0  0
 12  7  1  0  0  0
  7  5  1  0  0  0
  5  1  1  0  0  0
  1  2  1  0  0  0
  1  3  2  0  0  0
  1 16  1  0  0  0
 16 21  1  0  0  0
 21 22  1  0  0  0
 22 23  2  0  0  0
 23 24  1  0  0  0
 24 25  2  0  0  0
 25 26  1  0  0  0
 26 27  2  0  0  0
 16 17  1  0  0  0
 17 18  1  0  0  0
 17 19  2  0  0  0
  7  8  1  0  0  0
  8  9  1  0  0  0
  8 10  2  0  0  0
 27 22  1  0  0  0
  5  6  1  0  0  0
  2  4  1  0  0  0
 18 20  1  0  0  0
  9 11  1  0  0  0
M  END
> <minimizedAffinity>
-6.73374

> <CNNscore>
0.2876481712

> <CNNaffinity>
4.8487358093

> <CNN_VS>
1.3947299719

> <CNNaffinity_variance>
0.2419705391

$$$$
[H]OC(=O)C([H])(C([H])([H])c1c([H])c([H])c([H])c([H])c1[H])P(=O)(O[H])N([H])[C@]([H])(C(=O)O[H])C([H])([H])C([H])(C([H])([H])[H])C([H])([H])[H]


 27 27  0  0  0  0  0  0  0  0999 V2000
    4.9529    4.9910   18.6951 P   0  0  0  0  0  0  0  0  0  0  0  0
    5.9938    4.2219   17.6039 O   0  0  0  0  0  0  0  0  0  0  0  0
    5.8056    5.7345   19.7020 O   0  0  0  0  0  0  0  0  0  0  0  0
    5.4384    4.0481   16.7954 H   0  0  0  0  0  0  0  0  0  0  0  0
    4.0185    3.7756   19.5309 N   0  0  0  0  0  0  0  0  0  0  0  0
    3.1159    3.6186   19.0531 H   0  0  0  0  0  0  0  0  0  0  0  0
    4.8523    2.5900   19.6230 C   0  0  0  0  0  0  0  0  0  0  0  0
    4.3053    1.5664   18.6680 C   0  0  0  0  0  0  0  0  0  0  0  0
    4.7298    1.5372   17.3563 O   0  0  0  0  0  0  0  0  0  0  0  0
    3.4523    0.7579   19.1331 O   0  0  0  0  0  0  0  0  0  0  0  0
    4.0770    1.9052   16.6661 H   0  0  0  0  0  0  0  0  0  0  0  0
    4.7425    1.9561   20.9934 C   0  0  0  0  0  0  0  0  0  0  0  0
    5.8442    2.4271   23.2089 C   0  0  0  0  0  0  0  0  0  0  0  0
    6.0370    2.1881   21.7267 C   0  0  0  0  0  0  0  0  0  0  0  0
    6.9629    0.9845   21.6156 C   0  0  0  0  0  0  0  0  0  0  0  0
    3.9349    6.1220   17.7567 C   0  0  0  0  0  0  0  0  0  0  0  0
    4.2227    7.5291   18.1638 C   0  0  0  0  0  0  0  0  0  0  0  0
    5.3985    8.0968   17.7007 O   0  0  0  0  0  0  0  0  0  0  0  0
    3.4758    8.2231   18.8911 O   0  0  0  0  0  0  0  0  0  0  0  0
    6.0373    8.4474   18.4278 H   0  0  0  0  0  0  0  0  0  0  0  0
    3.9566    5.9634   16.2831 C   0  0  0  0  0  0  0  0  0  0  0  0
    3.4267    4.6825   15.7728 C   0  0  0  0  0  0  0  0  0  0  0  0
    3.9361    4.0625   14.6534 C   0  0  0  0  0  0  0  0  0  0  0  0
    3.4105    2.8632   14.2159 C   0  0  0  0  0  0  0  0  0  0  0  0
    2.3640    2.3122   14.9354 C   0  0  0  0  0  0  0  0  0  0  0  0
    1.8466    2.9225   16.0553 C   0  0  0  0  0  0  0  0  0  0  0  0
    2.3690    4.1156   16.4909 C   0  0  0  0  0  0  0  0  0  0  0  0
 13 14  1  0  0  0
 14 15  1  0  0  0
 14 12  1  0  0  0
 12  7  1  0  0  0
  7  5  1  0  0  0
  5  1  1  0  0  0
  1  2  1  0  0  0
  1  3  2  0  0  0
  1 16  1  0  0  0
 16 21  1  0  0  0
 21 22  1  0  0  0
 22 23  2  0  0  0
 23 24  1  0  0  0
 24 25  2  0  0  0
 25 26  1  0  0  0
 26 27  2  0  0  0
 16 17  1  0  0  0
 17 18  1  0  0  0
 17 19  2  0  0  0
  7  8  1  0  0  0
  8  9  1  0  0  0
  8 10  2  0  0  0
 27 22  1  0  0  0
  5  6  1  0  0  0
  2  4  1  0  0  0
 18 20  1  0  0  0
  9 11  1  0  0  0
M  END
> <minimizedAffinity>
-5.90490

> <CNNscore>
0.2528889179

> <CNNaffinity>
4.3069543839

> <CNN_VS>
1.0891810656

> <CNNaffinity_variance>
0.3282653987

$$$$
[H]OC(=O)C([H])(C([H])([H])c1c([H])c([H])c([H])c([H])c1[H])P(=O)(O[H])N([H])[C@]([H])(C(=O)O[H])C([H])([H])C([H])(C([H])([H])[H])C([H])([H])[H]


 27 27  0  0  0  0  0  0  0  0999 V2000
    4.9036    6.6500   20.7929 P   0  0  0  0  0  0  0  0  0  0  0  0
    4.4221    7.8580   21.8766 O   0  0  0  0  0  0  0  0  0  0  0  0
    5.7337    7.3051   19.7088 O   0  0  0  0  0  0  0  0  0  0  0  0
    4.1951    7.3753   22.7179 H   0  0  0  0  0  0  0  0  0  0  0  0
    3.4793    5.9457   20.0688 N   0  0  0  0  0  0  0  0  0  0  0  0
    2.7420    6.6596   19.9478 H   0  0  0  0  0  0  0  0  0  0  0  0
    3.9014    5.3166   18.8297 C   0  0  0  0  0  0  0  0  0  0  0  0
    3.0264    5.8400   17.7254 C   0  0  0  0  0  0  0  0  0  0  0  0
    3.2785    7.0714   17.1582 O   0  0  0  0  0  0  0  0  0  0  0  0
    2.0693    5.0985   17.3626 O   0  0  0  0  0  0  0  0  0  0  0  0
    2.6533    7.8274   17.4328 H   0  0  0  0  0  0  0  0  0  0  0  0
    3.6480    3.8245   18.8664 C   0  0  0  0  0  0  0  0  0  0  0  0
    4.6205    1.7872   17.7495 C   0  0  0  0  0  0  0  0  0  0  0  0
    4.8982    3.1213   18.4085 C   0  0  0  0  0  0  0  0  0  0  0  0
    5.6545    3.9465   17.3763 C   0  0  0  0  0  0  0  0  0  0  0  0
    5.8717    5.4612   21.7124 C   0  0  0  0  0  0  0  0  0  0  0  0
    6.9731    6.1536   22.4446 C   0  0  0  0  0  0  0  0  0  0  0  0
    6.6123    7.0198   23.4637 O   0  0  0  0  0  0  0  0  0  0  0  0
    8.1918    6.0031   22.1983 O   0  0  0  0  0  0  0  0  0  0  0  0
    6.9540    7.9859   23.3654 H   0  0  0  0  0  0  0  0  0  0  0  0
    5.1202    4.5405   22.5982 C   0  0  0  0  0  0  0  0  0  0  0  0
    5.0716    3.1314   22.1576 C   0  0  0  0  0  0  0  0  0  0  0  0
    3.9006    2.4075   22.1152 C   0  0  0  0  0  0  0  0  0  0  0  0
    3.9037    1.0933   21.6925 C   0  0  0  0  0  0  0  0  0  0  0  0
    5.1135    0.5352   21.3168 C   0  0  0  0  0  0  0  0  0  0  0  0
    6.2901    1.2485   21.3550 C   0  0  0  0  0  0  0  0  0  0  0  0
    6.2876    2.5559   21.7755 C   0  0  0  0  0  0  0  0  0  0  0  0
 13 14  1  0  0  0
 14 15  1  0  0  0
 14 12  1  0  0  0
 12  7  1  0  0  0
  7  5  1  0  0  0
  5  1  1  0  0  0
  1  2  1  0  0  0
  1  3  2  0  0  0
  1 16  1  0  0  0
 16 21  1  0  0  0
 21 22  1  0  0  0
 22 23  2  0  0  0
 23 24  1  0  0  0
 24 25  2  0  0  0
 25 26  1  0  0  0
 26 27  2  0  0  0
 16 17  1  0  0  0
 17 18  1  0  0  0
 17 19  2  0  0  0
  7  8  1  0  0  0
  8  9  1  0  0  0
  8 10  2  0  0  0
 27 22  1  0  0  0
  5  6  1  0  0  0
  2  4  1  0  0  0
 18 20  1  0  0  0
  9 11  1  0  0  0
M  END
> <minimizedAffinity>
-7.52116

> <CNNscore>
0.2478342950

> <CNNaffinity>
4.8635358810

> <CNN_VS>
1.2053509951

> <CNNaffinity_variance>
0.2070918381

$$$$
[H]OC(=O)C([H])(C([H])([H])c1c([H])c([H])c([H])c([H])c1[H])P(=O)(O[H])N([H])[C@]([H])(C(=O)O[H])C([H])([H])C([H])(C([H])([H])[H])C([H])([H])[H]


 27 27  0  0  0  0  0  0  0  0999 V2000
    3.9545    5.8378   18.8972 P   0  0  0  0  0  0  0  0  0  0  0  0
    3.3515    7.4043   19.1168 O   0  0  0  0  0  0  0  0  0  0  0  0
    2.8119    4.8677   19.1140 O   0  0  0  0  0  0  0  0  0  0  0  0
    3.9976    7.9986   18.6458 H   0  0  0  0  0  0  0  0  0  0  0  0
    5.1881    5.5383   20.0961 N   0  0  0  0  0  0  0  0  0  0  0  0
    5.4884    6.4229   20.5377 H   0  0  0  0  0  0  0  0  0  0  0  0
    4.6444    4.5670   21.0291 C   0  0  0  0  0  0  0  0  0  0  0  0
    4.1252    5.3163   22.2242 C   0  0  0  0  0  0  0  0  0  0  0  0
    4.0899    6.6948   22.2234 O   0  0  0  0  0  0  0  0  0  0  0  0
    3.7361    4.6187   23.2038 O   0  0  0  0  0  0  0  0  0  0  0  0
    4.8063    7.1614   22.7773 H   0  0  0  0  0  0  0  0  0  0  0  0
    5.7340    3.6640   21.5668 C   0  0  0  0  0  0  0  0  0  0  0  0
    6.5087    1.2679   21.5183 C   0  0  0  0  0  0  0  0  0  0  0  0
    5.5864    2.3105   20.9238 C   0  0  0  0  0  0  0  0  0  0  0  0
    4.1753    1.7644   21.0942 C   0  0  0  0  0  0  0  0  0  0  0  0
    4.5762    5.7336   17.2242 C   0  0  0  0  0  0  0  0  0  0  0  0
    5.3495    6.9651   16.8871 C   0  0  0  0  0  0  0  0  0  0  0  0
    5.3193    7.3938   15.5701 O   0  0  0  0  0  0  0  0  0  0  0  0
    6.0183    7.6297   17.7114 O   0  0  0  0  0  0  0  0  0  0  0  0
    6.2370    7.4824   15.1121 H   0  0  0  0  0  0  0  0  0  0  0  0
    5.3255    4.5038   16.8731 C   0  0  0  0  0  0  0  0  0  0  0  0
    4.4972    3.3282   16.5356 C   0  0  0  0  0  0  0  0  0  0  0  0
    3.7469    3.2558   15.3829 C   0  0  0  0  0  0  0  0  0  0  0  0
    2.9907    2.1341   15.1079 C   0  0  0  0  0  0  0  0  0  0  0  0
    3.0134    1.0956   16.0230 C   0  0  0  0  0  0  0  0  0  0  0  0
    3.7591    1.1565   17.1783 C   0  0  0  0  0  0  0  0  0  0  0  0
    4.5116    2.2722   17.4524 C   0  0  0  0  0  0  0  0  0  0  0  0
 13 14  1  0  0  0
 14 15  1  0  0  0
 14 12  1  0  0  0
 12  7  1  0  0  0
  7  5  1  0  0  0
  5  1  1  0  0  0
  1  2  1  0  0  0
  1  3  2  0  0  0
  1 16  1  0  0  0
 16 21  1  0  0  0
 21 22  1  0  0  0
 22 23  2  0  0  0
 23 24  1  0  0  0
 24 25  2  0  0  0
 25 26  1  0  0  0
 26 27  2  0  0  0
 16 17  1  0  0  0
 17 18  1  0  0  0
 17 19  2  0  0  0
  7  8  1  0  0  0
  8  9  1  0  0  0
  8 10  2  0  0  0
 27 22  1  0  0  0
  5  6  1  0  0  0
  2  4  1  0  0  0
 18 20  1  0  0  0
  9 11  1  0  0  0
M  END
> <minimizedAffinity>
-7.47817

> <CNNscore>
0.2448051125

> <CNNaffinity>
4.6263351440

> <CNN_VS>
1.1325504780

> <CNNaffinity_variance>
0.3622035086

$$$$
[H]OC(=O)C([H])(C([H])([H])c1c([H])c([H])c([H])c([H])c1[H])P(=O)(O[H])N([H])[C@]([H])(C(=O)O[H])C([H])([H])C([H])(C([H])([H])[H])C([H])([H])[H]


 27 27  0  0  0  0  0  0  0  0999 V2000
    2.5896    5.2916   15.8331 P   0  0  0  0  0  0  0  0  0  0  0  0
    1.7289    6.5666   15.1265 O   0  0  0  0  0  0  0  0  0  0  0  0
    1.8603    4.8854   17.0967 O   0  0  0  0  0  0  0  0  0  0  0  0
    2.0139    6.5736   14.1720 H   0  0  0  0  0  0  0  0  0  0  0  0
    4.1856    5.8590   16.2569 N   0  0  0  0  0  0  0  0  0  0  0  0
    4.4158    6.7206   15.7350 H   0  0  0  0  0  0  0  0  0  0  0  0
    4.2084    6.0187   17.7003 C   0  0  0  0  0  0  0  0  0  0  0  0
    4.0336    7.4800   18.0053 C   0  0  0  0  0  0  0  0  0  0  0  0
    3.2469    7.8839   19.0634 O   0  0  0  0  0  0  0  0  0  0  0  0
    4.6368    8.2921   17.2473 O   0  0  0  0  0  0  0  0  0  0  0  0
    2.3323    8.2623   18.8225 H   0  0  0  0  0  0  0  0  0  0  0  0
    5.5651    5.6529   18.2640 C   0  0  0  0  0  0  0  0  0  0  0  0
    5.8264    5.6558   20.7691 C   0  0  0  0  0  0  0  0  0  0  0  0
    5.3547    4.8955   19.5483 C   0  0  0  0  0  0  0  0  0  0  0  0
    3.8798    4.6006   19.7852 C   0  0  0  0  0  0  0  0  0  0  0  0
    2.6236    3.9499   14.6521 C   0  0  0  0  0  0  0  0  0  0  0  0
    2.5705    4.4897   13.2613 C   0  0  0  0  0  0  0  0  0  0  0  0
    1.8503    3.7652   12.3256 O   0  0  0  0  0  0  0  0  0  0  0  0
    3.1308    5.5462   12.8894 O   0  0  0  0  0  0  0  0  0  0  0  0
    2.3776    3.4714   11.4917 H   0  0  0  0  0  0  0  0  0  0  0  0
    3.7116    2.9561   14.8121 C   0  0  0  0  0  0  0  0  0  0  0  0
    3.6077    2.0840   15.9999 C   0  0  0  0  0  0  0  0  0  0  0  0
    4.4222    2.2302   17.1008 C   0  0  0  0  0  0  0  0  0  0  0  0
    4.2855    1.3932   18.1901 C   0  0  0  0  0  0  0  0  0  0  0  0
    3.3105    0.4119   18.1363 C   0  0  0  0  0  0  0  0  0  0  0  0
    2.4909    0.2560   17.0416 C   0  0  0  0  0  0  0  0  0  0  0  0
    2.6264    1.0885   15.9578 C   0  0  0  0  0  0  0  0  0  0  0  0
 13 14  1  0  0  0
 14 15  1  0  0  0
 14 12  1  0  0  0
 12  7  1  0  0  0
  7  5  1  0  0  0
  5  1  1  0  0  0
  1  2  1  0  0  0
  1  3  2  0  0  0
  1 16  1  0  0  0
 16 21  1  0  0  0
 21 22  1  0  0  0
 22 23  2  0  0  0
 23 24  1  0  0  0
 24 25  2  0  0  0
 25 26  1  0  0  0
 26 27  2  0  0  0
 16 17  1  0  0  0
 17 18  1  0  0  0
 17 19  2  0  0  0
  7  8  1  0  0  0
  8  9  1  0  0  0
  8 10  2  0  0  0
 27 22  1  0  0  0
  5  6  1  0  0  0
  2  4  1  0  0  0
 18 20  1  0  0  0
  9 11  1  0  0  0
M  END
> <minimizedAffinity>
-6.42270

> <CNNscore>
0.2256342322

> <CNNaffinity>
4.5159978867

> <CNN_VS>
1.0189636946

> <CNNaffinity_variance>
0.1708748043

$$$$
[H]OC(=O)C([H])(C([H])([H])c1c([H])c([H])c([H])c([H])c1[H])P(=O)(O[H])N([H])[C@]([H])(C(=O)O[H])C([H])([H])C([H])(C([H])([H])[H])C([H])([H])[H]


 27 27  0  0  0  0  0  0  0  0999 V2000
    5.5885    5.7977   19.1556 P   0  0  0  0  0  0  0  0  0  0  0  0
    6.8646    5.7897   18.0433 O   0  0  0  0  0  0  0  0  0  0  0  0
    5.0250    7.2026   19.2031 O   0  0  0  0  0  0  0  0  0  0  0  0
    6.9752    4.8344   17.7834 H   0  0  0  0  0  0  0  0  0  0  0  0
    6.2157    5.3847   20.7320 N   0  0  0  0  0  0  0  0  0  0  0  0
    6.3711    6.2364   21.2961 H   0  0  0  0  0  0  0  0  0  0  0  0
    5.2815    4.4448   21.3263 C   0  0  0  0  0  0  0  0  0  0  0  0
    4.4905    5.1798   22.3719 C   0  0  0  0  0  0  0  0  0  0  0  0
    4.0597    6.4698   22.1438 O   0  0  0  0  0  0  0  0  0  0  0  0
    4.2548    4.5555   23.4454 O   0  0  0  0  0  0  0  0  0  0  0  0
    4.5731    7.2053   22.6268 H   0  0  0  0  0  0  0  0  0  0  0  0
    6.0151    3.3527   22.0752 C   0  0  0  0  0  0  0  0  0  0  0  0
    6.8910    1.0432   21.5825 C   0  0  0  0  0  0  0  0  0  0  0  0
    5.7828    2.0494   21.3577 C   0  0  0  0  0  0  0  0  0  0  0  0
    4.5036    1.3733   21.8321 C   0  0  0  0  0  0  0  0  0  0  0  0
    4.3631    4.6340   18.5723 C   0  0  0  0  0  0  0  0  0  0  0  0
    3.0241    5.2905   18.5043 C   0  0  0  0  0  0  0  0  0  0  0  0
    2.6207    6.0267   19.6063 O   0  0  0  0  0  0  0  0  0  0  0  0
    2.2488    5.2187   17.5235 O   0  0  0  0  0  0  0  0  0  0  0  0
    1.7294    5.7354   20.0313 H   0  0  0  0  0  0  0  0  0  0  0  0
    4.6823    3.9112   17.3182 C   0  0  0  0  0  0  0  0  0  0  0  0
    4.0098    2.6073   17.1461 C   0  0  0  0  0  0  0  0  0  0  0  0
    3.8984    1.6897   18.1672 C   0  0  0  0  0  0  0  0  0  0  0  0
    3.2572    0.4848   17.9601 C   0  0  0  0  0  0  0  0  0  0  0  0
    2.7361    0.2347   16.7023 C   0  0  0  0  0  0  0  0  0  0  0  0
    2.8414    1.1437   15.6741 C   0  0  0  0  0  0  0  0  0  0  0  0
    3.4791    2.3425   15.8796 C   0  0  0  0  0  0  0  0  0  0  0  0
 13 14  1  0  0  0
 14 15  1  0  0  0
 14 12  1  0  0  0
 12  7  1  0  0  0
  7  5  1  0  0  0
  5  1  1  0  0  0
  1  2  1  0  0  0
  1  3  2  0  0  0
  1 16  1  0  0  0
 16 21  1  0  0  0
 21 22  1  0  0  0
 22 23  2  0  0  0
 23 24  1  0  0  0
 24 25  2  0  0  0
 25 26  1  0  0  0
 26 27  2  0  0  0
 16 17  1  0  0  0
 17 18  1  0  0  0
 17 19  2  0  0  0
  7  8  1  0  0  0
  8  9  1  0  0  0
  8 10  2  0  0  0
 27 22  1  0  0  0
  5  6  1  0  0  0
  2  4  1  0  0  0
 18 20  1  0  0  0
  9 11  1  0  0  0
M  END
> <minimizedAffinity>
-7.66839

> <CNNscore>
0.2061924487

> <CNNaffinity>
4.5594291687

> <CNN_VS>
0.9401198626

> <CNNaffinity_variance>
0.5199255943

$$$$
[H]OC(=O)C([H])(C([H])([H])c1c([H])c([H])c([H])c([H])c1[H])P(=O)(O[H])N([H])[C@]([H])(C(=O)O[H])C([H])([H])C([H])(C([H])([H])[H])C([H])([H])[H]


 27 27  0  0  0  0  0  0  0  0999 V2000
    3.9049    6.6678   18.7156 P   0  0  0  0  0  0  0  0  0  0  0  0
    3.2157    8.0974   19.3046 O   0  0  0  0  0  0  0  0  0  0  0  0
    4.8924    7.0432   17.6305 O   0  0  0  0  0  0  0  0  0  0  0  0
    2.8595    7.8612   20.2045 H   0  0  0  0  0  0  0  0  0  0  0  0
    2.6433    5.6826   18.0180 N   0  0  0  0  0  0  0  0  0  0  0  0
    1.8172    6.2591   17.7877 H   0  0  0  0  0  0  0  0  0  0  0  0
    3.2234    4.9986   16.8757 C   0  0  0  0  0  0  0  0  0  0  0  0
    2.6461    5.6104   15.6301 C   0  0  0  0  0  0  0  0  0  0  0  0
    1.2979    5.8885   15.5482 O   0  0  0  0  0  0  0  0  0  0  0  0
    3.4552    5.8445   14.6876 O   0  0  0  0  0  0  0  0  0  0  0  0
    0.7430    5.2514   14.9790 H   0  0  0  0  0  0  0  0  0  0  0  0
    2.7978    3.5461   16.8410 C   0  0  0  0  0  0  0  0  0  0  0  0
    5.2787    3.1891   17.0890 C   0  0  0  0  0  0  0  0  0  0  0  0
    3.9905    2.7133   16.4524 C   0  0  0  0  0  0  0  0  0  0  0  0
    3.8220    1.2635   16.8863 C   0  0  0  0  0  0  0  0  0  0  0  0
    4.7296    5.8677   20.0851 C   0  0  0  0  0  0  0  0  0  0  0  0
    5.2472    6.8912   21.0406 C   0  0  0  0  0  0  0  0  0  0  0  0
    4.3577    7.3947   21.9758 O   0  0  0  0  0  0  0  0  0  0  0  0
    6.4237    7.3203   21.0506 O   0  0  0  0  0  0  0  0  0  0  0  0
    4.2358    8.4168   21.9655 H   0  0  0  0  0  0  0  0  0  0  0  0
    3.9706    4.8025   20.7825 C   0  0  0  0  0  0  0  0  0  0  0  0
    4.6926    3.5282   20.9751 C   0  0  0  0  0  0  0  0  0  0  0  0
    5.8225    3.4266   21.7560 C   0  0  0  0  0  0  0  0  0  0  0  0
    6.4617    2.2126   21.9097 C   0  0  0  0  0  0  0  0  0  0  0  0
    5.9316    1.1128   21.2571 C   0  0  0  0  0  0  0  0  0  0  0  0
    4.8032    1.2021   20.4740 C   0  0  0  0  0  0  0  0  0  0  0  0
    4.1670    2.4095   20.3209 C   0  0  0  0  0  0  0  0  0  0  0  0
 13 14  1  0  0  0
 14 15  1  0  0  0
 14 12  1  0  0  0
 12  7  1  0  0  0
  7  5  1  0  0  0
  5  1  1  0  0  0
  1  2  1  0  0  0
  1  3  2  0  0  0
  1 16  1  0  0  0
 16 21  1  0  0  0
 21 22  1  0  0  0
 22 23  2  0  0  0
 23 24  1  0  0  0
 24 25  2  0  0  0
 25 26  1  0  0  0
 26 27  2  0  0  0
 16 17  1  0  0  0
 17 18  1  0  0  0
 17 19  2  0  0  0
  7  8  1  0  0  0
  8  9  1  0  0  0
  8 10  2  0  0  0
 27 22  1  0  0  0
  5  6  1  0  0  0
  2  4  1  0  0  0
 18 20  1  0  0  0
  9 11  1  0  0  0
M  END
> <minimizedAffinity>
-7.35025

> <CNNscore>
0.2034989595

> <CNNaffinity>
4.5906424522

> <CNN_VS>
0.9341909885

> <CNNaffinity_variance>
0.3406364620

$$$$
[H]OC(=O)C([H])(C([H])([H])c1c([H])c([H])c([H])c([H])c1[H])P(=O)(O[H])N([H])[C@]([H])(C(=O)O[H])C([H])([H])C([H])(C([H])([H])[H])C([H])([H])[H]


 27 27  0  0  0  0  0  0  0  0999 V2000
    5.9381    6.5197   21.8250 P   0  0  0  0  0  0  0  0  0  0  0  0
    6.4147    7.0480   23.3610 O   0  0  0  0  0  0  0  0  0  0  0  0
    7.0567    6.8435   20.8568 O   0  0  0  0  0  0  0  0  0  0  0  0
    5.8494    6.5322   23.9989 H   0  0  0  0  0  0  0  0  0  0  0  0
    4.5050    7.3968   21.3496 N   0  0  0  0  0  0  0  0  0  0  0  0
    4.4351    8.2877   21.8684 H   0  0  0  0  0  0  0  0  0  0  0  0
    4.5655    7.5564   19.9073 C   0  0  0  0  0  0  0  0  0  0  0  0
    4.1637    8.9678   19.5823 C   0  0  0  0  0  0  0  0  0  0  0  0
    2.8538    9.2677   19.2726 O   0  0  0  0  0  0  0  0  0  0  0  0
    5.0808    9.8372   19.6086 O   0  0  0  0  0  0  0  0  0  0  0  0
    2.6540    9.4373   18.2882 H   0  0  0  0  0  0  0  0  0  0  0  0
    3.5377    6.6811   19.2222 C   0  0  0  0  0  0  0  0  0  0  0  0
    5.6020    6.3269   17.8232 C   0  0  0  0  0  0  0  0  0  0  0  0
    4.0912    6.2584   17.8872 C   0  0  0  0  0  0  0  0  0  0  0  0
    3.7255    4.8159   17.5647 C   0  0  0  0  0  0  0  0  0  0  0  0
    5.6673    4.7555   21.9262 C   0  0  0  0  0  0  0  0  0  0  0  0
    4.4757    4.4678   22.7781 C   0  0  0  0  0  0  0  0  0  0  0  0
    4.6650    3.6498   23.8801 O   0  0  0  0  0  0  0  0  0  0  0  0
    3.3258    4.9143   22.5621 O   0  0  0  0  0  0  0  0  0  0  0  0
    4.0749    2.8069   23.9124 H   0  0  0  0  0  0  0  0  0  0  0  0
    5.6107    4.0207   20.6401 C   0  0  0  0  0  0  0  0  0  0  0  0
    5.3098    2.5782   20.7438 C   0  0  0  0  0  0  0  0  0  0  0  0
    6.2007    1.6709   21.2730 C   0  0  0  0  0  0  0  0  0  0  0  0
    5.8737    0.3321   21.3529 C   0  0  0  0  0  0  0  0  0  0  0  0
    4.6310   -0.0614   20.8867 C   0  0  0  0  0  0  0  0  0  0  0  0
    3.7325    0.8359   20.3557 C   0  0  0  0  0  0  0  0  0  0  0  0
    4.0574    2.1679   20.2760 C   0  0  0  0  0  0  0  0  0  0  0  0
 13 14  1  0  0  0
 14 15  1  0  0  0
 14 12  1  0  0  0
 12  7  1  0  0  0
  7  5  1  0  0  0
  5  1  1  0  0  0
  1  2  1  0  0  0
  1  3  2  0  0  0
  1 16  1  0  0  0
 16 21  1  0  0  0
 21 22  1  0  0  0
 22 23  2  0  0  0
 23 24  1  0  0  0
 24 25  2  0  0  0
 25 26  1  0  0  0
 26 27  2  0  0  0
 16 17  1  0  0  0
 17 18  1  0  0  0
 17 19  2  0  0  0
  7  8  1  0  0  0
  8  9  1  0  0  0
  8 10  2  0  0  0
 27 22  1  0  0  0
  5  6  1  0  0  0
  2  4  1  0  0  0
 18 20  1  0  0  0
  9 11  1  0  0  0
M  END
> <minimizedAffinity>
-7.01726

> <CNNscore>
0.1878442764

> <CNNaffinity>
4.6393585205

> <CNN_VS>
0.8714769483

> <CNNaffinity_variance>
0.2755677104

$$$$
[H]OC([H])([H])C([H])(N([H])C(=O)[C@@]([H])(N([H])C(=O)[C@@]([H])(N([H])C(=O)[C@@]([H])(N([H])C(=O)[C@@]([H])(N([H])C(=O)[C@@]([H])(N([H])C(=O)[C@@]([H])(N([H])C(=O)[C@@]([H])(N([H])C(=O)C([H])([H])[H])C([H])([H])O[H])C([H])([H])O[H])C([H])([H])O[H])C([H])([H])O[H])C([H])([H])C([H])([H])C(=O)N([H])[H])C([H])([H])C([H])(C([H])([H])[H])C([H])([H])[H])C([H])([H])O[H])C([H])([H])O[H]


 73 72  0  0  0  0  0  0  0  0999 V2000
    4.2348    5.6480   17.2999 N   0  0  0  0  0  0  0  0  0  0  0  0
    4.4477    4.2766   17.0718 C   0  0  0  0  0  0  0  0  0  0  0  0
    5.5415    3.6967   17.1962 O   0  0  0  0  0  0  0  0  0  0  0  0
    3.2660    6.0320   17.1547 H   0  0  0  0  0  0  0  0  0  0  0  0
    3.2708    3.4333   16.6457 C   0  0  0  0  0  0  0  0  0  0  0  0
    2.9732    3.6861   15.2555 N   0  0  0  0  0  0  0  0  0  0  0  0
    2.1289    4.7544   14.8548 C   0  0  0  0  0  0  0  0  0  0  0  0
    1.6062    5.5230   15.6934 O   0  0  0  0  0  0  0  0  0  0  0  0
    3.3805    3.0797   14.5082 H   0  0  0  0  0  0  0  0  0  0  0  0
    1.8660    4.9610   13.4188 C   0  0  0  0  0  0  0  0  0  0  0  0
    0.7274    5.8470   13.2776 N   0  0  0  0  0  0  0  0  0  0  0  0
   -0.5059    5.3395   12.8264 C   0  0  0  0  0  0  0  0  0  0  0  0
   -0.5547    4.0893   12.5612 O   0  0  0  0  0  0  0  0  0  0  0  0
    0.8092    6.8615   13.4974 H   0  0  0  0  0  0  0  0  0  0  0  0
   -1.6733    6.2324   12.6705 C   0  0  0  0  0  0  0  0  0  0  0  0
   -2.8207    5.3300   12.4669 N   0  0  0  0  0  0  0  0  0  0  0  0
   -3.3525    5.2109   11.1939 C   0  0  0  0  0  0  0  0  0  0  0  0
   -2.8462    5.8722   10.2283 O   0  0  0  0  0  0  0  0  0  0  0  0
   -3.1456    4.8426   13.3104 H   0  0  0  0  0  0  0  0  0  0  0  0
   -4.4985    4.3412   10.8761 C   0  0  0  0  0  0  0  0  0  0  0  0
   -4.0693    2.9596   10.6995 N   0  0  0  0  0  0  0  0  0  0  0  0
   -4.7545    2.1425    9.7794 C   0  0  0  0  0  0  0  0  0  0  0  0
   -4.2971    0.7290    9.6242 C   0  0  0  0  0  0  0  0  0  0  0  0
   -5.7107    2.5586    9.1085 O   0  0  0  0  0  0  0  0  0  0  0  0
   -3.2699    2.6110   11.2551 H   0  0  0  0  0  0  0  0  0  0  0  0
   -5.5763    4.4967   11.9080 C   0  0  0  0  0  0  0  0  0  0  0  0
   -6.8170    4.4693   11.2967 O   0  0  0  0  0  0  0  0  0  0  0  0
   -7.4526    4.9353   11.8975 H   0  0  0  0  0  0  0  0  0  0  0  0
   -1.9050    7.0581   13.9015 C   0  0  0  0  0  0  0  0  0  0  0  0
   -3.2183    7.0797   14.2827 O   0  0  0  0  0  0  0  0  0  0  0  0
   -3.3266    6.9724   15.2767 H   0  0  0  0  0  0  0  0  0  0  0  0
    3.0995    5.6353   12.8227 C   0  0  0  0  0  0  0  0  0  0  0  0
    4.2315    4.8486   13.0421 O   0  0  0  0  0  0  0  0  0  0  0  0
    3.9873    3.9079   13.1928 H   0  0  0  0  0  0  0  0  0  0  0  0
    3.5740    1.9765   16.8775 C   0  0  0  0  0  0  0  0  0  0  0  0
    3.8330    1.8005   18.2306 O   0  0  0  0  0  0  0  0  0  0  0  0
    3.1642    1.2325   18.6712 H   0  0  0  0  0  0  0  0  0  0  0  0
    5.2218    6.5992   17.7207 C   0  0  0  0  0  0  0  0  0  0  0  0
    5.0901    5.4253   20.0033 N   0  0  0  0  0  0  0  0  0  0  0  0
    5.7885    6.2000   19.0732 C   0  0  0  0  0  0  0  0  0  0  0  0
    6.9673    6.6716   19.2224 O   0  0  0  0  0  0  0  0  0  0  0  0
    4.0987    5.1366   19.6001 H   0  0  0  0  0  0  0  0  0  0  0  0
    5.3838    4.9640   21.3068 C   0  0  0  0  0  0  0  0  0  0  0  0
    6.4030    5.7180   22.0348 C   0  0  0  0  0  0  0  0  0  0  0  0
    7.3766    5.0937   22.5518 O   0  0  0  0  0  0  0  0  0  0  0  0
    6.4406    7.1193   22.2465 N   0  0  0  0  0  0  0  0  0  0  0  0
    5.7001    7.7099   21.8513 H   0  0  0  0  0  0  0  0  0  0  0  0
    7.5049    7.7531   23.0042 C   0  0  0  0  0  0  0  0  0  0  0  0
    7.2129    9.1596   23.3481 C   0  0  0  0  0  0  0  0  0  0  0  0
    6.7918    9.4600   24.4895 O   0  0  0  0  0  0  0  0  0  0  0  0
    7.4099   10.1662   22.3963 N   0  0  0  0  0  0  0  0  0  0  0  0
    7.7670    9.8829   21.4342 H   0  0  0  0  0  0  0  0  0  0  0  0
    7.1783   11.5749   22.5618 C   0  0  0  0  0  0  0  0  0  0  0  0
    6.9787   12.2820   21.2423 C   0  0  0  0  0  0  0  0  0  0  0  0
    7.0262   11.2882   20.2496 O   0  0  0  0  0  0  0  0  0  0  0  0
    7.8677   11.2640   19.7625 H   0  0  0  0  0  0  0  0  0  0  0  0
    8.2945   12.2698   23.3195 C   0  0  0  0  0  0  0  0  0  0  0  0
    7.9279   12.7460   24.5534 O   0  0  0  0  0  0  0  0  0  0  0  0
    8.3766   13.6220   24.7025 H   0  0  0  0  0  0  0  0  0  0  0  0
    8.7505    7.7006   22.1424 C   0  0  0  0  0  0  0  0  0  0  0  0
    9.6992    6.8247   22.6592 O   0  0  0  0  0  0  0  0  0  0  0  0
   10.2242    6.4720   21.9019 H   0  0  0  0  0  0  0  0  0  0  0  0
    5.4120    3.5001   21.5334 C   0  0  0  0  0  0  0  0  0  0  0  0
    5.3417    2.3733   23.6786 C   0  0  0  0  0  0  0  0  0  0  0  0
    4.4727    2.9474   22.5448 C   0  0  0  0  0  0  0  0  0  0  0  0
    3.6627    4.0503   23.2478 C   0  0  0  0  0  0  0  0  0  0  0  0
    4.7444    8.0079   17.6849 C   0  0  0  0  0  0  0  0  0  0  0  0
    3.8158    8.3157   18.8451 C   0  0  0  0  0  0  0  0  0  0  0  0
    4.2579    9.4117   19.7024 C   0  0  0  0  0  0  0  0  0  0  0  0
    4.1495   10.7478   19.1999 N   0  0  0  0  0  0  0  0  0  0  0  0
    4.7352    9.2770   20.8683 O   0  0  0  0  0  0  0  0  0  0  0  0
    3.2603   11.0565   18.8034 H   0  0  0  0  0  0  0  0  0  0  0  0
    5.0260   11.3180   19.2836 H   0  0  0  0  0  0  0  0  0  0  0  0
 64 65  1  0  0  0
 65 66  1  0  0  0
 65 63  1  0  0  0
 63 43  1  0  0  0
 43 39  1  0  0  0
 39 40  1  0  0  0
 40 41  2  0  0  0
 40 38  1  0  0  0
 38 67  1  0  0  0
 67 68  1  0  0  0
 68 69  1  0  0  0
 69 70  1  0  0  0
 69 71  2  0  0  0
 38  1  1  0  0  0
  1  2  1  0  0  0
  2  3  2  0  0  0
  2  5  1  0  0  0
  5 35  1  0  0  0
 35 36  1  0  0  0
  5  6  1  0  0  0
  6  7  1  0  0  0
  7  8  2  0  0  0
  7 10  1  0  0  0
 10 32  1  0  0  0
 32 33  1  0  0  0
 10 11  1  0  0  0
 11 12  1  0  0  0
 12 13  2  0  0  0
 12 15  1  0  0  0
 15 29  1  0  0  0
 29 30  1  0  0  0
 15 16  1  0  0  0
 16 17  1  0  0  0
 17 18  2  0  0  0
 17 20  1  0  0  0
 20 26  1  0  0  0
 26 27  1  0  0  0
 20 21  1  0  0  0
 21 22  1  0  0  0
 22 23  1  0  0  0
 22 24  2  0  0  0
 43 44  1  0  0  0
 44 45  2  0  0  0
 44 46  1  0  0  0
 46 48  1  0  0  0
 48 60  1  0  0  0
 60 61  1  0  0  0
 48 49  1  0  0  0
 49 50  2  0  0  0
 49 51  1  0  0  0
 51 53  1  0  0  0
 53 57  1  0  0  0
 57 58  1  0  0  0
 53 54  1  0  0  0
 54 55  1  0  0  0
 39 42  1  0  0  0
 70 72  1  0  0  0
 70 73  1  0  0  0
  1  4  1  0  0  0
 36 37  1  0  0  0
  6  9  1  0  0  0
 33 34  1  0  0  0
 11 14  1  0  0  0
 30 31  1  0  0  0
 16 19  1  0  0  0
 27 28  1  0  0  0
 21 25  1  0  0  0
 46 47  1  0  0  0
 61 62  1  0  0  0
 51 52  1  0  0  0
 58 59  1  0  0  0
 55 56  1  0  0  0
M  END
> <minimizedAffinity>
-7.54382

> <CNNscore>
0.3746999204

> <CNNaffinity>
5.7680702209

> <CNN_VS>
2.1612954140

> <CNNaffinity_variance>
0.6846953034

$$$$
[H]OC([H])([H])C([H])(N([H])C(=O)[C@@]([H])(N([H])C(=O)[C@@]([H])(N([H])C(=O)[C@@]([H])(N([H])C(=O)[C@@]([H])(N([H])C(=O)[C@@]([H])(N([H])C(=O)[C@@]([H])(N([H])C(=O)[C@@]([H])(N([H])C(=O)C([H])([H])[H])C([H])([H])O[H])C([H])([H])O[H])C([H])([H])O[H])C([H])([H])O[H])C([H])([H])C([H])([H])C(=O)N([H])[H])C([H])([H])C([H])(C([H])([H])[H])C([H])([H])[H])C([H])([H])O[H])C([H])([H])O[H]


 73 72  0  0  0  0  0  0  0  0999 V2000
    4.9747    7.7287   13.4001 N   0  0  0  0  0  0  0  0  0  0  0  0
    5.9628    8.3422   12.6093 C   0  0  0  0  0  0  0  0  0  0  0  0
    6.5294    9.4149   12.8854 O   0  0  0  0  0  0  0  0  0  0  0  0
    4.5579    6.8236   13.0620 H   0  0  0  0  0  0  0  0  0  0  0  0
    6.3778    7.6589   11.3292 C   0  0  0  0  0  0  0  0  0  0  0  0
    6.0949    8.5224   10.2069 N   0  0  0  0  0  0  0  0  0  0  0  0
    5.4383    8.0436    9.0431 C   0  0  0  0  0  0  0  0  0  0  0  0
    5.0769    6.8492    8.9424 O   0  0  0  0  0  0  0  0  0  0  0  0
    6.3710    9.5300   10.2314 H   0  0  0  0  0  0  0  0  0  0  0  0
    5.1764    8.9768    7.9321 C   0  0  0  0  0  0  0  0  0  0  0  0
    6.0409    8.6309    6.8211 N   0  0  0  0  0  0  0  0  0  0  0  0
    6.4616    9.6287    5.9213 C   0  0  0  0  0  0  0  0  0  0  0  0
    6.0476   10.8185    6.1422 O   0  0  0  0  0  0  0  0  0  0  0  0
    6.3512    7.6483    6.6712 H   0  0  0  0  0  0  0  0  0  0  0  0
    7.3369    9.2895    4.7798 C   0  0  0  0  0  0  0  0  0  0  0  0
    8.4377    8.5018    5.3628 N   0  0  0  0  0  0  0  0  0  0  0  0
    9.7401    8.8379    5.0334 C   0  0  0  0  0  0  0  0  0  0  0  0
    9.9652    9.8135    4.2437 O   0  0  0  0  0  0  0  0  0  0  0  0
    8.1449    7.7425    5.9893 H   0  0  0  0  0  0  0  0  0  0  0  0
   10.9157    8.1191    5.5550 C   0  0  0  0  0  0  0  0  0  0  0  0
   10.5582    7.3089    6.7126 N   0  0  0  0  0  0  0  0  0  0  0  0
   11.3959    7.3259    7.8447 C   0  0  0  0  0  0  0  0  0  0  0  0
   11.0083    6.4806    9.0137 C   0  0  0  0  0  0  0  0  0  0  0  0
   12.4283    8.0109    7.8941 O   0  0  0  0  0  0  0  0  0  0  0  0
    9.6959    6.7395    6.6753 H   0  0  0  0  0  0  0  0  0  0  0  0
   11.5739    7.3290    4.4627 C   0  0  0  0  0  0  0  0  0  0  0  0
   12.9456    7.4980    4.5242 O   0  0  0  0  0  0  0  0  0  0  0  0
   13.3079    7.3028    3.6227 H   0  0  0  0  0  0  0  0  0  0  0  0
    6.6171    8.4561    3.7609 C   0  0  0  0  0  0  0  0  0  0  0  0
    5.2635    8.4376    3.9557 O   0  0  0  0  0  0  0  0  0  0  0  0
    4.7548    8.5383    3.0940 H   0  0  0  0  0  0  0  0  0  0  0  0
    3.7214    8.7851    7.5102 C   0  0  0  0  0  0  0  0  0  0  0  0
    3.6344    7.8178    6.5076 O   0  0  0  0  0  0  0  0  0  0  0  0
    4.4135    7.2179    6.5233 H   0  0  0  0  0  0  0  0  0  0  0  0
    7.8414    7.3089   11.3866 C   0  0  0  0  0  0  0  0  0  0  0  0
    8.5678    8.4926   11.3792 O   0  0  0  0  0  0  0  0  0  0  0  0
    9.0656    8.6341   12.2136 H   0  0  0  0  0  0  0  0  0  0  0  0
    4.4648    8.2178   14.6478 C   0  0  0  0  0  0  0  0  0  0  0  0
    3.8521    5.7562   15.0609 N   0  0  0  0  0  0  0  0  0  0  0  0
    4.0542    7.0548   15.5360 C   0  0  0  0  0  0  0  0  0  0  0  0
    3.9250    7.4400   16.7480 O   0  0  0  0  0  0  0  0  0  0  0  0
    4.0567    5.7058   13.9726 H   0  0  0  0  0  0  0  0  0  0  0  0
    3.4461    4.5463   15.6687 C   0  0  0  0  0  0  0  0  0  0  0  0
    3.2102    4.6053   17.1103 C   0  0  0  0  0  0  0  0  0  0  0  0
    2.0210    4.7097   17.5344 O   0  0  0  0  0  0  0  0  0  0  0  0
    4.1857    4.5606   18.1381 N   0  0  0  0  0  0  0  0  0  0  0  0
    5.1766    4.4619   17.8900 H   0  0  0  0  0  0  0  0  0  0  0  0
    3.8258    4.6434   19.5424 C   0  0  0  0  0  0  0  0  0  0  0  0
    4.4105    5.8171   20.2222 C   0  0  0  0  0  0  0  0  0  0  0  0
    4.3023    5.9513   21.4634 O   0  0  0  0  0  0  0  0  0  0  0  0
    5.0932    6.7860   19.4786 N   0  0  0  0  0  0  0  0  0  0  0  0
    5.1690    6.6478   18.4256 H   0  0  0  0  0  0  0  0  0  0  0  0
    5.7185    7.9807   19.9756 C   0  0  0  0  0  0  0  0  0  0  0  0
    4.7101    9.0264   20.3885 C   0  0  0  0  0  0  0  0  0  0  0  0
    4.5138    8.8629   21.7705 O   0  0  0  0  0  0  0  0  0  0  0  0
    3.6827    8.4104   21.9952 H   0  0  0  0  0  0  0  0  0  0  0  0
    6.6785    8.6014   18.9775 C   0  0  0  0  0  0  0  0  0  0  0  0
    6.5966    8.0746   17.7129 O   0  0  0  0  0  0  0  0  0  0  0  0
    7.5149    8.0138   17.3334 H   0  0  0  0  0  0  0  0  0  0  0  0
    4.3385    3.3797   20.2037 C   0  0  0  0  0  0  0  0  0  0  0  0
    3.9093    3.2766   21.5225 O   0  0  0  0  0  0  0  0  0  0  0  0
    3.8453    2.3167   21.7418 H   0  0  0  0  0  0  0  0  0  0  0  0
    4.0667    3.2887   15.1905 C   0  0  0  0  0  0  0  0  0  0  0  0
    2.7346    1.3071   15.6093 C   0  0  0  0  0  0  0  0  0  0  0  0
    3.1796    2.3010   14.5210 C   0  0  0  0  0  0  0  0  0  0  0  0
    1.8546    2.9313   14.0586 C   0  0  0  0  0  0  0  0  0  0  0  0
    3.3919    9.2370   14.4942 C   0  0  0  0  0  0  0  0  0  0  0  0
    3.8989   10.6357   14.7940 C   0  0  0  0  0  0  0  0  0  0  0  0
    3.4820   11.1682   16.0878 C   0  0  0  0  0  0  0  0  0  0  0  0
    2.7896   10.2946   16.9861 N   0  0  0  0  0  0  0  0  0  0  0  0
    3.6847   12.3536   16.4868 O   0  0  0  0  0  0  0  0  0  0  0  0
    3.1875    9.3757   17.1874 H   0  0  0  0  0  0  0  0  0  0  0  0
    1.8979   10.6865   17.3755 H   0  0  0  0  0  0  0  0  0  0  0  0
 64 65  1  0  0  0
 65 66  1  0  0  0
 65 63  1  0  0  0
 63 43  1  0  0  0
 43 39  1  0  0  0
 39 40  1  0  0  0
 40 41  2  0  0  0
 40 38  1  0  0  0
 38 67  1  0  0  0
 67 68  1  0  0  0
 68 69  1  0  0  0
 69 70  1  0  0  0
 69 71  2  0  0  0
 38  1  1  0  0  0
  1  2  1  0  0  0
  2  3  2  0  0  0
  2  5  1  0  0  0
  5 35  1  0  0  0
 35 36  1  0  0  0
  5  6  1  0  0  0
  6  7  1  0  0  0
  7  8  2  0  0  0
  7 10  1  0  0  0
 10 32  1  0  0  0
 32 33  1  0  0  0
 10 11  1  0  0  0
 11 12  1  0  0  0
 12 13  2  0  0  0
 12 15  1  0  0  0
 15 29  1  0  0  0
 29 30  1  0  0  0
 15 16  1  0  0  0
 16 17  1  0  0  0
 17 18  2  0  0  0
 17 20  1  0  0  0
 20 26  1  0  0  0
 26 27  1  0  0  0
 20 21  1  0  0  0
 21 22  1  0  0  0
 22 23  1  0  0  0
 22 24  2  0  0  0
 43 44  1  0  0  0
 44 45  2  0  0  0
 44 46  1  0  0  0
 46 48  1  0  0  0
 48 60  1  0  0  0
 60 61  1  0  0  0
 48 49  1  0  0  0
 49 50  2  0  0  0
 49 51  1  0  0  0
 51 53  1  0  0  0
 53 57  1  0  0  0
 57 58  1  0  0  0
 53 54  1  0  0  0
 54 55  1  0  0  0
 39 42  1  0  0  0
 70 72  1  0  0  0
 70 73  1  0  0  0
  1  4  1  0  0  0
 36 37  1  0  0  0
  6  9  1  0  0  0
 33 34  1  0  0  0
 11 14  1  0  0  0
 30 31  1  0  0  0
 16 19  1  0  0  0
 27 28  1  0  0  0
 21 25  1  0  0  0
 46 47  1  0  0  0
 61 62  1  0  0  0
 51 52  1  0  0  0
 58 59  1  0  0  0
 55 56  1  0  0  0
M  END
> <minimizedAffinity>
-7.71041

> <CNNscore>
0.2403843999

> <CNNaffinity>
5.6855645180

> <CNN_VS>
1.3667210340

> <CNNaffinity_variance>
0.4965571761

$$$$
[H]OC([H])([H])C([H])(N([H])C(=O)[C@@]([H])(N([H])C(=O)[C@@]([H])(N([H])C(=O)[C@@]([H])(N([H])C(=O)[C@@]([H])(N([H])C(=O)[C@@]([H])(N([H])C(=O)[C@@]([H])(N([H])C(=O)[C@@]([H])(N([H])C(=O)C([H])([H])[H])C([H])([H])O[H])C([H])([H])O[H])C([H])([H])O[H])C([H])([H])O[H])C([H])([H])C([H])([H])C(=O)N([H])[H])C([H])([H])C([H])(C([H])([H])[H])C([H])([H])[H])C([H])([H])O[H])C([H])([H])O[H]


 73 72  0  0  0  0  0  0  0  0999 V2000
    3.8488    6.6396   19.6332 N   0  0  0  0  0  0  0  0  0  0  0  0
    4.8909    5.8671   20.1767 C   0  0  0  0  0  0  0  0  0  0  0  0
    5.7080    5.2066   19.5103 O   0  0  0  0  0  0  0  0  0  0  0  0
    3.2111    7.1512   20.2956 H   0  0  0  0  0  0  0  0  0  0  0  0
    5.0421    5.8285   21.6778 C   0  0  0  0  0  0  0  0  0  0  0  0
    5.1499    7.1754   22.1873 N   0  0  0  0  0  0  0  0  0  0  0  0
    6.4011    7.8382   22.2871 C   0  0  0  0  0  0  0  0  0  0  0  0
    7.4653    7.2798   21.9365 O   0  0  0  0  0  0  0  0  0  0  0  0
    4.2969    7.6947   22.4952 H   0  0  0  0  0  0  0  0  0  0  0  0
    6.4437    9.2146   22.8139 C   0  0  0  0  0  0  0  0  0  0  0  0
    7.6641    9.3822   23.5780 N   0  0  0  0  0  0  0  0  0  0  0  0
    7.6137    9.4114   24.9847 C   0  0  0  0  0  0  0  0  0  0  0  0
    6.4617    9.2824   25.5251 O   0  0  0  0  0  0  0  0  0  0  0  0
    8.5829    9.4910   23.1004 H   0  0  0  0  0  0  0  0  0  0  0  0
    8.8489    9.5892   25.7766 C   0  0  0  0  0  0  0  0  0  0  0  0
    9.9477    9.2648   24.8494 N   0  0  0  0  0  0  0  0  0  0  0  0
   10.8522    8.2809   25.2120 C   0  0  0  0  0  0  0  0  0  0  0  0
   10.7210    7.6753   26.3265 O   0  0  0  0  0  0  0  0  0  0  0  0
    9.9565    9.8087   23.9783 H   0  0  0  0  0  0  0  0  0  0  0  0
   11.9883    7.8773   24.3651 C   0  0  0  0  0  0  0  0  0  0  0  0
   11.5229    7.2251   23.1475 N   0  0  0  0  0  0  0  0  0  0  0  0
   11.4289    5.8201   23.1170 C   0  0  0  0  0  0  0  0  0  0  0  0
   10.9555    5.1787   21.8537 C   0  0  0  0  0  0  0  0  0  0  0  0
   11.7247    5.1154   24.0934 O   0  0  0  0  0  0  0  0  0  0  0  0
   11.2722    7.8106   22.3330 H   0  0  0  0  0  0  0  0  0  0  0  0
   12.8867    9.0491   24.1001 C   0  0  0  0  0  0  0  0  0  0  0  0
   13.6483    8.8091   22.9705 O   0  0  0  0  0  0  0  0  0  0  0  0
   14.4568    9.3787   23.0329 H   0  0  0  0  0  0  0  0  0  0  0  0
    9.0020   11.0045   26.2501 C   0  0  0  0  0  0  0  0  0  0  0  0
    7.9595   11.4138   27.0350 O   0  0  0  0  0  0  0  0  0  0  0  0
    8.2705   11.9307   27.8397 H   0  0  0  0  0  0  0  0  0  0  0  0
    6.4720   10.1600   21.6152 C   0  0  0  0  0  0  0  0  0  0  0  0
    5.3647    9.9325   20.7964 O   0  0  0  0  0  0  0  0  0  0  0  0
    4.6343    9.5042   21.2966 H   0  0  0  0  0  0  0  0  0  0  0  0
    3.8700    5.1101   22.2924 C   0  0  0  0  0  0  0  0  0  0  0  0
    4.2178    4.7476   23.5872 O   0  0  0  0  0  0  0  0  0  0  0  0
    3.6735    5.2040   24.2650 H   0  0  0  0  0  0  0  0  0  0  0  0
    3.5585    6.8082   18.2392 C   0  0  0  0  0  0  0  0  0  0  0  0
    4.3437    4.7134   16.9739 N   0  0  0  0  0  0  0  0  0  0  0  0
    3.3297    5.4550   17.5861 C   0  0  0  0  0  0  0  0  0  0  0  0
    2.1014    5.1135   17.6802 O   0  0  0  0  0  0  0  0  0  0  0  0
    5.3149    5.2408   17.0599 H   0  0  0  0  0  0  0  0  0  0  0  0
    4.3715    3.4781   16.2873 C   0  0  0  0  0  0  0  0  0  0  0  0
    3.3754    3.3146   15.2297 C   0  0  0  0  0  0  0  0  0  0  0  0
    2.3083    2.6807   15.4836 O   0  0  0  0  0  0  0  0  0  0  0  0
    3.4565    3.7944   13.8981 N   0  0  0  0  0  0  0  0  0  0  0  0
    4.2794    4.3329   13.6045 H   0  0  0  0  0  0  0  0  0  0  0  0
    2.4018    3.5536   12.9296 C   0  0  0  0  0  0  0  0  0  0  0  0
    1.3658    4.6063   12.9274 C   0  0  0  0  0  0  0  0  0  0  0  0
    1.1677    5.3045   13.9490 O   0  0  0  0  0  0  0  0  0  0  0  0
    0.6008    4.8304   11.7774 N   0  0  0  0  0  0  0  0  0  0  0  0
    0.7890    4.2219   10.9242 H   0  0  0  0  0  0  0  0  0  0  0  0
   -0.4402    5.8058   11.6035 C   0  0  0  0  0  0  0  0  0  0  0  0
   -1.7552    5.3520   12.1916 C   0  0  0  0  0  0  0  0  0  0  0  0
   -1.8366    5.9289   13.4706 O   0  0  0  0  0  0  0  0  0  0  0  0
   -1.6467    5.3051   14.1922 H   0  0  0  0  0  0  0  0  0  0  0  0
   -0.6627    6.1761   10.1487 C   0  0  0  0  0  0  0  0  0  0  0  0
    0.2833    7.0254    9.6315 O   0  0  0  0  0  0  0  0  0  0  0  0
   -0.1681    7.6729    9.0249 H   0  0  0  0  0  0  0  0  0  0  0  0
    1.7629    2.2285   13.2945 C   0  0  0  0  0  0  0  0  0  0  0  0
    0.3880    2.3481   13.4653 O   0  0  0  0  0  0  0  0  0  0  0  0
   -0.0188    1.4799   13.2320 H   0  0  0  0  0  0  0  0  0  0  0  0
    4.6501    2.2543   17.0745 C   0  0  0  0  0  0  0  0  0  0  0  0
    3.2158    0.6352   18.1692 C   0  0  0  0  0  0  0  0  0  0  0  0
    3.8432    2.0347   18.3039 C   0  0  0  0  0  0  0  0  0  0  0  0
    4.7227    1.9054   19.5595 C   0  0  0  0  0  0  0  0  0  0  0  0
    4.5611    7.6378   17.5181 C   0  0  0  0  0  0  0  0  0  0  0  0
    3.8982    8.6906   16.6490 C   0  0  0  0  0  0  0  0  0  0  0  0
    3.7133    9.9852   17.2982 C   0  0  0  0  0  0  0  0  0  0  0  0
    2.5477   10.7470   16.9654 N   0  0  0  0  0  0  0  0  0  0  0  0
    4.5080   10.4966   18.1420 O   0  0  0  0  0  0  0  0  0  0  0  0
    1.6334   10.2934   17.0015 H   0  0  0  0  0  0  0  0  0  0  0  0
    2.7388   11.7442   16.7015 H   0  0  0  0  0  0  0  0  0  0  0  0
 64 65  1  0  0  0
 65 66  1  0  0  0
 65 63  1  0  0  0
 63 43  1  0  0  0
 43 39  1  0  0  0
 39 40  1  0  0  0
 40 41  2  0  0  0
 40 38  1  0  0  0
 38 67  1  0  0  0
 67 68  1  0  0  0
 68 69  1  0  0  0
 69 70  1  0  0  0
 69 71  2  0  0  0
 38  1  1  0  0  0
  1  2  1  0  0  0
  2  3  2  0  0  0
  2  5  1  0  0  0
  5 35  1  0  0  0
 35 36  1  0  0  0
  5  6  1  0  0  0
  6  7  1  0  0  0
  7  8  2  0  0  0
  7 10  1  0  0  0
 10 32  1  0  0  0
 32 33  1  0  0  0
 10 11  1  0  0  0
 11 12  1  0  0  0
 12 13  2  0  0  0
 12 15  1  0  0  0
 15 29  1  0  0  0
 29 30  1  0  0  0
 15 16  1  0  0  0
 16 17  1  0  0  0
 17 18  2  0  0  0
 17 20  1  0  0  0
 20 26  1  0  0  0
 26 27  1  0  0  0
 20 21  1  0  0  0
 21 22  1  0  0  0
 22 23  1  0  0  0
 22 24  2  0  0  0
 43 44  1  0  0  0
 44 45  2  0  0  0
 44 46  1  0  0  0
 46 48  1  0  0  0
 48 60  1  0  0  0
 60 61  1  0  0  0
 48 49  1  0  0  0
 49 50  2  0  0  0
 49 51  1  0  0  0
 51 53  1  0  0  0
 53 57  1  0  0  0
 57 58  1  0  0  0
 53 54  1  0  0  0
 54 55  1  0  0  0
 39 42  1  0  0  0
 70 72  1  0  0  0
 70 73  1  0  0  0
  1  4  1  0  0  0
 36 37  1  0  0  0
  6  9  1  0  0  0
 33 34  1  0  0  0
 11 14  1  0  0  0
 30 31  1  0  0  0
 16 19  1  0  0  0
 27 28  1  0  0  0
 21 25  1  0  0  0
 46 47  1  0  0  0
 61 62  1  0  0  0
 51 52  1  0  0  0
 58 59  1  0  0  0
 55 56  1  0  0  0
M  END
> <minimizedAffinity>
-7.75845

> <CNNscore>
0.2277846336

> <CNNaffinity>
6.0668792725

> <CNN_VS>
1.3819419146

> <CNNaffinity_variance>
0.6034325957

$$$$
[H]OC([H])([H])C([H])(N([H])C(=O)[C@@]([H])(N([H])C(=O)[C@@]([H])(N([H])C(=O)[C@@]([H])(N([H])C(=O)[C@@]([H])(N([H])C(=O)[C@@]([H])(N([H])C(=O)[C@@]([H])(N([H])C(=O)[C@@]([H])(N([H])C(=O)C([H])([H])[H])C([H])([H])O[H])C([H])([H])O[H])C([H])([H])O[H])C([H])([H])O[H])C([H])([H])C([H])([H])C(=O)N([H])[H])C([H])([H])C([H])(C([H])([H])[H])C([H])([H])[H])C([H])([H])O[H])C([H])([H])O[H]


 73 72  0  0  0  0  0  0  0  0999 V2000
    3.6054    5.0873   17.3674 N   0  0  0  0  0  0  0  0  0  0  0  0
    3.6406    3.7538   16.9217 C   0  0  0  0  0  0  0  0  0  0  0  0
    4.6326    3.0062   16.9939 O   0  0  0  0  0  0  0  0  0  0  0  0
    2.7112    5.6286   17.2472 H   0  0  0  0  0  0  0  0  0  0  0  0
    2.3892    3.1729   16.3100 C   0  0  0  0  0  0  0  0  0  0  0  0
    2.3167    3.5418   14.9157 N   0  0  0  0  0  0  0  0  0  0  0  0
    1.7763    4.7866   14.4997 C   0  0  0  0  0  0  0  0  0  0  0  0
    1.3390    5.6176   15.3276 O   0  0  0  0  0  0  0  0  0  0  0  0
    2.6667    2.8907   14.1770 H   0  0  0  0  0  0  0  0  0  0  0  0
    1.7326    5.1046   13.0607 C   0  0  0  0  0  0  0  0  0  0  0  0
    0.5643    5.9224   12.8007 N   0  0  0  0  0  0  0  0  0  0  0  0
   -0.6963    5.3159   12.6418 C   0  0  0  0  0  0  0  0  0  0  0  0
   -0.7418    4.0416   12.7408 O   0  0  0  0  0  0  0  0  0  0  0  0
    0.6437    6.9575   12.7202 H   0  0  0  0  0  0  0  0  0  0  0  0
   -1.8950    6.1363   12.3688 C   0  0  0  0  0  0  0  0  0  0  0  0
   -2.9684    5.1651   12.0920 N   0  0  0  0  0  0  0  0  0  0  0  0
   -3.5987    5.2071   10.8596 C   0  0  0  0  0  0  0  0  0  0  0  0
   -3.2435    6.0719    9.9924 O   0  0  0  0  0  0  0  0  0  0  0  0
   -3.1706    4.5105   12.8571 H   0  0  0  0  0  0  0  0  0  0  0  0
   -4.6840    4.2874   10.4764 C   0  0  0  0  0  0  0  0  0  0  0  0
   -4.2607    2.8992   10.6112 N   0  0  0  0  0  0  0  0  0  0  0  0
   -4.2726    2.0668    9.4751 C   0  0  0  0  0  0  0  0  0  0  0  0
   -3.8402    0.6471    9.6444 C   0  0  0  0  0  0  0  0  0  0  0  0
   -4.6274    2.4748    8.3592 O   0  0  0  0  0  0  0  0  0  0  0  0
   -3.9610    2.5574   11.5399 H   0  0  0  0  0  0  0  0  0  0  0  0
   -5.9328    4.6007   11.2463 C   0  0  0  0  0  0  0  0  0  0  0  0
   -5.6680    4.5620   12.6036 O   0  0  0  0  0  0  0  0  0  0  0  0
   -6.5273    4.3932   13.0674 H   0  0  0  0  0  0  0  0  0  0  0  0
   -2.2756    6.9698   13.5568 C   0  0  0  0  0  0  0  0  0  0  0  0
   -1.5936    6.6173   14.6887 O   0  0  0  0  0  0  0  0  0  0  0  0
   -1.2747    7.4194   15.2048 H   0  0  0  0  0  0  0  0  0  0  0  0
    2.9879    5.9104   12.7344 C   0  0  0  0  0  0  0  0  0  0  0  0
    3.8786    5.8702   13.8085 O   0  0  0  0  0  0  0  0  0  0  0  0
    3.7134    5.0860   14.3785 H   0  0  0  0  0  0  0  0  0  0  0  0
    2.3862    1.6759   16.4740 C   0  0  0  0  0  0  0  0  0  0  0  0
    3.1059    1.1259   15.4211 O   0  0  0  0  0  0  0  0  0  0  0  0
    3.9231    0.6715   15.7205 H   0  0  0  0  0  0  0  0  0  0  0  0
    4.6845    5.8024   17.9838 C   0  0  0  0  0  0  0  0  0  0  0  0
    5.7044    5.7157   20.3414 N   0  0  0  0  0  0  0  0  0  0  0  0
    4.5917    5.6857   19.4963 C   0  0  0  0  0  0  0  0  0  0  0  0
    3.3736    5.5576   19.8624 O   0  0  0  0  0  0  0  0  0  0  0  0
    6.6332    5.8589   19.7535 H   0  0  0  0  0  0  0  0  0  0  0  0
    5.8720    5.5955   21.7398 C   0  0  0  0  0  0  0  0  0  0  0  0
    6.6666    6.6433   22.3786 C   0  0  0  0  0  0  0  0  0  0  0  0
    7.8342    6.3671   22.7850 O   0  0  0  0  0  0  0  0  0  0  0  0
    6.2787    7.9866   22.6130 N   0  0  0  0  0  0  0  0  0  0  0  0
    5.3536    8.3064   22.3042 H   0  0  0  0  0  0  0  0  0  0  0  0
    7.1568    8.9351   23.2745 C   0  0  0  0  0  0  0  0  0  0  0  0
    8.4447    9.1176   22.5749 C   0  0  0  0  0  0  0  0  0  0  0  0
    8.4809    9.6426   21.4376 O   0  0  0  0  0  0  0  0  0  0  0  0
    9.6348    8.7055   23.1847 N   0  0  0  0  0  0  0  0  0  0  0  0
    9.5751    8.2613   24.1505 H   0  0  0  0  0  0  0  0  0  0  0  0
   10.9649    8.8074   22.6501 C   0  0  0  0  0  0  0  0  0  0  0  0
   11.9672    8.0103   23.4506 C   0  0  0  0  0  0  0  0  0  0  0  0
   13.2152    8.2135   22.8369 O   0  0  0  0  0  0  0  0  0  0  0  0
   13.5089    7.4625   22.2932 H   0  0  0  0  0  0  0  0  0  0  0  0
   11.4524   10.2412   22.5541 C   0  0  0  0  0  0  0  0  0  0  0  0
   11.2655   10.8198   21.3236 O   0  0  0  0  0  0  0  0  0  0  0  0
   12.0548   11.3902   21.1170 H   0  0  0  0  0  0  0  0  0  0  0  0
    7.4194    8.3956   24.6663 C   0  0  0  0  0  0  0  0  0  0  0  0
    6.4974    8.8776   25.5892 O   0  0  0  0  0  0  0  0  0  0  0  0
    6.3979    8.1963   26.2960 H   0  0  0  0  0  0  0  0  0  0  0  0
    6.0671    4.2377   22.2997 C   0  0  0  0  0  0  0  0  0  0  0  0
    5.2527    2.4398   23.7072 C   0  0  0  0  0  0  0  0  0  0  0  0
    4.8478    3.4479   22.6163 C   0  0  0  0  0  0  0  0  0  0  0  0
    3.7688    4.2988   23.3079 C   0  0  0  0  0  0  0  0  0  0  0  0
    4.8094    7.2098   17.5176 C   0  0  0  0  0  0  0  0  0  0  0  0
    6.2615    7.6258   17.3704 C   0  0  0  0  0  0  0  0  0  0  0  0
    6.7803    8.4217   18.4788 C   0  0  0  0  0  0  0  0  0  0  0  0
    8.1428    8.8572   18.4177 N   0  0  0  0  0  0  0  0  0  0  0  0
    6.1170    8.7636   19.5027 O   0  0  0  0  0  0  0  0  0  0  0  0
    8.4758    9.3223   17.5716 H   0  0  0  0  0  0  0  0  0  0  0  0
    8.7053    8.6529   19.2792 H   0  0  0  0  0  0  0  0  0  0  0  0
 64 65  1  0  0  0
 65 66  1  0  0  0
 65 63  1  0  0  0
 63 43  1  0  0  0
 43 39  1  0  0  0
 39 40  1  0  0  0
 40 41  2  0  0  0
 40 38  1  0  0  0
 38 67  1  0  0  0
 67 68  1  0  0  0
 68 69  1  0  0  0
 69 70  1  0  0  0
 69 71  2  0  0  0
 38  1  1  0  0  0
  1  2  1  0  0  0
  2  3  2  0  0  0
  2  5  1  0  0  0
  5 35  1  0  0  0
 35 36  1  0  0  0
  5  6  1  0  0  0
  6  7  1  0  0  0
  7  8  2  0  0  0
  7 10  1  0  0  0
 10 32  1  0  0  0
 32 33  1  0  0  0
 10 11  1  0  0  0
 11 12  1  0  0  0
 12 13  2  0  0  0
 12 15  1  0  0  0
 15 29  1  0  0  0
 29 30  1  0  0  0
 15 16  1  0  0  0
 16 17  1  0  0  0
 17 18  2  0  0  0
 17 20  1  0  0  0
 20 26  1  0  0  0
 26 27  1  0  0  0
 20 21  1  0  0  0
 21 22  1  0  0  0
 22 23  1  0  0  0
 22 24  2  0  0  0
 43 44  1  0  0  0
 44 45  2  0  0  0
 44 46  1  0  0  0
 46 48  1  0  0  0
 48 60  1  0  0  0
 60 61  1  0  0  0
 48 49  1  0  0  0
 49 50  2  0  0  0
 49 51  1  0  0  0
 51 53  1  0  0  0
 53 57  1  0  0  0
 57 58  1  0  0  0
 53 54  1  0  0  0
 54 55  1  0  0  0
 39 42  1  0  0  0
 70 72  1  0  0  0
 70 73  1  0  0  0
  1  4  1  0  0  0
 36 37  1  0  0  0
  6  9  1  0  0  0
 33 34  1  0  0  0
 11 14  1  0  0  0
 30 31  1  0  0  0
 16 19  1  0  0  0
 27 28  1  0  0  0
 21 25  1  0  0  0
 46 47  1  0  0  0
 61 62  1  0  0  0
 51 52  1  0  0  0
 58 59  1  0  0  0
 55 56  1  0  0  0
M  END
> <minimizedAffinity>
-7.73918

> <CNNscore>
0.1809341609

> <CNNaffinity>
5.6756138802

> <CNN_VS>
1.0269124508

> <CNNaffinity_variance>
0.4103253484

$$$$
[H]OC([H])([H])C([H])(N([H])C(=O)[C@@]([H])(N([H])C(=O)[C@@]([H])(N([H])C(=O)[C@@]([H])(N([H])C(=O)[C@@]([H])(N([H])C(=O)[C@@]([H])(N([H])C(=O)[C@@]([H])(N([H])C(=O)[C@@]([H])(N([H])C(=O)C([H])([H])[H])C([H])([H])O[H])C([H])([H])O[H])C([H])([H])O[H])C([H])([H])O[H])C([H])([H])C([H])([H])C(=O)N([H])[H])C([H])([H])C([H])(C([H])([H])[H])C([H])([H])[H])C([H])([H])O[H])C([H])([H])O[H]


 73 72  0  0  0  0  0  0  0  0999 V2000
    2.4946    3.9338   15.5385 N   0  0  0  0  0  0  0  0  0  0  0  0
    1.9123    3.3260   14.4117 C   0  0  0  0  0  0  0  0  0  0  0  0
    1.6083    2.1223   14.3310 O   0  0  0  0  0  0  0  0  0  0  0  0
    2.7174    4.9610   15.4903 H   0  0  0  0  0  0  0  0  0  0  0  0
    1.6280    4.1859   13.2045 C   0  0  0  0  0  0  0  0  0  0  0  0
    2.8592    4.4475   12.4967 N   0  0  0  0  0  0  0  0  0  0  0  0
    3.2304    5.7599   12.1036 C   0  0  0  0  0  0  0  0  0  0  0  0
    2.5026    6.7470   12.3553 O   0  0  0  0  0  0  0  0  0  0  0  0
    3.5095    3.6648   12.2586 H   0  0  0  0  0  0  0  0  0  0  0  0
    4.5021    5.9609   11.3852 C   0  0  0  0  0  0  0  0  0  0  0  0
    5.3603    6.8096   12.1881 N   0  0  0  0  0  0  0  0  0  0  0  0
    6.1970    7.7541   11.5635 C   0  0  0  0  0  0  0  0  0  0  0  0
    6.1500    7.8137   10.2867 O   0  0  0  0  0  0  0  0  0  0  0  0
    5.3750    6.7259   13.2258 H   0  0  0  0  0  0  0  0  0  0  0  0
    7.0827    8.6210   12.3687 C   0  0  0  0  0  0  0  0  0  0  0  0
    6.7481    8.3128   13.7706 N   0  0  0  0  0  0  0  0  0  0  0  0
    5.9175    9.1804   14.4599 C   0  0  0  0  0  0  0  0  0  0  0  0
    5.4575   10.2178   13.8783 O   0  0  0  0  0  0  0  0  0  0  0  0
    7.1678    7.4508   14.1385 H   0  0  0  0  0  0  0  0  0  0  0  0
    5.5193    8.9726   15.8631 C   0  0  0  0  0  0  0  0  0  0  0  0
    6.0033   10.0580   16.7069 N   0  0  0  0  0  0  0  0  0  0  0  0
    7.2169    9.8946   17.4028 C   0  0  0  0  0  0  0  0  0  0  0  0
    7.6850   11.0208   18.2654 C   0  0  0  0  0  0  0  0  0  0  0  0
    7.8932    8.8586   17.3201 O   0  0  0  0  0  0  0  0  0  0  0  0
    5.4431   10.9244   16.7749 H   0  0  0  0  0  0  0  0  0  0  0  0
    4.0369    8.7649   15.9618 C   0  0  0  0  0  0  0  0  0  0  0  0
    3.7698    7.6736   16.7689 O   0  0  0  0  0  0  0  0  0  0  0  0
    2.8716    7.3361   16.5215 H   0  0  0  0  0  0  0  0  0  0  0  0
    8.5300    8.3096   12.1251 C   0  0  0  0  0  0  0  0  0  0  0  0
    8.7373    7.0026   11.7794 O   0  0  0  0  0  0  0  0  0  0  0  0
    9.3914    6.9100   11.0212 H   0  0  0  0  0  0  0  0  0  0  0  0
    5.1590    4.5911   11.2309 C   0  0  0  0  0  0  0  0  0  0  0  0
    5.8787    4.5342   10.0362 O   0  0  0  0  0  0  0  0  0  0  0  0
    6.1220    5.4345    9.7241 H   0  0  0  0  0  0  0  0  0  0  0  0
    0.6265    3.5012   12.3123 C   0  0  0  0  0  0  0  0  0  0  0  0
    1.2872    2.5000   11.6123 O   0  0  0  0  0  0  0  0  0  0  0  0
    0.9664    1.6022   11.8467 H   0  0  0  0  0  0  0  0  0  0  0  0
    2.8227    3.2860   16.7749 C   0  0  0  0  0  0  0  0  0  0  0  0
    3.9346    4.1725   18.9158 N   0  0  0  0  0  0  0  0  0  0  0  0
    3.0188    4.3208   17.8706 C   0  0  0  0  0  0  0  0  0  0  0  0
    2.2368    5.3163   17.6925 O   0  0  0  0  0  0  0  0  0  0  0  0
    4.4949    3.2222   18.8077 H   0  0  0  0  0  0  0  0  0  0  0  0
    4.2668    4.9596   20.0419 C   0  0  0  0  0  0  0  0  0  0  0  0
    4.8071    6.2873   19.7543 C   0  0  0  0  0  0  0  0  0  0  0  0
    5.5952    6.4304   18.7728 O   0  0  0  0  0  0  0  0  0  0  0  0
    4.5516    7.4863   20.4664 N   0  0  0  0  0  0  0  0  0  0  0  0
    3.9125    7.4704   21.2693 H   0  0  0  0  0  0  0  0  0  0  0  0
    5.1636    8.7481   20.0901 C   0  0  0  0  0  0  0  0  0  0  0  0
    5.9082    9.3836   21.1962 C   0  0  0  0  0  0  0  0  0  0  0  0
    5.8856   10.6277   21.3447 O   0  0  0  0  0  0  0  0  0  0  0  0
    6.6421    8.5937   22.0880 N   0  0  0  0  0  0  0  0  0  0  0  0
    6.6452    7.5397   21.9379 H   0  0  0  0  0  0  0  0  0  0  0  0
    7.4177    9.0441   23.2109 C   0  0  0  0  0  0  0  0  0  0  0  0
    8.9005    9.0356   22.9241 C   0  0  0  0  0  0  0  0  0  0  0  0
    9.1134    8.0241   21.9716 O   0  0  0  0  0  0  0  0  0  0  0  0
    9.4898    7.2093   22.3462 H   0  0  0  0  0  0  0  0  0  0  0  0
    7.1629    8.2307   24.4665 C   0  0  0  0  0  0  0  0  0  0  0  0
    6.4870    8.9081   25.4504 O   0  0  0  0  0  0  0  0  0  0  0  0
    6.8668    8.6491   26.3334 H   0  0  0  0  0  0  0  0  0  0  0  0
    4.0417    9.6686   19.6529 C   0  0  0  0  0  0  0  0  0  0  0  0
    2.9034    8.9578   19.2882 O   0  0  0  0  0  0  0  0  0  0  0  0
    2.1215    9.5315   19.4709 H   0  0  0  0  0  0  0  0  0  0  0  0
    4.8774    4.2782   21.2073 C   0  0  0  0  0  0  0  0  0  0  0  0
    6.3307    2.4783   21.9320 C   0  0  0  0  0  0  0  0  0  0  0  0
    5.0675    2.8064   21.1153 C   0  0  0  0  0  0  0  0  0  0  0  0
    3.9619    2.0316   21.8529 C   0  0  0  0  0  0  0  0  0  0  0  0
    3.9617    2.3351   16.6650 C   0  0  0  0  0  0  0  0  0  0  0  0
    3.8717    1.2290   17.7002 C   0  0  0  0  0  0  0  0  0  0  0  0
    2.7461    0.3172   17.5180 C   0  0  0  0  0  0  0  0  0  0  0  0
    2.2223    0.1467   16.1966 N   0  0  0  0  0  0  0  0  0  0  0  0
    2.1876   -0.3440   18.4434 O   0  0  0  0  0  0  0  0  0  0  0  0
    2.8666   -0.0631   15.4324 H   0  0  0  0  0  0  0  0  0  0  0  0
    1.1818    0.2570   16.1220 H   0  0  0  0  0  0  0  0  0  0  0  0
 64 65  1  0  0  0
 65 66  1  0  0  0
 65 63  1  0  0  0
 63 43  1  0  0  0
 43 39  1  0  0  0
 39 40  1  0  0  0
 40 41  2  0  0  0
 40 38  1  0  0  0
 38 67  1  0  0  0
 67 68  1  0  0  0
 68 69  1  0  0  0
 69 70  1  0  0  0
 69 71  2  0  0  0
 38  1  1  0  0  0
  1  2  1  0  0  0
  2  3  2  0  0  0
  2  5  1  0  0  0
  5 35  1  0  0  0
 35 36  1  0  0  0
  5  6  1  0  0  0
  6  7  1  0  0  0
  7  8  2  0  0  0
  7 10  1  0  0  0
 10 32  1  0  0  0
 32 33  1  0  0  0
 10 11  1  0  0  0
 11 12  1  0  0  0
 12 13  2  0  0  0
 12 15  1  0  0  0
 15 29  1  0  0  0
 29 30  1  0  0  0
 15 16  1  0  0  0
 16 17  1  0  0  0
 17 18  2  0  0  0
 17 20  1  0  0  0
 20 26  1  0  0  0
 26 27  1  0  0  0
 20 21  1  0  0  0
 21 22  1  0  0  0
 22 23  1  0  0  0
 22 24  2  0  0  0
 43 44  1  0  0  0
 44 45  2  0  0  0
 44 46  1  0  0  0
 46 48  1  0  0  0
 48 60  1  0  0  0
 60 61  1  0  0  0
 48 49  1  0  0  0
 49 50  2  0  0  0
 49 51  1  0  0  0
 51 53  1  0  0  0
 53 57  1  0  0  0
 57 58  1  0  0  0
 53 54  1  0  0  0
 54 55  1  0  0  0
 39 42  1  0  0  0
 70 72  1  0  0  0
 70 73  1  0  0  0
  1  4  1  0  0  0
 36 37  1  0  0  0
  6  9  1  0  0  0
 33 34  1  0  0  0
 11 14  1  0  0  0
 30 31  1  0  0  0
 16 19  1  0  0  0
 27 28  1  0  0  0
 21 25  1  0  0  0
 46 47  1  0  0  0
 61 62  1  0  0  0
 51 52  1  0  0  0
 58 59  1  0  0  0
 55 56  1  0  0  0
M  END
> <minimizedAffinity>
-7.83440

> <CNNscore>
0.1806527376

> <CNNaffinity>
5.9983339310

> <CNN_VS>
1.0836154222

> <CNNaffinity_variance>
1.3835289478

$$$$
[H]OC([H])([H])C([H])(N([H])C(=O)[C@@]([H])(N([H])C(=O)[C@@]([H])(N([H])C(=O)[C@@]([H])(N([H])C(=O)[C@@]([H])(N([H])C(=O)[C@@]([H])(N([H])C(=O)[C@@]([H])(N([H])C(=O)[C@@]([H])(N([H])C(=O)C([H])([H])[H])C([H])([H])O[H])C([H])([H])O[H])C([H])([H])O[H])C([H])([H])O[H])C([H])([H])C([H])([H])C(=O)N([H])[H])C([H])([H])C([H])(C([H])([H])[H])C([H])([H])[H])C([H])([H])O[H])C([H])([H])O[H]


 73 72  0  0  0  0  0  0  0  0999 V2000
    4.1193    4.5234   16.9421 N   0  0  0  0  0  0  0  0  0  0  0  0
    3.1728    5.2090   16.1596 C   0  0  0  0  0  0  0  0  0  0  0  0
    1.9411    5.1593   16.3284 O   0  0  0  0  0  0  0  0  0  0  0  0
    5.1376    4.6336   16.7012 H   0  0  0  0  0  0  0  0  0  0  0  0
    3.6742    6.0740   15.0291 C   0  0  0  0  0  0  0  0  0  0  0  0
    2.8710    5.8435   13.8514 N   0  0  0  0  0  0  0  0  0  0  0  0
    2.9945    4.6558   13.0839 C   0  0  0  0  0  0  0  0  0  0  0  0
    3.8078    3.7574   13.3981 O   0  0  0  0  0  0  0  0  0  0  0  0
    2.1734    6.5560   13.5386 H   0  0  0  0  0  0  0  0  0  0  0  0
    2.1435    4.4797   11.8929 C   0  0  0  0  0  0  0  0  0  0  0  0
    1.0863    5.4709   11.9264 N   0  0  0  0  0  0  0  0  0  0  0  0
   -0.1672    5.1425   12.4770 C   0  0  0  0  0  0  0  0  0  0  0  0
   -0.3061    3.9552   12.9318 O   0  0  0  0  0  0  0  0  0  0  0  0
    1.2366    6.4258   11.5394 H   0  0  0  0  0  0  0  0  0  0  0  0
   -1.2568    6.1405   12.5111 C   0  0  0  0  0  0  0  0  0  0  0  0
   -2.4746    5.3896   12.1569 N   0  0  0  0  0  0  0  0  0  0  0  0
   -2.8955    5.3935   10.8376 C   0  0  0  0  0  0  0  0  0  0  0  0
   -2.2302    6.0354    9.9593 O   0  0  0  0  0  0  0  0  0  0  0  0
   -2.9295    4.9046   12.9395 H   0  0  0  0  0  0  0  0  0  0  0  0
   -4.0976    4.6803   10.3718 C   0  0  0  0  0  0  0  0  0  0  0  0
   -3.7647    3.7391    9.3099 N   0  0  0  0  0  0  0  0  0  0  0  0
   -4.3623    3.8962    8.0442 C   0  0  0  0  0  0  0  0  0  0  0  0
   -4.0077    2.9130    6.9770 C   0  0  0  0  0  0  0  0  0  0  0  0
   -5.1612    4.8121    7.7984 O   0  0  0  0  0  0  0  0  0  0  0  0
   -3.0960    2.9765    9.5112 H   0  0  0  0  0  0  0  0  0  0  0  0
   -4.8070    4.0387   11.5276 C   0  0  0  0  0  0  0  0  0  0  0  0
   -5.2793    5.0145   12.3869 O   0  0  0  0  0  0  0  0  0  0  0  0
   -5.3899    4.5950   13.2779 H   0  0  0  0  0  0  0  0  0  0  0  0
   -1.4206    6.7323   13.8800 C   0  0  0  0  0  0  0  0  0  0  0  0
   -0.2712    6.6777   14.6192 O   0  0  0  0  0  0  0  0  0  0  0  0
   -0.0991    7.5344   15.1169 H   0  0  0  0  0  0  0  0  0  0  0  0
    3.0197    4.7265   10.6670 C   0  0  0  0  0  0  0  0  0  0  0  0
    4.0950    5.5512   11.0019 O   0  0  0  0  0  0  0  0  0  0  0  0
    4.2844    5.5148   11.9662 H   0  0  0  0  0  0  0  0  0  0  0  0
    3.6332    7.5233   15.4362 C   0  0  0  0  0  0  0  0  0  0  0  0
    2.4234    8.0562   15.0105 O   0  0  0  0  0  0  0  0  0  0  0  0
    1.8494    8.3315   15.7581 H   0  0  0  0  0  0  0  0  0  0  0  0
    3.8357    3.6715   18.0600 C   0  0  0  0  0  0  0  0  0  0  0  0
    5.0981    3.9319   20.2836 N   0  0  0  0  0  0  0  0  0  0  0  0
    4.1558    4.3916   19.3596 C   0  0  0  0  0  0  0  0  0  0  0  0
    3.4478    5.4500   19.4720 O   0  0  0  0  0  0  0  0  0  0  0  0
    5.5775    3.0019   19.9175 H   0  0  0  0  0  0  0  0  0  0  0  0
    5.5356    4.3959   21.5451 C   0  0  0  0  0  0  0  0  0  0  0  0
    6.2906    5.6478   21.5367 C   0  0  0  0  0  0  0  0  0  0  0  0
    7.2043    5.8200   22.3972 O   0  0  0  0  0  0  0  0  0  0  0  0
    6.1214    6.7416   20.6507 N   0  0  0  0  0  0  0  0  0  0  0  0
    5.4135    6.6864   19.9096 H   0  0  0  0  0  0  0  0  0  0  0  0
    6.9281    7.9446   20.7530 C   0  0  0  0  0  0  0  0  0  0  0  0
    6.1277    9.1585   21.0126 C   0  0  0  0  0  0  0  0  0  0  0  0
    5.3680    9.2176   22.0075 O   0  0  0  0  0  0  0  0  0  0  0  0
    6.2184   10.2530   20.1456 N   0  0  0  0  0  0  0  0  0  0  0  0
    6.8704   10.1754   19.3074 H   0  0  0  0  0  0  0  0  0  0  0  0
    5.5161   11.5026   20.2483 C   0  0  0  0  0  0  0  0  0  0  0  0
    4.3304   11.5723   19.3154 C   0  0  0  0  0  0  0  0  0  0  0  0
    3.8391   12.8866   19.3975 O   0  0  0  0  0  0  0  0  0  0  0  0
    3.0337   12.9684   19.9366 H   0  0  0  0  0  0  0  0  0  0  0  0
    6.4082   12.7023   19.9878 C   0  0  0  0  0  0  0  0  0  0  0  0
    6.1753   13.7698   20.8183 O   0  0  0  0  0  0  0  0  0  0  0  0
    6.2630   14.6090   20.2900 H   0  0  0  0  0  0  0  0  0  0  0  0
    7.6546    8.1014   19.4322 C   0  0  0  0  0  0  0  0  0  0  0  0
    7.5114    6.9762   18.6276 O   0  0  0  0  0  0  0  0  0  0  0  0
    7.5628    7.2723   17.6877 H   0  0  0  0  0  0  0  0  0  0  0  0
    6.0068    3.3915   22.5271 C   0  0  0  0  0  0  0  0  0  0  0  0
    3.8984    3.8816   23.6185 C   0  0  0  0  0  0  0  0  0  0  0  0
    4.9960    2.8148   23.4526 C   0  0  0  0  0  0  0  0  0  0  0  0
    4.2421    1.6308   22.8231 C   0  0  0  0  0  0  0  0  0  0  0  0
    4.4771    2.3323   17.9661 C   0  0  0  0  0  0  0  0  0  0  0  0
    3.4677    1.2127   18.1414 C   0  0  0  0  0  0  0  0  0  0  0  0
    2.9567    0.6550   16.8927 C   0  0  0  0  0  0  0  0  0  0  0  0
    3.1407    1.4106   15.6906 N   0  0  0  0  0  0  0  0  0  0  0  0
    2.3568   -0.4556   16.7829 O   0  0  0  0  0  0  0  0  0  0  0  0
    4.0719    1.7654   15.4672 H   0  0  0  0  0  0  0  0  0  0  0  0
    2.2702    1.5417   15.1200 H   0  0  0  0  0  0  0  0  0  0  0  0
 64 65  1  0  0  0
 65 66  1  0  0  0
 65 63  1  0  0  0
 63 43  1  0  0  0
 43 39  1  0  0  0
 39 40  1  0  0  0
 40 41  2  0  0  0
 40 38  1  0  0  0
 38 67  1  0  0  0
 67 68  1  0  0  0
 68 69  1  0  0  0
 69 70  1  0  0  0
 69 71  2  0  0  0
 38  1  1  0  0  0
  1  2  1  0  0  0
  2  3  2  0  0  0
  2  5  1  0  0  0
  5 35  1  0  0  0
 35 36  1  0  0  0
  5  6  1  0  0  0
  6  7  1  0  0  0
  7  8  2  0  0  0
  7 10  1  0  0  0
 10 32  1  0  0  0
 32 33  1  0  0  0
 10 11  1  0  0  0
 11 12  1  0  0  0
 12 13  2  0  0  0
 12 15  1  0  0  0
 15 29  1  0  0  0
 29 30  1  0  0  0
 15 16  1  0  0  0
 16 17  1  0  0  0
 17 18  2  0  0  0
 17 20  1  0  0  0
 20 26  1  0  0  0
 26 27  1  0  0  0
 20 21  1  0  0  0
 21 22  1  0  0  0
 22 23  1  0  0  0
 22 24  2  0  0  0
 43 44  1  0  0  0
 44 45  2  0  0  0
 44 46  1  0  0  0
 46 48  1  0  0  0
 48 60  1  0  0  0
 60 61  1  0  0  0
 48 49  1  0  0  0
 49 50  2  0  0  0
 49 51  1  0  0  0
 51 53  1  0  0  0
 53 57  1  0  0  0
 57 58  1  0  0  0
 53 54  1  0  0  0
 54 55  1  0  0  0
 39 42  1  0  0  0
 70 72  1  0  0  0
 70 73  1  0  0  0
  1  4  1  0  0  0
 36 37  1  0  0  0
  6  9  1  0  0  0
 33 34  1  0  0  0
 11 14  1  0  0  0
 30 31  1  0  0  0
 16 19  1  0  0  0
 27 28  1  0  0  0
 21 25  1  0  0  0
 46 47  1  0  0  0
 61 62  1  0  0  0
 51 52  1  0  0  0
 58 59  1  0  0  0
 55 56  1  0  0  0
M  END
> <minimizedAffinity>
-7.26188

> <CNNscore>
0.1789370328

> <CNNaffinity>
5.8860392570

> <CNN_VS>
1.0532304049

> <CNNaffinity_variance>
0.7654644847

$$$$
[H]OC([H])([H])C([H])(N([H])C(=O)[C@@]([H])(N([H])C(=O)[C@@]([H])(N([H])C(=O)[C@@]([H])(N([H])C(=O)[C@@]([H])(N([H])C(=O)[C@@]([H])(N([H])C(=O)[C@@]([H])(N([H])C(=O)[C@@]([H])(N([H])C(=O)C([H])([H])[H])C([H])([H])O[H])C([H])([H])O[H])C([H])([H])O[H])C([H])([H])O[H])C([H])([H])C([H])([H])C(=O)N([H])[H])C([H])([H])C([H])(C([H])([H])[H])C([H])([H])[H])C([H])([H])O[H])C([H])([H])O[H]


 73 72  0  0  0  0  0  0  0  0999 V2000
    3.8735    5.1249   16.3362 N   0  0  0  0  0  0  0  0  0  0  0  0
    3.0160    5.4603   15.2730 C   0  0  0  0  0  0  0  0  0  0  0  0
    2.0635    4.7623   14.8808 O   0  0  0  0  0  0  0  0  0  0  0  0
    4.6534    5.7896   16.5750 H   0  0  0  0  0  0  0  0  0  0  0  0
    3.2559    6.7609   14.5461 C   0  0  0  0  0  0  0  0  0  0  0  0
    3.8309    6.4909   13.2493 N   0  0  0  0  0  0  0  0  0  0  0  0
    4.6709    7.4293   12.5947 C   0  0  0  0  0  0  0  0  0  0  0  0
    4.9479    8.5328   13.1169 O   0  0  0  0  0  0  0  0  0  0  0  0
    3.6376    5.5866   12.7625 H   0  0  0  0  0  0  0  0  0  0  0  0
    5.2286    7.0923   11.2721 C   0  0  0  0  0  0  0  0  0  0  0  0
    4.4034    7.7051   10.2500 N   0  0  0  0  0  0  0  0  0  0  0  0
    3.3502    6.9753    9.6666 C   0  0  0  0  0  0  0  0  0  0  0  0
    3.1740    5.7795   10.0847 O   0  0  0  0  0  0  0  0  0  0  0  0
    4.5833    8.6799    9.9313 H   0  0  0  0  0  0  0  0  0  0  0  0
    2.5053    7.5845    8.6181 C   0  0  0  0  0  0  0  0  0  0  0  0
    1.1299    7.5070    9.1421 N   0  0  0  0  0  0  0  0  0  0  0  0
    0.2389    6.6355    8.5387 C   0  0  0  0  0  0  0  0  0  0  0  0
    0.6173    5.9194    7.5537 O   0  0  0  0  0  0  0  0  0  0  0  0
    0.9334    8.1227    9.9402 H   0  0  0  0  0  0  0  0  0  0  0  0
   -1.1587    6.4781    8.9776 C   0  0  0  0  0  0  0  0  0  0  0  0
   -1.9782    5.9160    7.9114 N   0  0  0  0  0  0  0  0  0  0  0  0
   -2.8433    6.7646    7.1936 C   0  0  0  0  0  0  0  0  0  0  0  0
   -3.6761    6.1598    6.1110 C   0  0  0  0  0  0  0  0  0  0  0  0
   -2.9303    7.9779    7.4339 O   0  0  0  0  0  0  0  0  0  0  0  0
   -1.9049    4.9051    7.7066 H   0  0  0  0  0  0  0  0  0  0  0  0
   -1.2222    5.6862   10.2502 C   0  0  0  0  0  0  0  0  0  0  0  0
   -0.6188    6.3953   11.2733 O   0  0  0  0  0  0  0  0  0  0  0  0
   -0.3387    5.7398   11.9617 H   0  0  0  0  0  0  0  0  0  0  0  0
    2.8661    9.0219    8.3845 C   0  0  0  0  0  0  0  0  0  0  0  0
    1.7863    9.7874    8.0401 O   0  0  0  0  0  0  0  0  0  0  0  0
    1.7818   10.6731    8.5165 H   0  0  0  0  0  0  0  0  0  0  0  0
    6.6322    7.6900   11.2044 C   0  0  0  0  0  0  0  0  0  0  0  0
    6.5651    9.0367   10.8436 O   0  0  0  0  0  0  0  0  0  0  0  0
    5.6825    9.4174   11.0521 H   0  0  0  0  0  0  0  0  0  0  0  0
    1.9626    7.5214   14.4164 C   0  0  0  0  0  0  0  0  0  0  0  0
    2.2231    8.8611   14.6737 O   0  0  0  0  0  0  0  0  0  0  0  0
    2.0750    9.4310   13.8880 H   0  0  0  0  0  0  0  0  0  0  0  0
    3.7938    3.9458   17.1482 C   0  0  0  0  0  0  0  0  0  0  0  0
    4.0824    3.4843   19.6601 N   0  0  0  0  0  0  0  0  0  0  0  0
    4.4135    4.2076   18.5111 C   0  0  0  0  0  0  0  0  0  0  0  0
    5.2578    5.1652   18.4434 O   0  0  0  0  0  0  0  0  0  0  0  0
    3.3382    2.6981   19.4216 H   0  0  0  0  0  0  0  0  0  0  0  0
    4.4865    3.5610   21.0124 C   0  0  0  0  0  0  0  0  0  0  0  0
    4.5627    4.9064   21.5793 C   0  0  0  0  0  0  0  0  0  0  0  0
    3.5902    5.3398   22.2657 O   0  0  0  0  0  0  0  0  0  0  0  0
    5.6323    5.8282   21.4510 N   0  0  0  0  0  0  0  0  0  0  0  0
    6.4707    5.5588   20.9239 H   0  0  0  0  0  0  0  0  0  0  0  0
    5.5836    7.1492   22.0518 C   0  0  0  0  0  0  0  0  0  0  0  0
    5.3766    8.2277   21.0640 C   0  0  0  0  0  0  0  0  0  0  0  0
    5.0591    9.3804   21.4393 O   0  0  0  0  0  0  0  0  0  0  0  0
    5.5385    7.9646   19.6992 N   0  0  0  0  0  0  0  0  0  0  0  0
    5.8071    6.9764   19.4080 H   0  0  0  0  0  0  0  0  0  0  0  0
    5.3777    8.8901   18.6116 C   0  0  0  0  0  0  0  0  0  0  0  0
    3.9482    8.9661   18.1300 C   0  0  0  0  0  0  0  0  0  0  0  0
    3.5012    7.6393   18.0066 O   0  0  0  0  0  0  0  0  0  0  0  0
    3.4737    7.3213   17.0878 H   0  0  0  0  0  0  0  0  0  0  0  0
    6.2709    8.5681   17.4278 C   0  0  0  0  0  0  0  0  0  0  0  0
    5.6608    8.7066   16.2062 O   0  0  0  0  0  0  0  0  0  0  0  0
    5.9742    7.9742   15.6092 H   0  0  0  0  0  0  0  0  0  0  0  0
    6.9109    7.3641   22.7512 C   0  0  0  0  0  0  0  0  0  0  0  0
    6.7876    8.2196   23.8408 O   0  0  0  0  0  0  0  0  0  0  0  0
    7.4807    7.9694   24.4971 H   0  0  0  0  0  0  0  0  0  0  0  0
    5.5437    2.6307   21.4731 C   0  0  0  0  0  0  0  0  0  0  0  0
    6.8749    0.6071   21.3755 C   0  0  0  0  0  0  0  0  0  0  0  0
    5.6345    1.3106   20.7951 C   0  0  0  0  0  0  0  0  0  0  0  0
    4.4813    0.3735   21.1934 C   0  0  0  0  0  0  0  0  0  0  0  0
    4.3392    2.7296   16.4873 C   0  0  0  0  0  0  0  0  0  0  0  0
    3.8542    1.4591   17.1610 C   0  0  0  0  0  0  0  0  0  0  0  0
    2.7038    0.8317   16.5172 C   0  0  0  0  0  0  0  0  0  0  0  0
    1.9877    1.5844   15.5322 N   0  0  0  0  0  0  0  0  0  0  0  0
    2.2816   -0.3379   16.7604 O   0  0  0  0  0  0  0  0  0  0  0  0
    2.5090    2.0328   14.7770 H   0  0  0  0  0  0  0  0  0  0  0  0
    0.9490    1.6138   15.6755 H   0  0  0  0  0  0  0  0  0  0  0  0
 64 65  1  0  0  0
 65 66  1  0  0  0
 65 63  1  0  0  0
 63 43  1  0  0  0
 43 39  1  0  0  0
 39 40  1  0  0  0
 40 41  2  0  0  0
 40 38  1  0  0  0
 38 67  1  0  0  0
 67 68  1  0  0  0
 68 69  1  0  0  0
 69 70  1  0  0  0
 69 71  2  0  0  0
 38  1  1  0  0  0
  1  2  1  0  0  0
  2  3  2  0  0  0
  2  5  1  0  0  0
  5 35  1  0  0  0
 35 36  1  0  0  0
  5  6  1  0  0  0
  6  7  1  0  0  0
  7  8  2  0  0  0
  7 10  1  0  0  0
 10 32  1  0  0  0
 32 33  1  0  0  0
 10 11  1  0  0  0
 11 12  1  0  0  0
 12 13  2  0  0  0
 12 15  1  0  0  0
 15 29  1  0  0  0
 29 30  1  0  0  0
 15 16  1  0  0  0
 16 17  1  0  0  0
 17 18  2  0  0  0
 17 20  1  0  0  0
 20 26  1  0  0  0
 26 27  1  0  0  0
 20 21  1  0  0  0
 21 22  1  0  0  0
 22 23  1  0  0  0
 22 24  2  0  0  0
 43 44  1  0  0  0
 44 45  2  0  0  0
 44 46  1  0  0  0
 46 48  1  0  0  0
 48 60  1  0  0  0
 60 61  1  0  0  0
 48 49  1  0  0  0
 49 50  2  0  0  0
 49 51  1  0  0  0
 51 53  1  0  0  0
 53 57  1  0  0  0
 57 58  1  0  0  0
 53 54  1  0  0  0
 54 55  1  0  0  0
 39 42  1  0  0  0
 70 72  1  0  0  0
 70 73  1  0  0  0
  1  4  1  0  0  0
 36 37  1  0  0  0
  6  9  1  0  0  0
 33 34  1  0  0  0
 11 14  1  0  0  0
 30 31  1  0  0  0
 16 19  1  0  0  0
 27 28  1  0  0  0
 21 25  1  0  0  0
 46 47  1  0  0  0
 61 62  1  0  0  0
 51 52  1  0  0  0
 58 59  1  0  0  0
 55 56  1  0  0  0
M  END
> <minimizedAffinity>
-7.26617

> <CNNscore>
0.1687840670

> <CNNaffinity>
5.8740987778

> <CNN_VS>
0.9914543033

> <CNNaffinity_variance>
0.9718286395

$$$$
[H]OC([H])([H])C([H])(N([H])C(=O)[C@@]([H])(N([H])C(=O)[C@@]([H])(N([H])C(=O)[C@@]([H])(N([H])C(=O)[C@@]([H])(N([H])C(=O)[C@@]([H])(N([H])C(=O)[C@@]([H])(N([H])C(=O)[C@@]([H])(N([H])C(=O)C([H])([H])[H])C([H])([H])O[H])C([H])([H])O[H])C([H])([H])O[H])C([H])([H])O[H])C([H])([H])C([H])([H])C(=O)N([H])[H])C([H])([H])C([H])(C([H])([H])[H])C([H])([H])[H])C([H])([H])O[H])C([H])([H])O[H]


 73 72  0  0  0  0  0  0  0  0999 V2000
    4.6893    5.4784   19.7462 N   0  0  0  0  0  0  0  0  0  0  0  0
    4.0859    6.1522   18.6692 C   0  0  0  0  0  0  0  0  0  0  0  0
    3.4080    7.1906   18.7704 O   0  0  0  0  0  0  0  0  0  0  0  0
    5.2341    4.6017   19.5422 H   0  0  0  0  0  0  0  0  0  0  0  0
    4.2673    5.5861   17.2820 C   0  0  0  0  0  0  0  0  0  0  0  0
    4.6823    6.6363   16.3819 N   0  0  0  0  0  0  0  0  0  0  0  0
    3.8778    7.0408   15.2847 C   0  0  0  0  0  0  0  0  0  0  0  0
    2.7723    6.5013   15.0521 O   0  0  0  0  0  0  0  0  0  0  0  0
    5.5947    7.1256   16.5243 H   0  0  0  0  0  0  0  0  0  0  0  0
    4.3573    8.1212   14.4035 C   0  0  0  0  0  0  0  0  0  0  0  0
    4.8533    7.5332   13.1749 N   0  0  0  0  0  0  0  0  0  0  0  0
    5.9062    8.1524   12.4748 C   0  0  0  0  0  0  0  0  0  0  0  0
    6.3811    9.2283   12.9775 O   0  0  0  0  0  0  0  0  0  0  0  0
    4.4351    6.6590   12.7939 H   0  0  0  0  0  0  0  0  0  0  0  0
    6.4171    7.5684   11.2169 C   0  0  0  0  0  0  0  0  0  0  0  0
    6.0944    8.5605   10.1758 N   0  0  0  0  0  0  0  0  0  0  0  0
    5.5613    8.1148    8.9779 C   0  0  0  0  0  0  0  0  0  0  0  0
    5.3565    6.8693    8.7968 O   0  0  0  0  0  0  0  0  0  0  0  0
    6.2940    9.5359   10.4278 H   0  0  0  0  0  0  0  0  0  0  0  0
    5.2038    9.0161    7.8686 C   0  0  0  0  0  0  0  0  0  0  0  0
    5.8123    8.5716    6.6211 N   0  0  0  0  0  0  0  0  0  0  0  0
    6.3662    9.5301    5.7503 C   0  0  0  0  0  0  0  0  0  0  0  0
    6.9770    9.0464    4.4759 C   0  0  0  0  0  0  0  0  0  0  0  0
    6.3587   10.7427    6.0095 O   0  0  0  0  0  0  0  0  0  0  0  0
    5.8230    7.5607    6.4041 H   0  0  0  0  0  0  0  0  0  0  0  0
    3.7142    9.1688    7.7768 C   0  0  0  0  0  0  0  0  0  0  0  0
    3.1325    8.8176    8.9818 O   0  0  0  0  0  0  0  0  0  0  0  0
    2.1934    8.5634    8.7934 H   0  0  0  0  0  0  0  0  0  0  0  0
    7.9030    7.3668   11.2654 C   0  0  0  0  0  0  0  0  0  0  0  0
    8.5905    8.5417   11.3974 O   0  0  0  0  0  0  0  0  0  0  0  0
    9.3398    8.4699   12.0643 H   0  0  0  0  0  0  0  0  0  0  0  0
    3.1593    9.0117   14.0820 C   0  0  0  0  0  0  0  0  0  0  0  0
    2.5464    9.4384   15.2613 O   0  0  0  0  0  0  0  0  0  0  0  0
    3.1704    9.4007   16.0204 H   0  0  0  0  0  0  0  0  0  0  0  0
    5.2774    4.4696   17.3124 C   0  0  0  0  0  0  0  0  0  0  0  0
    6.5456    5.0356   17.2956 O   0  0  0  0  0  0  0  0  0  0  0  0
    7.0469    4.8607   18.1215 H   0  0  0  0  0  0  0  0  0  0  0  0
    4.6398    5.8706   21.1245 C   0  0  0  0  0  0  0  0  0  0  0  0
    5.2421    8.2141   21.9909 N   0  0  0  0  0  0  0  0  0  0  0  0
    5.6093    7.0134   21.3774 C   0  0  0  0  0  0  0  0  0  0  0  0
    6.7768    6.7136   20.9518 O   0  0  0  0  0  0  0  0  0  0  0  0
    4.1714    8.1910   22.2772 H   0  0  0  0  0  0  0  0  0  0  0  0
    5.9368    9.4064   22.2975 C   0  0  0  0  0  0  0  0  0  0  0  0
    6.4023   10.1852   21.1512 C   0  0  0  0  0  0  0  0  0  0  0  0
    6.7985   11.3742   21.3364 O   0  0  0  0  0  0  0  0  0  0  0  0
    6.4675    9.7611   19.7999 N   0  0  0  0  0  0  0  0  0  0  0  0
    6.1806    8.8064   19.5558 H   0  0  0  0  0  0  0  0  0  0  0  0
    6.9374   10.6375   18.7419 C   0  0  0  0  0  0  0  0  0  0  0  0
    5.8408   11.3155   18.0212 C   0  0  0  0  0  0  0  0  0  0  0  0
    6.0324   11.7955   16.8796 O   0  0  0  0  0  0  0  0  0  0  0  0
    4.5773   11.4213   18.6130 N   0  0  0  0  0  0  0  0  0  0  0  0
    4.4425   11.0060   19.5840 H   0  0  0  0  0  0  0  0  0  0  0  0
    3.4073   12.0435   18.0566 C   0  0  0  0  0  0  0  0  0  0  0  0
    3.2873   13.4961   18.4522 C   0  0  0  0  0  0  0  0  0  0  0  0
    2.2512   13.5639   19.3995 O   0  0  0  0  0  0  0  0  0  0  0  0
    1.4159   13.9081   19.0393 H   0  0  0  0  0  0  0  0  0  0  0  0
    2.1235   11.3301   18.4385 C   0  0  0  0  0  0  0  0  0  0  0  0
    1.0215   11.7309   17.7252 O   0  0  0  0  0  0  0  0  0  0  0  0
    0.2376   11.7561   18.3383 H   0  0  0  0  0  0  0  0  0  0  0  0
    7.7136    9.7745   17.7673 C   0  0  0  0  0  0  0  0  0  0  0  0
    8.1503    8.5937   18.3581 O   0  0  0  0  0  0  0  0  0  0  0  0
    8.2071    7.9085   17.6503 H   0  0  0  0  0  0  0  0  0  0  0  0
    6.8601    9.3916   23.4561 C   0  0  0  0  0  0  0  0  0  0  0  0
    9.1788    9.9697   23.8637 C   0  0  0  0  0  0  0  0  0  0  0  0
    8.2514    8.9261   23.2146 C   0  0  0  0  0  0  0  0  0  0  0  0
    8.5751    7.6381   23.9910 C   0  0  0  0  0  0  0  0  0  0  0  0
    4.8187    4.7381   22.0727 C   0  0  0  0  0  0  0  0  0  0  0  0
    5.3603    3.5031   21.3765 C   0  0  0  0  0  0  0  0  0  0  0  0
    5.9980    2.5359   22.2650 C   0  0  0  0  0  0  0  0  0  0  0  0
    6.7376    1.4618   21.6743 N   0  0  0  0  0  0  0  0  0  0  0  0
    5.9510    2.5686   23.5307 O   0  0  0  0  0  0  0  0  0  0  0  0
    7.4369    1.6761   20.9614 H   0  0  0  0  0  0  0  0  0  0  0  0
    6.4886    0.5094   22.0366 H   0  0  0  0  0  0  0  0  0  0  0  0
 64 65  1  0  0  0
 65 66  1  0  0  0
 65 63  1  0  0  0
 63 43  1  0  0  0
 43 39  1  0  0  0
 39 40  1  0  0  0
 40 41  2  0  0  0
 40 38  1  0  0  0
 38 67  1  0  0  0
 67 68  1  0  0  0
 68 69  1  0  0  0
 69 70  1  0  0  0
 69 71  2  0  0  0
 38  1  1  0  0  0
  1  2  1  0  0  0
  2  3  2  0  0  0
  2  5  1  0  0  0
  5 35  1  0  0  0
 35 36  1  0  0  0
  5  6  1  0  0  0
  6  7  1  0  0  0
  7  8  2  0  0  0
  7 10  1  0  0  0
 10 32  1  0  0  0
 32 33  1  0  0  0
 10 11  1  0  0  0
 11 12  1  0  0  0
 12 13  2  0  0  0
 12 15  1  0  0  0
 15 29  1  0  0  0
 29 30  1  0  0  0
 15 16  1  0  0  0
 16 17  1  0  0  0
 17 18  2  0  0  0
 17 20  1  0  0  0
 20 26  1  0  0  0
 26 27  1  0  0  0
 20 21  1  0  0  0
 21 22  1  0  0  0
 22 23  1  0  0  0
 22 24  2  0  0  0
 43 44  1  0  0  0
 44 45  2  0  0  0
 44 46  1  0  0  0
 46 48  1  0  0  0
 48 60  1  0  0  0
 60 61  1  0  0  0
 48 49  1  0  0  0
 49 50  2  0  0  0
 49 51  1  0  0  0
 51 53  1  0  0  0
 53 57  1  0  0  0
 57 58  1  0  0  0
 53 54  1  0  0  0
 54 55  1  0  0  0
 39 42  1  0  0  0
 70 72  1  0  0  0
 70 73  1  0  0  0
  1  4  1  0  0  0
 36 37  1  0  0  0
  6  9  1  0  0  0
 33 34  1  0  0  0
 11 14  1  0  0  0
 30 31  1  0  0  0
 16 19  1  0  0  0
 27 28  1  0  0  0
 21 25  1  0  0  0
 46 47  1  0  0  0
 61 62  1  0  0  0
 51 52  1  0  0  0
 58 59  1  0  0  0
 55 56  1  0  0  0
M  END
> <minimizedAffinity>
-8.03109

> <CNNscore>
0.1600821465

> <CNNaffinity>
5.3894195557

> <CNN_VS>
0.8627498746

> <CNNaffinity_variance>
1.0668218136

$$$$
[H]OC([H])([H])C([H])(N([H])C(=O)[C@@]([H])(N([H])C(=O)[C@@]([H])(N([H])C(=O)[C@@]([H])(N([H])C(=O)[C@@]([H])(N([H])C(=O)[C@@]([H])(N([H])C(=O)[C@@]([H])(N([H])C(=O)[C@@]([H])(N([H])C(=O)C([H])([H])[H])C([H])([H])O[H])C([H])([H])O[H])C([H])([H])O[H])C([H])([H])O[H])C([H])([H])C([H])([H])C(=O)N([H])[H])C([H])([H])C([H])(C([H])([H])[H])C([H])([H])[H])C([H])([H])O[H])C([H])([H])O[H]


 73 72  0  0  0  0  0  0  0  0999 V2000
    4.3705    8.2874   18.7953 N   0  0  0  0  0  0  0  0  0  0  0  0
    4.8642    9.4466   18.1703 C   0  0  0  0  0  0  0  0  0  0  0  0
    5.9330   10.0119   18.4638 O   0  0  0  0  0  0  0  0  0  0  0  0
    3.4478    7.9008   18.4691 H   0  0  0  0  0  0  0  0  0  0  0  0
    4.0485   10.0600   17.0586 C   0  0  0  0  0  0  0  0  0  0  0  0
    3.4573    9.0132   16.2587 N   0  0  0  0  0  0  0  0  0  0  0  0
    4.2283    8.2415   15.3505 C   0  0  0  0  0  0  0  0  0  0  0  0
    5.4561    8.4383   15.2056 O   0  0  0  0  0  0  0  0  0  0  0  0
    2.4370    8.8004   16.3356 H   0  0  0  0  0  0  0  0  0  0  0  0
    3.5653    7.1852   14.5641 C   0  0  0  0  0  0  0  0  0  0  0  0
    4.3886    6.8780   13.4113 N   0  0  0  0  0  0  0  0  0  0  0  0
    4.1229    7.4947   12.1738 C   0  0  0  0  0  0  0  0  0  0  0  0
    3.1436    8.3165   12.1357 O   0  0  0  0  0  0  0  0  0  0  0  0
    5.1735    6.1973   13.4813 H   0  0  0  0  0  0  0  0  0  0  0  0
    4.9492    7.1855   10.9881 C   0  0  0  0  0  0  0  0  0  0  0  0
    4.3352    7.9461    9.8851 N   0  0  0  0  0  0  0  0  0  0  0  0
    4.1744    7.3226    8.6591 C   0  0  0  0  0  0  0  0  0  0  0  0
    4.5515    6.1142    8.5054 O   0  0  0  0  0  0  0  0  0  0  0  0
    4.0637    8.9085   10.1188 H   0  0  0  0  0  0  0  0  0  0  0  0
    3.5756    7.9868    7.4882 C   0  0  0  0  0  0  0  0  0  0  0  0
    4.5958    8.3220    6.5027 N   0  0  0  0  0  0  0  0  0  0  0  0
    5.4125    9.4489    6.7194 C   0  0  0  0  0  0  0  0  0  0  0  0
    6.4449    9.7724    5.6895 C   0  0  0  0  0  0  0  0  0  0  0  0
    5.2973   10.1666    7.7241 O   0  0  0  0  0  0  0  0  0  0  0  0
    4.6963    7.7232    5.6657 H   0  0  0  0  0  0  0  0  0  0  0  0
    2.4628    7.1532    6.9249 C   0  0  0  0  0  0  0  0  0  0  0  0
    2.1897    7.5512    5.6285 O   0  0  0  0  0  0  0  0  0  0  0  0
    1.2588    7.2787    5.4258 H   0  0  0  0  0  0  0  0  0  0  0  0
    6.3682    7.6370   11.1713 C   0  0  0  0  0  0  0  0  0  0  0  0
    6.6122    8.1117   12.4305 O   0  0  0  0  0  0  0  0  0  0  0  0
    7.4879    7.7804   12.7977 H   0  0  0  0  0  0  0  0  0  0  0  0
    3.4705    5.9475   15.4533 C   0  0  0  0  0  0  0  0  0  0  0  0
    2.9497    6.2906   16.7021 O   0  0  0  0  0  0  0  0  0  0  0  0
    2.4302    7.1242   16.6541 H   0  0  0  0  0  0  0  0  0  0  0  0
    2.9900   10.9614   17.6373 C   0  0  0  0  0  0  0  0  0  0  0  0
    2.3247   10.2596   18.6342 O   0  0  0  0  0  0  0  0  0  0  0  0
    2.4587   10.6519   19.5242 H   0  0  0  0  0  0  0  0  0  0  0  0
    5.0078    7.5596   19.8537 C   0  0  0  0  0  0  0  0  0  0  0  0
    5.3622    5.0282   20.1219 N   0  0  0  0  0  0  0  0  0  0  0  0
    4.5274    6.1177   19.8589 C   0  0  0  0  0  0  0  0  0  0  0  0
    3.2788    6.0600   19.5911 O   0  0  0  0  0  0  0  0  0  0  0  0
    6.3918    5.3740   20.3437 H   0  0  0  0  0  0  0  0  0  0  0  0
    5.1619    3.6292   20.1508 C   0  0  0  0  0  0  0  0  0  0  0  0
    4.9092    2.9950   18.8580 C   0  0  0  0  0  0  0  0  0  0  0  0
    5.5895    3.3574   17.8526 O   0  0  0  0  0  0  0  0  0  0  0  0
    3.9570    1.9837   18.5740 N   0  0  0  0  0  0  0  0  0  0  0  0
    3.3694    1.6164   19.3311 H   0  0  0  0  0  0  0  0  0  0  0  0
    3.7890    1.4407   17.2379 C   0  0  0  0  0  0  0  0  0  0  0  0
    2.9630    2.2981   16.3637 C   0  0  0  0  0  0  0  0  0  0  0  0
    2.2465    3.2018   16.8540 O   0  0  0  0  0  0  0  0  0  0  0  0
    2.9808    2.1047   14.9780 N   0  0  0  0  0  0  0  0  0  0  0  0
    3.5972    1.3290   14.5883 H   0  0  0  0  0  0  0  0  0  0  0  0
    2.2447    2.8429   13.9888 C   0  0  0  0  0  0  0  0  0  0  0  0
    1.1685    2.0094   13.3345 C   0  0  0  0  0  0  0  0  0  0  0  0
    0.1335    2.8967   12.9931 O   0  0  0  0  0  0  0  0  0  0  0  0
   -0.6283    2.8574   13.5965 H   0  0  0  0  0  0  0  0  0  0  0  0
    3.1341    3.4227   12.9046 C   0  0  0  0  0  0  0  0  0  0  0  0
    2.5839    4.4844   12.2309 O   0  0  0  0  0  0  0  0  0  0  0  0
    2.8321    4.4142   11.2694 H   0  0  0  0  0  0  0  0  0  0  0  0
    3.1145    0.0922   17.3922 C   0  0  0  0  0  0  0  0  0  0  0  0
    1.8981    0.0436   16.7199 O   0  0  0  0  0  0  0  0  0  0  0  0
    1.7433   -0.8927   16.4495 H   0  0  0  0  0  0  0  0  0  0  0  0
    4.3917    3.0631   21.2829 C   0  0  0  0  0  0  0  0  0  0  0  0
    3.5607    4.1688   23.2737 C   0  0  0  0  0  0  0  0  0  0  0  0
    4.7892    3.4777   22.6543 C   0  0  0  0  0  0  0  0  0  0  0  0
    5.0178    2.2716   23.5815 C   0  0  0  0  0  0  0  0  0  0  0  0
    4.8877    8.2155   21.1837 C   0  0  0  0  0  0  0  0  0  0  0  0
    6.2475    8.4918   21.7984 C   0  0  0  0  0  0  0  0  0  0  0  0
    6.7252    7.4538   22.7071 C   0  0  0  0  0  0  0  0  0  0  0  0
    6.8855    7.7885   24.0898 N   0  0  0  0  0  0  0  0  0  0  0  0
    7.0128    6.2669   22.3698 O   0  0  0  0  0  0  0  0  0  0  0  0
    6.1147    8.2441   24.5811 H   0  0  0  0  0  0  0  0  0  0  0  0
    7.8169    7.5286   24.4966 H   0  0  0  0  0  0  0  0  0  0  0  0
 64 65  1  0  0  0
 65 66  1  0  0  0
 65 63  1  0  0  0
 63 43  1  0  0  0
 43 39  1  0  0  0
 39 40  1  0  0  0
 40 41  2  0  0  0
 40 38  1  0  0  0
 38 67  1  0  0  0
 67 68  1  0  0  0
 68 69  1  0  0  0
 69 70  1  0  0  0
 69 71  2  0  0  0
 38  1  1  0  0  0
  1  2  1  0  0  0
  2  3  2  0  0  0
  2  5  1  0  0  0
  5 35  1  0  0  0
 35 36  1  0  0  0
  5  6  1  0  0  0
  6  7  1  0  0  0
  7  8  2  0  0  0
  7 10  1  0  0  0
 10 32  1  0  0  0
 32 33  1  0  0  0
 10 11  1  0  0  0
 11 12  1  0  0  0
 12 13  2  0  0  0
 12 15  1  0  0  0
 15 29  1  0  0  0
 29 30  1  0  0  0
 15 16  1  0  0  0
 16 17  1  0  0  0
 17 18  2  0  0  0
 17 20  1  0  0  0
 20 26  1  0  0  0
 26 27  1  0  0  0
 20 21  1  0  0  0
 21 22  1  0  0  0
 22 23  1  0  0  0
 22 24  2  0  0  0
 43 44  1  0  0  0
 44 45  2  0  0  0
 44 46  1  0  0  0
 46 48  1  0  0  0
 48 60  1  0  0  0
 60 61  1  0  0  0
 48 49  1  0  0  0
 49 50  2  0  0  0
 49 51  1  0  0  0
 51 53  1  0  0  0
 53 57  1  0  0  0
 57 58  1  0  0  0
 53 54  1  0  0  0
 54 55  1  0  0  0
 39 42  1  0  0  0
 70 72  1  0  0  0
 70 73  1  0  0  0
  1  4  1  0  0  0
 36 37  1  0  0  0
  6  9  1  0  0  0
 33 34  1  0  0  0
 11 14  1  0  0  0
 30 31  1  0  0  0
 16 19  1  0  0  0
 27 28  1  0  0  0
 21 25  1  0  0  0
 46 47  1  0  0  0
 61 62  1  0  0  0
 51 52  1  0  0  0
 58 59  1  0  0  0
 55 56  1  0  0  0
M  END
> <minimizedAffinity>
-7.80445

> <CNNscore>
0.1332977712

> <CNNaffinity>
5.9042992592

> <CNN_VS>
0.7870299220

> <CNNaffinity_variance>
0.8987965584

$$$$
[H]Oc1c([H])c([H])c(C([H])([H])[C@@]([H])(C(=O)N([H])[H])N([H])C(=O)[C@@]2([H])N(C(=O)[C@@]([H])(N([H])C(=O)[C@@]([H])(N([H])[H])C([H])([H])c3c([H])c([H])c([H])c([H])c3[H])C([H])([H])[H])C([H])([H])C([H])([H])C2([H])[H])c([H])c1[H]


 43 45  0  0  0  0  0  0  0  0999 V2000
    1.3669    3.8113   13.1717 C   0  0  0  0  0  0  0  0  0  0  0  0
    0.2389    3.3819   12.7584 O   0  0  0  0  0  0  0  0  0  0  0  0
    1.4786    5.1918   13.4346 N   0  0  0  0  0  0  0  0  0  0  0  0
    0.3864    6.1623   13.2616 C   0  0  0  0  0  0  0  0  0  0  0  0
    1.0523    7.4517   12.8913 C   0  0  0  0  0  0  0  0  0  0  0  0
    2.4945    7.3006   13.3035 C   0  0  0  0  0  0  0  0  0  0  0  0
    2.6120    5.9308   13.9138 C   0  0  0  0  0  0  0  0  0  0  0  0
    2.6641    6.0434   15.3749 C   0  0  0  0  0  0  0  0  0  0  0  0
    1.8440    5.4059   16.0727 O   0  0  0  0  0  0  0  0  0  0  0  0
    3.6208    6.8558   16.0034 N   0  0  0  0  0  0  0  0  0  0  0  0
    4.3030    7.3887   15.4416 H   0  0  0  0  0  0  0  0  0  0  0  0
    3.7195    7.0043   17.4696 C   0  0  0  0  0  0  0  0  0  0  0  0
    4.2109    8.3741   17.6933 C   0  0  0  0  0  0  0  0  0  0  0  0
    3.3708    9.4999   17.8746 N   0  0  0  0  0  0  0  0  0  0  0  0
    5.4642    8.6394   17.7355 O   0  0  0  0  0  0  0  0  0  0  0  0
    2.5611    9.7256   17.2755 H   0  0  0  0  0  0  0  0  0  0  0  0
    3.5843   10.1444   18.6670 H   0  0  0  0  0  0  0  0  0  0  0  0
    4.6688    5.9208   17.8943 C   0  0  0  0  0  0  0  0  0  0  0  0
    4.7392    5.7177   19.3354 C   0  0  0  0  0  0  0  0  0  0  0  0
    3.6287    5.5409   20.1279 C   0  0  0  0  0  0  0  0  0  0  0  0
    3.7499    5.3514   21.4837 C   0  0  0  0  0  0  0  0  0  0  0  0
    4.9686    5.3291   22.1071 C   0  0  0  0  0  0  0  0  0  0  0  0
    5.0860    5.1373   23.4761 O   0  0  0  0  0  0  0  0  0  0  0  0
    6.0834    5.5042   21.3282 C   0  0  0  0  0  0  0  0  0  0  0  0
    5.9721    5.6934   19.9783 C   0  0  0  0  0  0  0  0  0  0  0  0
    5.1732    4.1942   23.8000 H   0  0  0  0  0  0  0  0  0  0  0  0
    2.5938    1.8682   12.1951 C   0  0  0  0  0  0  0  0  0  0  0  0
    2.4653    2.8506   13.3468 C   0  0  0  0  0  0  0  0  0  0  0  0
    2.2016    2.0324   14.5274 N   0  0  0  0  0  0  0  0  0  0  0  0
    3.0272    2.1000   15.6823 C   0  0  0  0  0  0  0  0  0  0  0  0
    3.9997    2.8922   15.6552 O   0  0  0  0  0  0  0  0  0  0  0  0
    1.3867    1.3727   14.5407 H   0  0  0  0  0  0  0  0  0  0  0  0
    2.7611    1.2713   16.8825 C   0  0  0  0  0  0  0  0  0  0  0  0
    2.0460    0.0676   16.5785 N   0  0  0  0  0  0  0  0  0  0  0  0
    2.5711   -0.4519   15.8395 H   0  0  0  0  0  0  0  0  0  0  0  0
    1.1118    0.2983   16.1872 H   0  0  0  0  0  0  0  0  0  0  0  0
    4.0584    1.0193   17.6092 C   0  0  0  0  0  0  0  0  0  0  0  0
    3.8924    1.0447   19.0799 C   0  0  0  0  0  0  0  0  0  0  0  0
    3.0289    0.1716   19.7001 C   0  0  0  0  0  0  0  0  0  0  0  0
    2.8432    0.1584   21.0719 C   0  0  0  0  0  0  0  0  0  0  0  0
    3.5435    1.0453   21.8374 C   0  0  0  0  0  0  0  0  0  0  0  0
    4.4145    1.9295   21.2371 C   0  0  0  0  0  0  0  0  0  0  0  0
    4.5990    1.9391   19.8497 C   0  0  0  0  0  0  0  0  0  0  0  0
 27 28  1  0  0  0
 28 29  1  0  0  0
 29 30  1  0  0  0
 30 31  2  0  0  0
 30 33  1  0  0  0
 33 34  1  0  0  0
 33 37  1  0  0  0
 37 38  1  0  0  0
 38 39  2  0  0  0
 39 40  1  0  0  0
 40 41  2  0  0  0
 41 42  1  0  0  0
 42 43  2  0  0  0
 28  1  1  0  0  0
  1  2  2  0  0  0
  1  3  1  0  0  0
  3  4  1  0  0  0
  4  5  1  0  0  0
  5  6  1  0  0  0
  6  7  1  0  0  0
  7  8  1  0  0  0
  8  9  2  0  0  0
  8 10  1  0  0  0
 10 12  1  0  0  0
 12 18  1  0  0  0
 18 19  1  0  0  0
 19 20  2  0  0  0
 20 21  1  0  0  0
 21 22  2  0  0  0
 22 23  1  0  0  0
 22 24  1  0  0  0
 24 25  2  0  0  0
 12 13  1  0  0  0
 13 14  1  0  0  0
 13 15  2  0  0  0
 43 38  1  0  0  0
  7  3  1  0  0  0
 25 19  1  0  0  0
 29 32  1  0  0  0
 34 35  1  0  0  0
 34 36  1  0  0  0
 10 11  1  0  0  0
 23 26  1  0  0  0
 14 16  1  0  0  0
 14 17  1  0  0  0
M  END
> <minimizedAffinity>
-8.94442

> <CNNscore>
0.6424023509

> <CNNaffinity>
7.0561156273

> <CNN_VS>
4.5328650475

> <CNNaffinity_variance>
0.0566418171

$$$$
[H]Oc1c([H])c([H])c(C([H])([H])[C@@]([H])(C(=O)N([H])[H])N([H])C(=O)[C@@]2([H])N(C(=O)[C@@]([H])(N([H])C(=O)[C@@]([H])(N([H])[H])C([H])([H])c3c([H])c([H])c([H])c([H])c3[H])C([H])([H])[H])C([H])([H])C([H])([H])C2([H])[H])c([H])c1[H]


 43 45  0  0  0  0  0  0  0  0999 V2000
    3.0220    2.3406   16.6476 C   0  0  0  0  0  0  0  0  0  0  0  0
    2.0533    1.5569   16.9217 O   0  0  0  0  0  0  0  0  0  0  0  0
    2.9807    3.0144   15.4100 N   0  0  0  0  0  0  0  0  0  0  0  0
    1.9014    2.8708   14.4205 C   0  0  0  0  0  0  0  0  0  0  0  0
    2.5531    3.0682   13.0865 C   0  0  0  0  0  0  0  0  0  0  0  0
    3.8633    3.7581   13.3693 C   0  0  0  0  0  0  0  0  0  0  0  0
    3.9194    3.9507   14.8601 C   0  0  0  0  0  0  0  0  0  0  0  0
    3.6170    5.3472   15.1898 C   0  0  0  0  0  0  0  0  0  0  0  0
    2.8245    5.6032   16.1238 O   0  0  0  0  0  0  0  0  0  0  0  0
    4.2036    6.4022   14.4733 N   0  0  0  0  0  0  0  0  0  0  0  0
    4.8580    6.2072   13.6997 H   0  0  0  0  0  0  0  0  0  0  0  0
    3.9363    7.8255   14.7639 C   0  0  0  0  0  0  0  0  0  0  0  0
    4.4675    8.0562   16.1176 C   0  0  0  0  0  0  0  0  0  0  0  0
    3.6635    8.3369   17.2495 N   0  0  0  0  0  0  0  0  0  0  0  0
    5.7254    8.0194   16.3607 O   0  0  0  0  0  0  0  0  0  0  0  0
    2.9017    9.0331   17.2653 H   0  0  0  0  0  0  0  0  0  0  0  0
    3.8538    7.8040   18.1263 H   0  0  0  0  0  0  0  0  0  0  0  0
    2.4453    7.9602   14.6444 C   0  0  0  0  0  0  0  0  0  0  0  0
    1.9257    7.6968   13.3089 C   0  0  0  0  0  0  0  0  0  0  0  0
    0.8141    6.9222   13.0707 C   0  0  0  0  0  0  0  0  0  0  0  0
    0.3637    6.7056   11.7904 C   0  0  0  0  0  0  0  0  0  0  0  0
    0.9917    7.2440   10.6995 C   0  0  0  0  0  0  0  0  0  0  0  0
    0.5333    7.0227    9.4089 O   0  0  0  0  0  0  0  0  0  0  0  0
    2.1011    8.0181   10.9236 C   0  0  0  0  0  0  0  0  0  0  0  0
    2.5563    8.2388   12.1942 C   0  0  0  0  0  0  0  0  0  0  0  0
   -0.1348    7.6722    9.0432 H   0  0  0  0  0  0  0  0  0  0  0  0
    4.1867    1.3389   18.6159 C   0  0  0  0  0  0  0  0  0  0  0  0
    4.1061    2.4906   17.6284 C   0  0  0  0  0  0  0  0  0  0  0  0
    3.8573    3.6799   18.4385 N   0  0  0  0  0  0  0  0  0  0  0  0
    4.8472    4.6847   18.6132 C   0  0  0  0  0  0  0  0  0  0  0  0
    5.9526    4.5159   18.0445 O   0  0  0  0  0  0  0  0  0  0  0  0
    2.9305    3.8122   18.9105 H   0  0  0  0  0  0  0  0  0  0  0  0
    4.5967    5.8936   19.4341 C   0  0  0  0  0  0  0  0  0  0  0  0
    3.2131    6.0633   19.7647 N   0  0  0  0  0  0  0  0  0  0  0  0
    2.8723    5.1883   20.2231 H   0  0  0  0  0  0  0  0  0  0  0  0
    2.6542    6.1945   18.8990 H   0  0  0  0  0  0  0  0  0  0  0  0
    5.4937    5.8649   20.6463 C   0  0  0  0  0  0  0  0  0  0  0  0
    5.0989    4.8151   21.6123 C   0  0  0  0  0  0  0  0  0  0  0  0
    5.7084    3.5819   21.5909 C   0  0  0  0  0  0  0  0  0  0  0  0
    5.3729    2.5714   22.4755 C   0  0  0  0  0  0  0  0  0  0  0  0
    4.4006    2.8078   23.4037 C   0  0  0  0  0  0  0  0  0  0  0  0
    3.7762    4.0365   23.4434 C   0  0  0  0  0  0  0  0  0  0  0  0
    4.1189    5.0552   22.5470 C   0  0  0  0  0  0  0  0  0  0  0  0
 27 28  1  0  0  0
 28 29  1  0  0  0
 29 30  1  0  0  0
 30 31  2  0  0  0
 30 33  1  0  0  0
 33 34  1  0  0  0
 33 37  1  0  0  0
 37 38  1  0  0  0
 38 39  2  0  0  0
 39 40  1  0  0  0
 40 41  2  0  0  0
 41 42  1  0  0  0
 42 43  2  0  0  0
 28  1  1  0  0  0
  1  2  2  0  0  0
  1  3  1  0  0  0
  3  4  1  0  0  0
  4  5  1  0  0  0
  5  6  1  0  0  0
  6  7  1  0  0  0
  7  8  1  0  0  0
  8  9  2  0  0  0
  8 10  1  0  0  0
 10 12  1  0  0  0
 12 18  1  0  0  0
 18 19  1  0  0  0
 19 20  2  0  0  0
 20 21  1  0  0  0
 21 22  2  0  0  0
 22 23  1  0  0  0
 22 24  1  0  0  0
 24 25  2  0  0  0
 12 13  1  0  0  0
 13 14  1  0  0  0
 13 15  2  0  0  0
 43 38  1  0  0  0
  7  3  1  0  0  0
 25 19  1  0  0  0
 29 32  1  0  0  0
 34 35  1  0  0  0
 34 36  1  0  0  0
 10 11  1  0  0  0
 23 26  1  0  0  0
 14 16  1  0  0  0
 14 17  1  0  0  0
M  END
> <minimizedAffinity>
-8.04417

> <CNNscore>
0.5428963304

> <CNNaffinity>
6.5941114426

> <CNN_VS>
3.5799188614

> <CNNaffinity_variance>
0.2143217325

$$$$
[H]Oc1c([H])c([H])c(C([H])([H])[C@@]([H])(C(=O)N([H])[H])N([H])C(=O)[C@@]2([H])N(C(=O)[C@@]([H])(N([H])C(=O)[C@@]([H])(N([H])[H])C([H])([H])c3c([H])c([H])c([H])c([H])c3[H])C([H])([H])[H])C([H])([H])C([H])([H])C2([H])[H])c([H])c1[H]


 43 45  0  0  0  0  0  0  0  0999 V2000
    5.8659    5.3429   21.9005 C   0  0  0  0  0  0  0  0  0  0  0  0
    5.5507    6.0632   22.9052 O   0  0  0  0  0  0  0  0  0  0  0  0
    5.6102    3.9594   21.9886 N   0  0  0  0  0  0  0  0  0  0  0  0
    5.0102    3.2974   23.1576 C   0  0  0  0  0  0  0  0  0  0  0  0
    5.5986    1.9204   23.1831 C   0  0  0  0  0  0  0  0  0  0  0  0
    6.1516    1.6861   21.8003 C   0  0  0  0  0  0  0  0  0  0  0  0
    5.8508    2.9330   21.0146 C   0  0  0  0  0  0  0  0  0  0  0  0
    4.7122    2.6922   20.1223 C   0  0  0  0  0  0  0  0  0  0  0  0
    3.9276    3.6300   19.8561 O   0  0  0  0  0  0  0  0  0  0  0  0
    4.4889    1.4249   19.5615 N   0  0  0  0  0  0  0  0  0  0  0  0
    5.1263    0.6413   19.7725 H   0  0  0  0  0  0  0  0  0  0  0  0
    3.3605    1.1276   18.6561 C   0  0  0  0  0  0  0  0  0  0  0  0
    2.6917   -0.0492   19.2357 C   0  0  0  0  0  0  0  0  0  0  0  0
    3.0170   -0.6073   20.4962 N   0  0  0  0  0  0  0  0  0  0  0  0
    1.7502   -0.6595   18.6161 O   0  0  0  0  0  0  0  0  0  0  0  0
    3.9782   -0.8075   20.8146 H   0  0  0  0  0  0  0  0  0  0  0  0
    2.2325   -0.8311   21.1468 H   0  0  0  0  0  0  0  0  0  0  0  0
    4.0032    0.8885   17.3201 C   0  0  0  0  0  0  0  0  0  0  0  0
    3.6000    1.8309   16.2846 C   0  0  0  0  0  0  0  0  0  0  0  0
    4.0787    3.1183   16.2079 C   0  0  0  0  0  0  0  0  0  0  0  0
    3.6670    3.9681   15.2092 C   0  0  0  0  0  0  0  0  0  0  0  0
    2.7696    3.5802   14.2508 C   0  0  0  0  0  0  0  0  0  0  0  0
    2.3570    4.4415   13.2443 O   0  0  0  0  0  0  0  0  0  0  0  0
    2.2848    2.2993   14.3162 C   0  0  0  0  0  0  0  0  0  0  0  0
    2.6890    1.4470   15.3065 C   0  0  0  0  0  0  0  0  0  0  0  0
    2.8919    4.4458   12.3983 H   0  0  0  0  0  0  0  0  0  0  0  0
    7.7511    6.7403   21.0474 C   0  0  0  0  0  0  0  0  0  0  0  0
    6.4672    5.9937   20.7279 C   0  0  0  0  0  0  0  0  0  0  0  0
    5.5462    7.0059   20.2178 N   0  0  0  0  0  0  0  0  0  0  0  0
    4.9968    6.9238   18.9096 C   0  0  0  0  0  0  0  0  0  0  0  0
    5.3316    5.9452   18.1996 O   0  0  0  0  0  0  0  0  0  0  0  0
    5.2725    7.8206   20.8183 H   0  0  0  0  0  0  0  0  0  0  0  0
    4.0609    7.9494   18.3897 C   0  0  0  0  0  0  0  0  0  0  0  0
    3.3959    8.6733   19.4319 N   0  0  0  0  0  0  0  0  0  0  0  0
    4.1194    9.0756   20.0694 H   0  0  0  0  0  0  0  0  0  0  0  0
    2.8128    8.0263   19.9980 H   0  0  0  0  0  0  0  0  0  0  0  0
    4.7939    8.8460   17.4236 C   0  0  0  0  0  0  0  0  0  0  0  0
    4.2253    8.7846   16.0583 C   0  0  0  0  0  0  0  0  0  0  0  0
    3.6208    9.8888   15.5034 C   0  0  0  0  0  0  0  0  0  0  0  0
    3.0772    9.8778   14.2304 C   0  0  0  0  0  0  0  0  0  0  0  0
    3.1437    8.7276   13.4984 C   0  0  0  0  0  0  0  0  0  0  0  0
    3.7449    7.6087   14.0346 C   0  0  0  0  0  0  0  0  0  0  0  0
    4.2932    7.6247   15.3222 C   0  0  0  0  0  0  0  0  0  0  0  0
 27 28  1  0  0  0
 28 29  1  0  0  0
 29 30  1  0  0  0
 30 31  2  0  0  0
 30 33  1  0  0  0
 33 34  1  0  0  0
 33 37  1  0  0  0
 37 38  1  0  0  0
 38 39  2  0  0  0
 39 40  1  0  0  0
 40 41  2  0  0  0
 41 42  1  0  0  0
 42 43  2  0  0  0
 28  1  1  0  0  0
  1  2  2  0  0  0
  1  3  1  0  0  0
  3  4  1  0  0  0
  4  5  1  0  0  0
  5  6  1  0  0  0
  6  7  1  0  0  0
  7  8  1  0  0  0
  8  9  2  0  0  0
  8 10  1  0  0  0
 10 12  1  0  0  0
 12 18  1  0  0  0
 18 19  1  0  0  0
 19 20  2  0  0  0
 20 21  1  0  0  0
 21 22  2  0  0  0
 22 23  1  0  0  0
 22 24  1  0  0  0
 24 25  2  0  0  0
 12 13  1  0  0  0
 13 14  1  0  0  0
 13 15  2  0  0  0
 43 38  1  0  0  0
  7  3  1  0  0  0
 25 19  1  0  0  0
 29 32  1  0  0  0
 34 35  1  0  0  0
 34 36  1  0  0  0
 10 11  1  0  0  0
 23 26  1  0  0  0
 14 16  1  0  0  0
 14 17  1  0  0  0
M  END
> <minimizedAffinity>
-8.91265

> <CNNscore>
0.4184078872

> <CNNaffinity>
6.8929734230

> <CNN_VS>
2.8840744495

> <CNNaffinity_variance>
0.1206152886

$$$$
[H]Oc1c([H])c([H])c(C([H])([H])[C@@]([H])(C(=O)N([H])[H])N([H])C(=O)[C@@]2([H])N(C(=O)[C@@]([H])(N([H])C(=O)[C@@]([H])(N([H])[H])C([H])([H])c3c([H])c([H])c([H])c([H])c3[H])C([H])([H])[H])C([H])([H])C([H])([H])C2([H])[H])c([H])c1[H]


 43 45  0  0  0  0  0  0  0  0999 V2000
    3.0985    2.2874   16.6083 C   0  0  0  0  0  0  0  0  0  0  0  0
    2.1756    1.4245   16.7854 O   0  0  0  0  0  0  0  0  0  0  0  0
    3.0479    3.0584   15.4292 N   0  0  0  0  0  0  0  0  0  0  0  0
    2.0082    2.9307   14.3960 C   0  0  0  0  0  0  0  0  0  0  0  0
    2.6825    3.2793   13.1050 C   0  0  0  0  0  0  0  0  0  0  0  0
    3.9366    4.0238   13.4864 C   0  0  0  0  0  0  0  0  0  0  0  0
    3.9386    4.0943   14.9889 C   0  0  0  0  0  0  0  0  0  0  0  0
    3.5368    5.4367   15.4213 C   0  0  0  0  0  0  0  0  0  0  0  0
    2.6123    5.5658   16.2547 O   0  0  0  0  0  0  0  0  0  0  0  0
    4.1740    6.5801   14.9144 N   0  0  0  0  0  0  0  0  0  0  0  0
    4.9371    6.4901   14.2256 H   0  0  0  0  0  0  0  0  0  0  0  0
    3.8113    7.9544   15.3162 C   0  0  0  0  0  0  0  0  0  0  0  0
    3.3194    8.6049   14.0903 C   0  0  0  0  0  0  0  0  0  0  0  0
    3.9744    8.5355   12.8364 N   0  0  0  0  0  0  0  0  0  0  0  0
    2.2398    9.2958   14.0836 O   0  0  0  0  0  0  0  0  0  0  0  0
    4.9847    8.6943   12.6968 H   0  0  0  0  0  0  0  0  0  0  0  0
    3.3971    8.3086   11.9972 H   0  0  0  0  0  0  0  0  0  0  0  0
    5.0832    8.5336   15.8658 C   0  0  0  0  0  0  0  0  0  0  0  0
    5.0369    8.8353   17.2905 C   0  0  0  0  0  0  0  0  0  0  0  0
    3.8727    9.1273   17.9628 C   0  0  0  0  0  0  0  0  0  0  0  0
    3.8833    9.4038   19.3090 C   0  0  0  0  0  0  0  0  0  0  0  0
    5.0403    9.4024   20.0409 C   0  0  0  0  0  0  0  0  0  0  0  0
    5.0461    9.6819   21.3998 O   0  0  0  0  0  0  0  0  0  0  0  0
    6.2076    9.1129   19.3825 C   0  0  0  0  0  0  0  0  0  0  0  0
    6.2064    8.8366   18.0430 C   0  0  0  0  0  0  0  0  0  0  0  0
    4.9333    8.9093   22.0262 H   0  0  0  0  0  0  0  0  0  0  0  0
    4.2113    1.2373   18.5815 C   0  0  0  0  0  0  0  0  0  0  0  0
    4.1428    2.4225   17.6335 C   0  0  0  0  0  0  0  0  0  0  0  0
    3.8400    3.5764   18.4758 N   0  0  0  0  0  0  0  0  0  0  0  0
    4.7886    4.6125   18.6919 C   0  0  0  0  0  0  0  0  0  0  0  0
    5.9055    4.5033   18.1312 O   0  0  0  0  0  0  0  0  0  0  0  0
    2.9039    3.6589   18.9409 H   0  0  0  0  0  0  0  0  0  0  0  0
    4.4833    5.7855   19.5457 C   0  0  0  0  0  0  0  0  0  0  0  0
    3.1016    5.8568   19.9176 N   0  0  0  0  0  0  0  0  0  0  0  0
    2.8321    4.9522   20.3659 H   0  0  0  0  0  0  0  0  0  0  0  0
    2.5107    5.9682   19.0706 H   0  0  0  0  0  0  0  0  0  0  0  0
    5.4147    5.7917   20.7320 C   0  0  0  0  0  0  0  0  0  0  0  0
    5.0988    4.7170   21.6996 C   0  0  0  0  0  0  0  0  0  0  0  0
    4.1640    4.9204   22.6883 C   0  0  0  0  0  0  0  0  0  0  0  0
    3.8357    3.9441   23.6132 C   0  0  0  0  0  0  0  0  0  0  0  0
    4.4636    2.7344   23.5413 C   0  0  0  0  0  0  0  0  0  0  0  0
    5.4041    2.5084   22.5587 C   0  0  0  0  0  0  0  0  0  0  0  0
    5.7326    3.4986   21.6256 C   0  0  0  0  0  0  0  0  0  0  0  0
 27 28  1  0  0  0
 28 29  1  0  0  0
 29 30  1  0  0  0
 30 31  2  0  0  0
 30 33  1  0  0  0
 33 34  1  0  0  0
 33 37  1  0  0  0
 37 38  1  0  0  0
 38 39  2  0  0  0
 39 40  1  0  0  0
 40 41  2  0  0  0
 41 42  1  0  0  0
 42 43  2  0  0  0
 28  1  1  0  0  0
  1  2  2  0  0  0
  1  3  1  0  0  0
  3  4  1  0  0  0
  4  5  1  0  0  0
  5  6  1  0  0  0
  6  7  1  0  0  0
  7  8  1  0  0  0
  8  9  2  0  0  0
  8 10  1  0  0  0
 10 12  1  0  0  0
 12 18  1  0  0  0
 18 19  1  0  0  0
 19 20  2  0  0  0
 20 21  1  0  0  0
 21 22  2  0  0  0
 22 23  1  0  0  0
 22 24  1  0  0  0
 24 25  2  0  0  0
 12 13  1  0  0  0
 13 14  1  0  0  0
 13 15  2  0  0  0
 43 38  1  0  0  0
  7  3  1  0  0  0
 25 19  1  0  0  0
 29 32  1  0  0  0
 34 35  1  0  0  0
 34 36  1  0  0  0
 10 11  1  0  0  0
 23 26  1  0  0  0
 14 16  1  0  0  0
 14 17  1  0  0  0
M  END
> <minimizedAffinity>
-8.77745

> <CNNscore>
0.4091959596

> <CNNaffinity>
6.5607161522

> <CNN_VS>
2.6846184731

> <CNNaffinity_variance>
0.3318606019

$$$$
[H]Oc1c([H])c([H])c(C([H])([H])[C@@]([H])(C(=O)N([H])[H])N([H])C(=O)[C@@]2([H])N(C(=O)[C@@]([H])(N([H])C(=O)[C@@]([H])(N([H])[H])C([H])([H])c3c([H])c([H])c([H])c([H])c3[H])C([H])([H])[H])C([H])([H])C([H])([H])C2([H])[H])c([H])c1[H]


 43 45  0  0  0  0  0  0  0  0999 V2000
    6.3919    9.1043   20.9960 C   0  0  0  0  0  0  0  0  0  0  0  0
    6.1268   10.2581   21.4715 O   0  0  0  0  0  0  0  0  0  0  0  0
    6.8347    8.1167   21.8993 N   0  0  0  0  0  0  0  0  0  0  0  0
    7.0121    8.3305   23.3441 C   0  0  0  0  0  0  0  0  0  0  0  0
    8.1335    7.4236   23.7479 C   0  0  0  0  0  0  0  0  0  0  0  0
    8.2544    6.4055   22.6427 C   0  0  0  0  0  0  0  0  0  0  0  0
    7.1864    6.7493   21.6408 C   0  0  0  0  0  0  0  0  0  0  0  0
    6.0618    5.8181   21.7780 C   0  0  0  0  0  0  0  0  0  0  0  0
    4.8952    6.2654   21.8479 O   0  0  0  0  0  0  0  0  0  0  0  0
    6.2741    4.4316   21.8317 N   0  0  0  0  0  0  0  0  0  0  0  0
    7.2303    4.0476   21.7766 H   0  0  0  0  0  0  0  0  0  0  0  0
    5.1792    3.4495   21.9671 C   0  0  0  0  0  0  0  0  0  0  0  0
    4.9592    3.3042   23.4157 C   0  0  0  0  0  0  0  0  0  0  0  0
    5.7740    2.5198   24.2683 N   0  0  0  0  0  0  0  0  0  0  0  0
    3.9876    3.8925   24.0097 O   0  0  0  0  0  0  0  0  0  0  0  0
    6.0719    1.5531   24.0629 H   0  0  0  0  0  0  0  0  0  0  0  0
    6.0950    2.9477   25.1643 H   0  0  0  0  0  0  0  0  0  0  0  0
    5.6947    2.2152   21.2846 C   0  0  0  0  0  0  0  0  0  0  0  0
    4.6597    1.3959   20.6677 C   0  0  0  0  0  0  0  0  0  0  0  0
    3.8203    0.5745   21.3840 C   0  0  0  0  0  0  0  0  0  0  0  0
    2.8583   -0.1776   20.7533 C   0  0  0  0  0  0  0  0  0  0  0  0
    2.6887   -0.1474   19.3951 C   0  0  0  0  0  0  0  0  0  0  0  0
    1.7160   -0.9083   18.7627 O   0  0  0  0  0  0  0  0  0  0  0  0
    3.5191    0.6675   18.6696 C   0  0  0  0  0  0  0  0  0  0  0  0
    4.4792    1.4193   19.2889 C   0  0  0  0  0  0  0  0  0  0  0  0
    0.8147   -0.4899   18.6423 H   0  0  0  0  0  0  0  0  0  0  0  0
    5.9448   10.1557   18.7758 C   0  0  0  0  0  0  0  0  0  0  0  0
    6.2195    8.8800   19.5538 C   0  0  0  0  0  0  0  0  0  0  0  0
    5.0490    8.0339   19.3378 N   0  0  0  0  0  0  0  0  0  0  0  0
    5.1197    6.8458   18.5610 C   0  0  0  0  0  0  0  0  0  0  0  0
    6.2301    6.5440   18.0613 O   0  0  0  0  0  0  0  0  0  0  0  0
    4.1248    8.2944   19.7590 H   0  0  0  0  0  0  0  0  0  0  0  0
    3.9331    5.9845   18.3411 C   0  0  0  0  0  0  0  0  0  0  0  0
    2.9431    6.1312   19.3661 N   0  0  0  0  0  0  0  0  0  0  0  0
    2.6960    7.1433   19.4456 H   0  0  0  0  0  0  0  0  0  0  0  0
    3.3339    5.8372   20.2826 H   0  0  0  0  0  0  0  0  0  0  0  0
    3.3897    6.2325   16.9562 C   0  0  0  0  0  0  0  0  0  0  0  0
    3.3634    5.0016   16.1344 C   0  0  0  0  0  0  0  0  0  0  0  0
    3.7895    5.0260   14.8266 C   0  0  0  0  0  0  0  0  0  0  0  0
    3.7842    3.8997   14.0218 C   0  0  0  0  0  0  0  0  0  0  0  0
    3.3392    2.7207   14.5460 C   0  0  0  0  0  0  0  0  0  0  0  0
    2.9073    2.6729   15.8545 C   0  0  0  0  0  0  0  0  0  0  0  0
    2.9146    3.8144   16.6645 C   0  0  0  0  0  0  0  0  0  0  0  0
 27 28  1  0  0  0
 28 29  1  0  0  0
 29 30  1  0  0  0
 30 31  2  0  0  0
 30 33  1  0  0  0
 33 34  1  0  0  0
 33 37  1  0  0  0
 37 38  1  0  0  0
 38 39  2  0  0  0
 39 40  1  0  0  0
 40 41  2  0  0  0
 41 42  1  0  0  0
 42 43  2  0  0  0
 28  1  1  0  0  0
  1  2  2  0  0  0
  1  3  1  0  0  0
  3  4  1  0  0  0
  4  5  1  0  0  0
  5  6  1  0  0  0
  6  7  1  0  0  0
  7  8  1  0  0  0
  8  9  2  0  0  0
  8 10  1  0  0  0
 10 12  1  0  0  0
 12 18  1  0  0  0
 18 19  1  0  0  0
 19 20  2  0  0  0
 20 21  1  0  0  0
 21 22  2  0  0  0
 22 23  1  0  0  0
 22 24  1  0  0  0
 24 25  2  0  0  0
 12 13  1  0  0  0
 13 14  1  0  0  0
 13 15  2  0  0  0
 43 38  1  0  0  0
  7  3  1  0  0  0
 25 19  1  0  0  0
 29 32  1  0  0  0
 34 35  1  0  0  0
 34 36  1  0  0  0
 10 11  1  0  0  0
 23 26  1  0  0  0
 14 16  1  0  0  0
 14 17  1  0  0  0
M  END
> <minimizedAffinity>
-8.93952

> <CNNscore>
0.3602412343

> <CNNaffinity>
6.9681258202

> <CNN_VS>
2.5102062225

> <CNNaffinity_variance>
0.1055344567

$$$$
[H]Oc1c([H])c([H])c(C([H])([H])[C@@]([H])(C(=O)N([H])[H])N([H])C(=O)[C@@]2([H])N(C(=O)[C@@]([H])(N([H])C(=O)[C@@]([H])(N([H])[H])C([H])([H])c3c([H])c([H])c([H])c([H])c3[H])C([H])([H])[H])C([H])([H])C([H])([H])C2([H])[H])c([H])c1[H]


 43 45  0  0  0  0  0  0  0  0999 V2000
    4.6856    1.7894   22.3942 C   0  0  0  0  0  0  0  0  0  0  0  0
    4.1682    1.2125   23.4078 O   0  0  0  0  0  0  0  0  0  0  0  0
    4.5407    3.1886   22.3003 N   0  0  0  0  0  0  0  0  0  0  0  0
    3.8341    4.0196   23.2876 C   0  0  0  0  0  0  0  0  0  0  0  0
    3.2605    5.1638   22.5098 C   0  0  0  0  0  0  0  0  0  0  0  0
    4.0245    5.1991   21.2106 C   0  0  0  0  0  0  0  0  0  0  0  0
    5.0273    4.0805   21.2865 C   0  0  0  0  0  0  0  0  0  0  0  0
    6.3570    4.6274   21.5749 C   0  0  0  0  0  0  0  0  0  0  0  0
    7.1917    3.9279   22.1913 O   0  0  0  0  0  0  0  0  0  0  0  0
    6.7084    5.9246   21.1695 N   0  0  0  0  0  0  0  0  0  0  0  0
    6.0307    6.5140   20.6615 H   0  0  0  0  0  0  0  0  0  0  0  0
    8.0326    6.5239   21.4316 C   0  0  0  0  0  0  0  0  0  0  0  0
    8.1136    6.6726   22.8942 C   0  0  0  0  0  0  0  0  0  0  0  0
    9.0007    5.9390   23.7195 N   0  0  0  0  0  0  0  0  0  0  0  0
    7.3629    7.4957   23.5282 O   0  0  0  0  0  0  0  0  0  0  0  0
    9.1391    4.9177   23.6634 H   0  0  0  0  0  0  0  0  0  0  0  0
    9.5515    6.4662   24.4320 H   0  0  0  0  0  0  0  0  0  0  0  0
    8.0171    7.8181   20.6700 C   0  0  0  0  0  0  0  0  0  0  0  0
    6.6950    8.2302   20.2171 C   0  0  0  0  0  0  0  0  0  0  0  0
    6.1372    7.8077   19.0327 C   0  0  0  0  0  0  0  0  0  0  0  0
    4.8844    8.2252   18.6518 C   0  0  0  0  0  0  0  0  0  0  0  0
    4.1366    9.0735   19.4235 C   0  0  0  0  0  0  0  0  0  0  0  0
    2.8722    9.4922   19.0350 O   0  0  0  0  0  0  0  0  0  0  0  0
    4.6813    9.5020   20.6066 C   0  0  0  0  0  0  0  0  0  0  0  0
    5.9273    9.0916   20.9935 C   0  0  0  0  0  0  0  0  0  0  0  0
    2.0955    8.9314   19.3251 H   0  0  0  0  0  0  0  0  0  0  0  0
    6.9004    0.9660   21.5875 C   0  0  0  0  0  0  0  0  0  0  0  0
    5.3927    0.9686   21.4012 C   0  0  0  0  0  0  0  0  0  0  0  0
    5.1670    1.5271   20.0708 N   0  0  0  0  0  0  0  0  0  0  0  0
    4.0879    1.0950   19.2529 C   0  0  0  0  0  0  0  0  0  0  0  0
    3.3282    0.2095   19.7141 O   0  0  0  0  0  0  0  0  0  0  0  0
    5.8075    2.2665   19.6934 H   0  0  0  0  0  0  0  0  0  0  0  0
    3.8560    1.6611   17.9024 C   0  0  0  0  0  0  0  0  0  0  0  0
    2.6797    1.1364   17.2751 N   0  0  0  0  0  0  0  0  0  0  0  0
    1.8685    1.2828   17.9172 H   0  0  0  0  0  0  0  0  0  0  0  0
    2.7790    0.1120   17.1338 H   0  0  0  0  0  0  0  0  0  0  0  0
    3.8568    3.1669   17.9887 C   0  0  0  0  0  0  0  0  0  0  0  0
    3.4828    3.8031   16.7055 C   0  0  0  0  0  0  0  0  0  0  0  0
    2.4125    4.6649   16.6395 C   0  0  0  0  0  0  0  0  0  0  0  0
    2.0277    5.2836   15.4624 C   0  0  0  0  0  0  0  0  0  0  0  0
    2.7373    5.0287   14.3247 C   0  0  0  0  0  0  0  0  0  0  0  0
    3.8138    4.1682   14.3676 C   0  0  0  0  0  0  0  0  0  0  0  0
    4.1991    3.5450   15.5601 C   0  0  0  0  0  0  0  0  0  0  0  0
 27 28  1  0  0  0
 28 29  1  0  0  0
 29 30  1  0  0  0
 30 31  2  0  0  0
 30 33  1  0  0  0
 33 34  1  0  0  0
 33 37  1  0  0  0
 37 38  1  0  0  0
 38 39  2  0  0  0
 39 40  1  0  0  0
 40 41  2  0  0  0
 41 42  1  0  0  0
 42 43  2  0  0  0
 28  1  1  0  0  0
  1  2  2  0  0  0
  1  3  1  0  0  0
  3  4  1  0  0  0
  4  5  1  0  0  0
  5  6  1  0  0  0
  6  7  1  0  0  0
  7  8  1  0  0  0
  8  9  2  0  0  0
  8 10  1  0  0  0
 10 12  1  0  0  0
 12 18  1  0  0  0
 18 19  1  0  0  0
 19 20  2  0  0  0
 20 21  1  0  0  0
 21 22  2  0  0  0
 22 23  1  0  0  0
 22 24  1  0  0  0
 24 25  2  0  0  0
 12 13  1  0  0  0
 13 14  1  0  0  0
 13 15  2  0  0  0
 43 38  1  0  0  0
  7  3  1  0  0  0
 25 19  1  0  0  0
 29 32  1  0  0  0
 34 35  1  0  0  0
 34 36  1  0  0  0
 10 11  1  0  0  0
 23 26  1  0  0  0
 14 16  1  0  0  0
 14 17  1  0  0  0
M  END
> <minimizedAffinity>
-8.53737

> <CNNscore>
0.3356285095

> <CNNaffinity>
6.5022482872

> <CNN_VS>
2.1823399067

> <CNNaffinity_variance>
0.2341423035

$$$$
[H]Oc1c([H])c([H])c(C([H])([H])[C@@]([H])(C(=O)N([H])[H])N([H])C(=O)[C@@]2([H])N(C(=O)[C@@]([H])(N([H])C(=O)[C@@]([H])(N([H])[H])C([H])([H])c3c([H])c([H])c([H])c([H])c3[H])C([H])([H])[H])C([H])([H])C([H])([H])C2([H])[H])c([H])c1[H]


 43 45  0  0  0  0  0  0  0  0999 V2000
    4.5292    3.2570   19.8444 C   0  0  0  0  0  0  0  0  0  0  0  0
    4.7698    2.0299   19.5915 O   0  0  0  0  0  0  0  0  0  0  0  0
    4.7115    3.6933   21.1725 N   0  0  0  0  0  0  0  0  0  0  0  0
    5.1556    2.8298   22.2779 C   0  0  0  0  0  0  0  0  0  0  0  0
    4.5062    3.3877   23.5067 C   0  0  0  0  0  0  0  0  0  0  0  0
    4.0907    4.7919   23.1484 C   0  0  0  0  0  0  0  0  0  0  0  0
    4.5280    5.0052   21.7250 C   0  0  0  0  0  0  0  0  0  0  0  0
    5.7416    5.8280   21.6989 C   0  0  0  0  0  0  0  0  0  0  0  0
    6.6715    5.5315   20.9158 O   0  0  0  0  0  0  0  0  0  0  0  0
    5.8760    6.9443   22.5393 N   0  0  0  0  0  0  0  0  0  0  0  0
    5.1185    7.2009   23.1913 H   0  0  0  0  0  0  0  0  0  0  0  0
    7.0742    7.8080   22.5528 C   0  0  0  0  0  0  0  0  0  0  0  0
    7.5266    7.8297   23.9538 C   0  0  0  0  0  0  0  0  0  0  0  0
    6.7459    8.3105   25.0334 N   0  0  0  0  0  0  0  0  0  0  0  0
    8.6883    7.4061   24.2910 O   0  0  0  0  0  0  0  0  0  0  0  0
    6.2301    9.2046   25.0272 H   0  0  0  0  0  0  0  0  0  0  0  0
    6.6880    7.7215   25.8929 H   0  0  0  0  0  0  0  0  0  0  0  0
    6.5908    9.1301   22.0298 C   0  0  0  0  0  0  0  0  0  0  0  0
    5.9217    9.0541   20.7376 C   0  0  0  0  0  0  0  0  0  0  0  0
    6.5722    8.7343   19.5685 C   0  0  0  0  0  0  0  0  0  0  0  0
    5.8938    8.6746   18.3747 C   0  0  0  0  0  0  0  0  0  0  0  0
    4.5510    8.9277   18.2899 C   0  0  0  0  0  0  0  0  0  0  0  0
    3.8702    8.8661   17.0826 O   0  0  0  0  0  0  0  0  0  0  0  0
    3.8909    9.2477   19.4484 C   0  0  0  0  0  0  0  0  0  0  0  0
    4.5581    9.3094   20.6407 C   0  0  0  0  0  0  0  0  0  0  0  0
    3.4751    7.9833   16.8249 H   0  0  0  0  0  0  0  0  0  0  0  0
    3.0951    5.1934   19.1902 C   0  0  0  0  0  0  0  0  0  0  0  0
    4.0838    4.1282   18.7478 C   0  0  0  0  0  0  0  0  0  0  0  0
    3.3717    3.3249   17.7576 N   0  0  0  0  0  0  0  0  0  0  0  0
    3.9211    3.0640   16.4731 C   0  0  0  0  0  0  0  0  0  0  0  0
    5.0478    3.5508   16.2137 O   0  0  0  0  0  0  0  0  0  0  0  0
    2.4301    2.9225   17.9832 H   0  0  0  0  0  0  0  0  0  0  0  0
    3.2007    2.2479   15.4665 C   0  0  0  0  0  0  0  0  0  0  0  0
    2.4254    1.1971   16.0557 N   0  0  0  0  0  0  0  0  0  0  0  0
    1.7845    1.6168   16.7662 H   0  0  0  0  0  0  0  0  0  0  0  0
    3.0482    0.5340   16.5570 H   0  0  0  0  0  0  0  0  0  0  0  0
    2.3857    3.1574   14.5814 C   0  0  0  0  0  0  0  0  0  0  0  0
    2.8423    3.1280   13.1736 C   0  0  0  0  0  0  0  0  0  0  0  0
    3.6975    4.0944   12.6968 C   0  0  0  0  0  0  0  0  0  0  0  0
    4.1514    4.1056   11.3891 C   0  0  0  0  0  0  0  0  0  0  0  0
    3.7345    3.1207   10.5412 C   0  0  0  0  0  0  0  0  0  0  0  0
    2.8773    2.1419   10.9976 C   0  0  0  0  0  0  0  0  0  0  0  0
    2.4210    2.1346   12.3207 C   0  0  0  0  0  0  0  0  0  0  0  0
 27 28  1  0  0  0
 28 29  1  0  0  0
 29 30  1  0  0  0
 30 31  2  0  0  0
 30 33  1  0  0  0
 33 34  1  0  0  0
 33 37  1  0  0  0
 37 38  1  0  0  0
 38 39  2  0  0  0
 39 40  1  0  0  0
 40 41  2  0  0  0
 41 42  1  0  0  0
 42 43  2  0  0  0
 28  1  1  0  0  0
  1  2  2  0  0  0
  1  3  1  0  0  0
  3  4  1  0  0  0
  4  5  1  0  0  0
  5  6  1  0  0  0
  6  7  1  0  0  0
  7  8  1  0  0  0
  8  9  2  0  0  0
  8 10  1  0  0  0
 10 12  1  0  0  0
 12 18  1  0  0  0
 18 19  1  0  0  0
 19 20  2  0  0  0
 20 21  1  0  0  0
 21 22  2  0  0  0
 22 23  1  0  0  0
 22 24  1  0  0  0
 24 25  2  0  0  0
 12 13  1  0  0  0
 13 14  1  0  0  0
 13 15  2  0  0  0
 43 38  1  0  0  0
  7  3  1  0  0  0
 25 19  1  0  0  0
 29 32  1  0  0  0
 34 35  1  0  0  0
 34 36  1  0  0  0
 10 11  1  0  0  0
 23 26  1  0  0  0
 14 16  1  0  0  0
 14 17  1  0  0  0
M  END
> <minimizedAffinity>
-8.58556

> <CNNscore>
0.3327283859

> <CNNaffinity>
6.2845764160

> <CNN_VS>
2.0910570621

> <CNNaffinity_variance>
0.0814245567

$$$$
[H]Oc1c([H])c([H])c(C([H])([H])[C@@]([H])(C(=O)N([H])[H])N([H])C(=O)[C@@]2([H])N(C(=O)[C@@]([H])(N([H])C(=O)[C@@]([H])(N([H])[H])C([H])([H])c3c([H])c([H])c([H])c([H])c3[H])C([H])([H])[H])C([H])([H])C([H])([H])C2([H])[H])c([H])c1[H]


 43 45  0  0  0  0  0  0  0  0999 V2000
    3.0730    4.5005   15.9171 C   0  0  0  0  0  0  0  0  0  0  0  0
    2.0585    4.4345   16.6879 O   0  0  0  0  0  0  0  0  0  0  0  0
    2.9097    4.0524   14.5905 N   0  0  0  0  0  0  0  0  0  0  0  0
    1.6544    3.5149   14.0428 C   0  0  0  0  0  0  0  0  0  0  0  0
    2.0660    2.5167   13.0049 C   0  0  0  0  0  0  0  0  0  0  0  0
    3.5010    2.8390   12.6736 C   0  0  0  0  0  0  0  0  0  0  0  0
    3.8681    4.0254   13.5224 C   0  0  0  0  0  0  0  0  0  0  0  0
    3.8660    5.2402   12.7011 C   0  0  0  0  0  0  0  0  0  0  0  0
    3.5934    5.1608   11.4823 O   0  0  0  0  0  0  0  0  0  0  0  0
    4.1649    6.4920   13.2616 N   0  0  0  0  0  0  0  0  0  0  0  0
    4.3928    6.5735   14.2647 H   0  0  0  0  0  0  0  0  0  0  0  0
    4.1752    7.7465   12.4820 C   0  0  0  0  0  0  0  0  0  0  0  0
    5.5043    8.3384   12.7086 C   0  0  0  0  0  0  0  0  0  0  0  0
    6.7189    7.7542   12.2731 N   0  0  0  0  0  0  0  0  0  0  0  0
    5.6475    9.4478   13.3342 O   0  0  0  0  0  0  0  0  0  0  0  0
    6.9701    6.7623   12.4081 H   0  0  0  0  0  0  0  0  0  0  0  0
    7.4060    8.3677   11.7825 H   0  0  0  0  0  0  0  0  0  0  0  0
    3.0309    8.5443   13.0381 C   0  0  0  0  0  0  0  0  0  0  0  0
    1.7556    7.8395   13.0413 C   0  0  0  0  0  0  0  0  0  0  0  0
    1.1516    7.3774   14.1876 C   0  0  0  0  0  0  0  0  0  0  0  0
   -0.0538    6.7190   14.1362 C   0  0  0  0  0  0  0  0  0  0  0  0
   -0.7069    6.4925   12.9545 C   0  0  0  0  0  0  0  0  0  0  0  0
   -1.9237    5.8275   12.9076 O   0  0  0  0  0  0  0  0  0  0  0  0
   -0.1152    6.9482   11.8046 C   0  0  0  0  0  0  0  0  0  0  0  0
    1.0841    7.6042   11.8464 C   0  0  0  0  0  0  0  0  0  0  0  0
   -2.7523    6.3843   12.9803 H   0  0  0  0  0  0  0  0  0  0  0  0
    5.0626    4.0565   17.3589 C   0  0  0  0  0  0  0  0  0  0  0  0
    4.3324    5.0346   16.4543 C   0  0  0  0  0  0  0  0  0  0  0  0
    4.0414    6.1950   17.2919 N   0  0  0  0  0  0  0  0  0  0  0  0
    4.5700    7.4807   16.9961 C   0  0  0  0  0  0  0  0  0  0  0  0
    5.3022    7.5884   15.9831 O   0  0  0  0  0  0  0  0  0  0  0  0
    3.4287    6.0953   18.1369 H   0  0  0  0  0  0  0  0  0  0  0  0
    4.2752    8.6605   17.8441 C   0  0  0  0  0  0  0  0  0  0  0  0
    3.4173    9.6084   17.1976 N   0  0  0  0  0  0  0  0  0  0  0  0
    2.5527    9.1126   16.8839 H   0  0  0  0  0  0  0  0  0  0  0  0
    3.8808    9.9856   16.3479 H   0  0  0  0  0  0  0  0  0  0  0  0
    3.7416    8.1939   19.1754 C   0  0  0  0  0  0  0  0  0  0  0  0
    4.7701    8.2372   20.2391 C   0  0  0  0  0  0  0  0  0  0  0  0
    5.6174    7.1712   20.4348 C   0  0  0  0  0  0  0  0  0  0  0  0
    6.5943    7.1683   21.4155 C   0  0  0  0  0  0  0  0  0  0  0  0
    6.7213    8.2647   22.2184 C   0  0  0  0  0  0  0  0  0  0  0  0
    5.8829    9.3446   22.0403 C   0  0  0  0  0  0  0  0  0  0  0  0
    4.8965    9.3430   21.0473 C   0  0  0  0  0  0  0  0  0  0  0  0
 27 28  1  0  0  0
 28 29  1  0  0  0
 29 30  1  0  0  0
 30 31  2  0  0  0
 30 33  1  0  0  0
 33 34  1  0  0  0
 33 37  1  0  0  0
 37 38  1  0  0  0
 38 39  2  0  0  0
 39 40  1  0  0  0
 40 41  2  0  0  0
 41 42  1  0  0  0
 42 43  2  0  0  0
 28  1  1  0  0  0
  1  2  2  0  0  0
  1  3  1  0  0  0
  3  4  1  0  0  0
  4  5  1  0  0  0
  5  6  1  0  0  0
  6  7  1  0  0  0
  7  8  1  0  0  0
  8  9  2  0  0  0
  8 10  1  0  0  0
 10 12  1  0  0  0
 12 18  1  0  0  0
 18 19  1  0  0  0
 19 20  2  0  0  0
 20 21  1  0  0  0
 21 22  2  0  0  0
 22 23  1  0  0  0
 22 24  1  0  0  0
 24 25  2  0  0  0
 12 13  1  0  0  0
 13 14  1  0  0  0
 13 15  2  0  0  0
 43 38  1  0  0  0
  7  3  1  0  0  0
 25 19  1  0  0  0
 29 32  1  0  0  0
 34 35  1  0  0  0
 34 36  1  0  0  0
 10 11  1  0  0  0
 23 26  1  0  0  0
 14 16  1  0  0  0
 14 17  1  0  0  0
M  END
> <minimizedAffinity>
-7.61509

> <CNNscore>
0.3279083371

> <CNNaffinity>
5.9665775299

> <CNN_VS>
1.9564905167

> <CNNaffinity_variance>
0.1381110698

$$$$
[H]Oc1c([H])c([H])c(C([H])([H])[C@@]([H])(C(=O)N([H])[H])N([H])C(=O)[C@@]2([H])N(C(=O)[C@@]([H])(N([H])C(=O)[C@@]([H])(N([H])[H])C([H])([H])c3c([H])c([H])c([H])c([H])c3[H])C([H])([H])[H])C([H])([H])C([H])([H])C2([H])[H])c([H])c1[H]


 43 45  0  0  0  0  0  0  0  0999 V2000
    3.4685    0.9768   20.5119 C   0  0  0  0  0  0  0  0  0  0  0  0
    2.5487    0.2901   21.0687 O   0  0  0  0  0  0  0  0  0  0  0  0
    3.4724    1.0344   19.1033 N   0  0  0  0  0  0  0  0  0  0  0  0
    2.4924    0.3561   18.2406 C   0  0  0  0  0  0  0  0  0  0  0  0
    3.2317    0.0221   16.9816 C   0  0  0  0  0  0  0  0  0  0  0  0
    4.4533    0.9055   16.9779 C   0  0  0  0  0  0  0  0  0  0  0  0
    4.3723    1.7338   18.2308 C   0  0  0  0  0  0  0  0  0  0  0  0
    3.9300    3.0918   17.8978 C   0  0  0  0  0  0  0  0  0  0  0  0
    3.3063    3.7640   18.7494 O   0  0  0  0  0  0  0  0  0  0  0  0
    4.1961    3.6498   16.6376 N   0  0  0  0  0  0  0  0  0  0  0  0
    4.7082    3.1075   15.9245 H   0  0  0  0  0  0  0  0  0  0  0  0
    3.7762    5.0118   16.2502 C   0  0  0  0  0  0  0  0  0  0  0  0
    3.4512    4.9294   14.8165 C   0  0  0  0  0  0  0  0  0  0  0  0
    4.0695    5.7176   13.8151 N   0  0  0  0  0  0  0  0  0  0  0  0
    2.5616    4.1191   14.3750 O   0  0  0  0  0  0  0  0  0  0  0  0
    4.2093    6.7382   13.8801 H   0  0  0  0  0  0  0  0  0  0  0  0
    4.4065    5.2343   12.9538 H   0  0  0  0  0  0  0  0  0  0  0  0
    4.9595    5.8771   16.5758 C   0  0  0  0  0  0  0  0  0  0  0  0
    4.6225    7.1207   17.2562 C   0  0  0  0  0  0  0  0  0  0  0  0
    3.9796    7.1660   18.4715 C   0  0  0  0  0  0  0  0  0  0  0  0
    3.6856    8.3666   19.0723 C   0  0  0  0  0  0  0  0  0  0  0  0
    4.0143    9.5650   18.4977 C   0  0  0  0  0  0  0  0  0  0  0  0
    3.7156   10.7747   19.1080 O   0  0  0  0  0  0  0  0  0  0  0  0
    4.6554    9.5336   17.2861 C   0  0  0  0  0  0  0  0  0  0  0  0
    4.9519    8.3434   16.6811 C   0  0  0  0  0  0  0  0  0  0  0  0
    4.4035   11.1571   19.7265 H   0  0  0  0  0  0  0  0  0  0  0  0
    4.3199    1.3055   22.8360 C   0  0  0  0  0  0  0  0  0  0  0  0
    4.4535    1.6575   21.3642 C   0  0  0  0  0  0  0  0  0  0  0  0
    4.2361    3.0997   21.2886 N   0  0  0  0  0  0  0  0  0  0  0  0
    5.2846    4.0267   21.5362 C   0  0  0  0  0  0  0  0  0  0  0  0
    6.4138    3.5626   21.8250 O   0  0  0  0  0  0  0  0  0  0  0  0
    3.2888    3.4784   21.0469 H   0  0  0  0  0  0  0  0  0  0  0  0
    5.0669    5.4912   21.4590 C   0  0  0  0  0  0  0  0  0  0  0  0
    3.8581    5.9075   22.1057 N   0  0  0  0  0  0  0  0  0  0  0  0
    3.8698    5.5540   23.0889 H   0  0  0  0  0  0  0  0  0  0  0  0
    3.0373    5.4792   21.6347 H   0  0  0  0  0  0  0  0  0  0  0  0
    6.2901    6.2029   21.9803 C   0  0  0  0  0  0  0  0  0  0  0  0
    6.7761    7.2426   21.0454 C   0  0  0  0  0  0  0  0  0  0  0  0
    7.4365    6.8900   19.8912 C   0  0  0  0  0  0  0  0  0  0  0  0
    7.9067    7.8276   18.9878 C   0  0  0  0  0  0  0  0  0  0  0  0
    7.7073    9.1516   19.2525 C   0  0  0  0  0  0  0  0  0  0  0  0
    7.0479    9.5280   20.4034 C   0  0  0  0  0  0  0  0  0  0  0  0
    6.5742    8.5764   21.3139 C   0  0  0  0  0  0  0  0  0  0  0  0
 27 28  1  0  0  0
 28 29  1  0  0  0
 29 30  1  0  0  0
 30 31  2  0  0  0
 30 33  1  0  0  0
 33 34  1  0  0  0
 33 37  1  0  0  0
 37 38  1  0  0  0
 38 39  2  0  0  0
 39 40  1  0  0  0
 40 41  2  0  0  0
 41 42  1  0  0  0
 42 43  2  0  0  0
 28  1  1  0  0  0
  1  2  2  0  0  0
  1  3  1  0  0  0
  3  4  1  0  0  0
  4  5  1  0  0  0
  5  6  1  0  0  0
  6  7  1  0  0  0
  7  8  1  0  0  0
  8  9  2  0  0  0
  8 10  1  0  0  0
 10 12  1  0  0  0
 12 18  1  0  0  0
 18 19  1  0  0  0
 19 20  2  0  0  0
 20 21  1  0  0  0
 21 22  2  0  0  0
 22 23  1  0  0  0
 22 24  1  0  0  0
 24 25  2  0  0  0
 12 13  1  0  0  0
 13 14  1  0  0  0
 13 15  2  0  0  0
 43 38  1  0  0  0
  7  3  1  0  0  0
 25 19  1  0  0  0
 29 32  1  0  0  0
 34 35  1  0  0  0
 34 36  1  0  0  0
 10 11  1  0  0  0
 23 26  1  0  0  0
 14 16  1  0  0  0
 14 17  1  0  0  0
M  END
> <minimizedAffinity>
-7.83643

> <CNNscore>
0.3163434863

> <CNNaffinity>
6.6047620773

> <CNN_VS>
2.0893733501

> <CNNaffinity_variance>
0.2546923459

$$$$
[H]N=C(N([H])[H])N([H])C([H])([H])C([H])([H])C([H])([H])[C@@]1([H])C(=O)N([H])[C@@]([H])(C([H])([H])c2c([H])c([H])c([H])c([H])c2[H])C(=O)N([H])C([H])([H])C(=O)N([H])[C@@]([H])(C([H])([H])c2c([H])nc([H])n2[H])C(=O)N([H])[C@]([H])(C([H])([H])c2c([H])c([H])c(O[H])c([H])c2[H])C(=O)N1[H]


 59 62  0  0  0  0  0  0  0  0999 V2000
    3.9512    4.9641    9.6430 C   0  0  0  0  0  0  0  0  0  0  0  0
    4.3864    4.6493    8.3138 N   0  0  0  0  0  0  0  0  0  0  0  0
    5.5505    4.6381    7.5650 C   0  0  0  0  0  0  0  0  0  0  0  0
    6.0496    5.8131    7.2918 O   0  0  0  0  0  0  0  0  0  0  0  0
    6.4264    3.6442    6.9516 C   0  0  0  0  0  0  0  0  0  0  0  0
    6.2636    3.5682    5.4883 N   0  0  0  0  0  0  0  0  0  0  0  0
    5.6293    4.3116    4.5259 C   0  0  0  0  0  0  0  0  0  0  0  0
    4.4533    3.8709    4.1112 O   0  0  0  0  0  0  0  0  0  0  0  0
    5.9271    5.5379    3.7824 C   0  0  0  0  0  0  0  0  0  0  0  0
    4.8737    6.5060    3.6242 N   0  0  0  0  0  0  0  0  0  0  0  0
    3.5957    6.6633    4.1046 C   0  0  0  0  0  0  0  0  0  0  0  0
    2.6385    6.3981    3.2674 O   0  0  0  0  0  0  0  0  0  0  0  0
    3.0850    7.0928    5.4264 C   0  0  0  0  0  0  0  0  0  0  0  0
    1.6793    6.6941    5.5898 N   0  0  0  0  0  0  0  0  0  0  0  0
    1.1443    5.8836    6.5838 C   0  0  0  0  0  0  0  0  0  0  0  0
    0.4727    4.8619    6.1573 O   0  0  0  0  0  0  0  0  0  0  0  0
    1.2048    5.9767    8.0393 C   0  0  0  0  0  0  0  0  0  0  0  0
    2.3172    6.6984    8.6093 N   0  0  0  0  0  0  0  0  0  0  0  0
    3.1810    6.2773    9.6403 C   0  0  0  0  0  0  0  0  0  0  0  0
    3.3890    6.9743   10.6670 O   0  0  0  0  0  0  0  0  0  0  0  0
    3.4640    4.3764    7.7705 H   0  0  0  0  0  0  0  0  0  0  0  0
    6.7710    2.6840    5.1201 H   0  0  0  0  0  0  0  0  0  0  0  0
    5.2094    7.2921    2.9247 H   0  0  0  0  0  0  0  0  0  0  0  0
    1.0471    7.0904    4.8456 H   0  0  0  0  0  0  0  0  0  0  0  0
    2.4788    7.6572    8.2062 H   0  0  0  0  0  0  0  0  0  0  0  0
    4.8877    4.8657   10.7681 C   0  0  0  0  0  0  0  0  0  0  0  0
    6.3255    4.6450   10.4761 C   0  0  0  0  0  0  0  0  0  0  0  0
    7.1319    5.9509   10.5965 C   0  0  0  0  0  0  0  0  0  0  0  0
    6.4572    6.9044   11.4157 N   0  0  0  0  0  0  0  0  0  0  0  0
    6.0177    6.6090   12.3082 H   0  0  0  0  0  0  0  0  0  0  0  0
    5.8489    8.6220    9.7313 N   0  0  0  0  0  0  0  0  0  0  0  0
    6.3936    8.2571   10.9975 C   0  0  0  0  0  0  0  0  0  0  0  0
    6.8396    9.1660   11.7888 N   0  0  0  0  0  0  0  0  0  0  0  0
    5.8308    7.9224    8.9645 H   0  0  0  0  0  0  0  0  0  0  0  0
    5.4724    9.5683    9.5613 H   0  0  0  0  0  0  0  0  0  0  0  0
    6.8076   10.1690   11.5140 H   0  0  0  0  0  0  0  0  0  0  0  0
    6.4460    2.2685    7.5342 C   0  0  0  0  0  0  0  0  0  0  0  0
    5.2115    1.6277    7.9132 C   0  0  0  0  0  0  0  0  0  0  0  0
    4.2619    1.2189    6.9755 C   0  0  0  0  0  0  0  0  0  0  0  0
    3.1007    0.5722    7.3026 C   0  0  0  0  0  0  0  0  0  0  0  0
    2.8131    0.2912    8.5998 C   0  0  0  0  0  0  0  0  0  0  0  0
    1.6239   -0.3690    8.9153 O   0  0  0  0  0  0  0  0  0  0  0  0
    3.7199    0.6753    9.5613 C   0  0  0  0  0  0  0  0  0  0  0  0
    4.8960    1.3318    9.2112 C   0  0  0  0  0  0  0  0  0  0  0  0
    1.3448   -0.6102    9.8424 H   0  0  0  0  0  0  0  0  0  0  0  0
    7.2832    6.1479    3.9296 C   0  0  0  0  0  0  0  0  0  0  0  0
    7.2928    7.5976    4.2284 C   0  0  0  0  0  0  0  0  0  0  0  0
    7.5033    8.7092    3.4529 C   0  0  0  0  0  0  0  0  0  0  0  0
    7.3987    9.8323    4.1846 N   0  0  0  0  0  0  0  0  0  0  0  0
    7.1181    9.4466    5.4477 C   0  0  0  0  0  0  0  0  0  0  0  0
    7.0544    8.1084    5.4745 N   0  0  0  0  0  0  0  0  0  0  0  0
    6.8530    7.5556    6.3261 H   0  0  0  0  0  0  0  0  0  0  0  0
   -0.0556    6.6961    8.5246 C   0  0  0  0  0  0  0  0  0  0  0  0
   -0.7467    6.0478    9.6249 C   0  0  0  0  0  0  0  0  0  0  0  0
   -0.5580    6.5072   10.9161 C   0  0  0  0  0  0  0  0  0  0  0  0
   -1.2185    5.9194   11.9713 C   0  0  0  0  0  0  0  0  0  0  0  0
   -2.0743    4.8681   11.7592 C   0  0  0  0  0  0  0  0  0  0  0  0
   -2.2541    4.4179   10.4616 C   0  0  0  0  0  0  0  0  0  0  0  0
   -1.6040    4.9940    9.4072 C   0  0  0  0  0  0  0  0  0  0  0  0
 31 32  1  0  0  0
 32 33  2  0  0  0
 32 29  1  0  0  0
 29 28  1  0  0  0
 28 27  1  0  0  0
 27 26  1  0  0  0
 26  1  1  0  0  0
  1  2  1  0  0  0
  2  3  1  0  0  0
  3  4  2  0  0  0
  3  5  1  0  0  0
  5 37  1  0  0  0
 37 38  1  0  0  0
 38 39  2  0  0  0
 39 40  1  0  0  0
 40 41  2  0  0  0
 41 42  1  0  0  0
 41 43  1  0  0  0
 43 44  2  0  0  0
  5  6  1  0  0  0
  6  7  1  0  0  0
  7  8  2  0  0  0
  7  9  1  0  0  0
  9 46  1  0  0  0
 46 47  1  0  0  0
 47 48  2  0  0  0
 48 49  1  0  0  0
 49 50  2  0  0  0
 50 51  1  0  0  0
  9 10  1  0  0  0
 10 11  1  0  0  0
 11 12  2  0  0  0
 11 13  1  0  0  0
 13 14  1  0  0  0
 14 15  1  0  0  0
 15 16  2  0  0  0
 15 17  1  0  0  0
 17 53  1  0  0  0
 53 54  1  0  0  0
 54 55  2  0  0  0
 55 56  1  0  0  0
 56 57  2  0  0  0
 57 58  1  0  0  0
 58 59  2  0  0  0
 17 18  1  0  0  0
 18 19  1  0  0  0
 19 20  2  0  0  0
 19  1  1  0  0  0
 44 38  1  0  0  0
 51 47  1  0  0  0
 59 54  1  0  0  0
 31 34  1  0  0  0
 31 35  1  0  0  0
 33 36  1  0  0  0
 29 30  1  0  0  0
  2 21  1  0  0  0
 42 45  1  0  0  0
  6 22  1  0  0  0
 51 52  1  0  0  0
 10 23  1  0  0  0
 14 24  1  0  0  0
 18 25  1  0  0  0
M  END
> <minimizedAffinity>
-5.76688

> <CNNscore>
0.3712615669

> <CNNaffinity>
5.8391399384

> <CNN_VS>
2.1678483486

> <CNNaffinity_variance>
0.9052436948

$$$$
[H]N=C(N([H])[H])N([H])C([H])([H])C([H])([H])C([H])([H])[C@@]1([H])C(=O)N([H])[C@@]([H])(C([H])([H])c2c([H])c([H])c([H])c([H])c2[H])C(=O)N([H])C([H])([H])C(=O)N([H])[C@@]([H])(C([H])([H])c2c([H])nc([H])n2[H])C(=O)N([H])[C@]([H])(C([H])([H])c2c([H])c([H])c(O[H])c([H])c2[H])C(=O)N1[H]


 59 62  0  0  0  0  0  0  0  0999 V2000
    3.1443    6.6332   10.5453 C   0  0  0  0  0  0  0  0  0  0  0  0
    3.9330    6.4528    9.3619 N   0  0  0  0  0  0  0  0  0  0  0  0
    5.1715    6.8141    8.8602 C   0  0  0  0  0  0  0  0  0  0  0  0
    5.3132    8.0820    8.5835 O   0  0  0  0  0  0  0  0  0  0  0  0
    6.4306    6.1560    8.5242 C   0  0  0  0  0  0  0  0  0  0  0  0
    6.6201    5.9984    7.0707 N   0  0  0  0  0  0  0  0  0  0  0  0
    6.0037    6.4669    5.9385 C   0  0  0  0  0  0  0  0  0  0  0  0
    5.1500    5.6506    5.3434 O   0  0  0  0  0  0  0  0  0  0  0  0
    6.0446    7.7060    5.1585 C   0  0  0  0  0  0  0  0  0  0  0  0
    4.7963    8.2640    4.7087 N   0  0  0  0  0  0  0  0  0  0  0  0
    3.4637    7.9966    4.9127 C   0  0  0  0  0  0  0  0  0  0  0  0
    2.8465    7.4095    3.9320 O   0  0  0  0  0  0  0  0  0  0  0  0
    2.5701    8.2598    6.0636 C   0  0  0  0  0  0  0  0  0  0  0  0
    1.3666    7.4190    5.9841 N   0  0  0  0  0  0  0  0  0  0  0  0
    0.9195    6.4983    6.9239 C   0  0  0  0  0  0  0  0  0  0  0  0
    0.7201    5.3021    6.4695 O   0  0  0  0  0  0  0  0  0  0  0  0
    0.6318    6.6376    8.3483 C   0  0  0  0  0  0  0  0  0  0  0  0
    1.3031    7.7010    9.0567 N   0  0  0  0  0  0  0  0  0  0  0  0
    2.0128    7.6142   10.2713 C   0  0  0  0  0  0  0  0  0  0  0  0
    1.7597    8.3627   11.2504 O   0  0  0  0  0  0  0  0  0  0  0  0
    3.2871    5.8765    8.6756 H   0  0  0  0  0  0  0  0  0  0  0  0
    7.4513    5.3262    6.8918 H   0  0  0  0  0  0  0  0  0  0  0  0
    5.0040    9.1017    4.0195 H   0  0  0  0  0  0  0  0  0  0  0  0
    0.8166    7.5658    5.0972 H   0  0  0  0  0  0  0  0  0  0  0  0
    1.2310    8.6498    8.6068 H   0  0  0  0  0  0  0  0  0  0  0  0
    3.7972    6.8769   11.8364 C   0  0  0  0  0  0  0  0  0  0  0  0
    5.0226    7.7128   11.8643 C   0  0  0  0  0  0  0  0  0  0  0  0
    5.1329    8.5076   13.1781 C   0  0  0  0  0  0  0  0  0  0  0  0
    4.6068    7.7676   14.2786 N   0  0  0  0  0  0  0  0  0  0  0  0
    4.9928    6.8331   14.5127 H   0  0  0  0  0  0  0  0  0  0  0  0
    2.3530    8.7936   14.4378 N   0  0  0  0  0  0  0  0  0  0  0  0
    3.5527    8.3218   15.0471 C   0  0  0  0  0  0  0  0  0  0  0  0
    3.6943    8.3931   16.3223 N   0  0  0  0  0  0  0  0  0  0  0  0
    2.3672    9.0780   13.4395 H   0  0  0  0  0  0  0  0  0  0  0  0
    1.4703    8.8586   14.9695 H   0  0  0  0  0  0  0  0  0  0  0  0
    2.9401    8.7934   16.9169 H   0  0  0  0  0  0  0  0  0  0  0  0
    6.7650    4.8784    9.2230 C   0  0  0  0  0  0  0  0  0  0  0  0
    6.3525    3.6177    8.6583 C   0  0  0  0  0  0  0  0  0  0  0  0
    7.2299    2.7890    7.9571 C   0  0  0  0  0  0  0  0  0  0  0  0
    6.8774    1.5693    7.4455 C   0  0  0  0  0  0  0  0  0  0  0  0
    5.6140    1.0971    7.6042 C   0  0  0  0  0  0  0  0  0  0  0  0
    5.2720   -0.1492    7.0757 O   0  0  0  0  0  0  0  0  0  0  0  0
    4.7124    1.8795    8.2892 C   0  0  0  0  0  0  0  0  0  0  0  0
    5.0875    3.1172    8.8031 C   0  0  0  0  0  0  0  0  0  0  0  0
    4.3669   -0.5622    7.1526 H   0  0  0  0  0  0  0  0  0  0  0  0
    7.0676    8.7362    5.5122 C   0  0  0  0  0  0  0  0  0  0  0  0
    8.3573    8.6151    4.7958 C   0  0  0  0  0  0  0  0  0  0  0  0
    8.6786    8.4641    3.4710 C   0  0  0  0  0  0  0  0  0  0  0  0
   10.0116    8.4101    3.3031 N   0  0  0  0  0  0  0  0  0  0  0  0
   10.5613    8.5265    4.5307 C   0  0  0  0  0  0  0  0  0  0  0  0
    9.5712    8.6495    5.4251 N   0  0  0  0  0  0  0  0  0  0  0  0
    9.7213    8.7540    6.4439 H   0  0  0  0  0  0  0  0  0  0  0  0
   -0.8661    6.9061    8.5089 C   0  0  0  0  0  0  0  0  0  0  0  0
   -1.5302    6.0957    9.5143 C   0  0  0  0  0  0  0  0  0  0  0  0
   -2.8946    5.8840    9.4296 C   0  0  0  0  0  0  0  0  0  0  0  0
   -3.5405    5.1030   10.3613 C   0  0  0  0  0  0  0  0  0  0  0  0
   -2.8412    4.5222   11.3891 C   0  0  0  0  0  0  0  0  0  0  0  0
   -1.4756    4.7423   11.4622 C   0  0  0  0  0  0  0  0  0  0  0  0
   -0.8245    5.5153   10.5430 C   0  0  0  0  0  0  0  0  0  0  0  0
 31 32  1  0  0  0
 32 33  2  0  0  0
 32 29  1  0  0  0
 29 28  1  0  0  0
 28 27  1  0  0  0
 27 26  1  0  0  0
 26  1  1  0  0  0
  1  2  1  0  0  0
  2  3  1  0  0  0
  3  4  2  0  0  0
  3  5  1  0  0  0
  5 37  1  0  0  0
 37 38  1  0  0  0
 38 39  2  0  0  0
 39 40  1  0  0  0
 40 41  2  0  0  0
 41 42  1  0  0  0
 41 43  1  0  0  0
 43 44  2  0  0  0
  5  6  1  0  0  0
  6  7  1  0  0  0
  7  8  2  0  0  0
  7  9  1  0  0  0
  9 46  1  0  0  0
 46 47  1  0  0  0
 47 48  2  0  0  0
 48 49  1  0  0  0
 49 50  2  0  0  0
 50 51  1  0  0  0
  9 10  1  0  0  0
 10 11  1  0  0  0
 11 12  2  0  0  0
 11 13  1  0  0  0
 13 14  1  0  0  0
 14 15  1  0  0  0
 15 16  2  0  0  0
 15 17  1  0  0  0
 17 53  1  0  0  0
 53 54  1  0  0  0
 54 55  2  0  0  0
 55 56  1  0  0  0
 56 57  2  0  0  0
 57 58  1  0  0  0
 58 59  2  0  0  0
 17 18  1  0  0  0
 18 19  1  0  0  0
 19 20  2  0  0  0
 19  1  1  0  0  0
 44 38  1  0  0  0
 51 47  1  0  0  0
 59 54  1  0  0  0
 31 34  1  0  0  0
 31 35  1  0  0  0
 33 36  1  0  0  0
 29 30  1  0  0  0
  2 21  1  0  0  0
 42 45  1  0  0  0
  6 22  1  0  0  0
 51 52  1  0  0  0
 10 23  1  0  0  0
 14 24  1  0  0  0
 18 25  1  0  0  0
M  END
> <minimizedAffinity>
-6.68299

> <CNNscore>
0.3248340786

> <CNNaffinity>
5.9020090103

> <CNN_VS>
1.9171736240

> <CNNaffinity_variance>
0.6995001435

$$$$
[H]N=C(N([H])[H])N([H])C([H])([H])C([H])([H])C([H])([H])[C@@]1([H])C(=O)N([H])[C@@]([H])(C([H])([H])c2c([H])c([H])c([H])c([H])c2[H])C(=O)N([H])C([H])([H])C(=O)N([H])[C@@]([H])(C([H])([H])c2c([H])nc([H])n2[H])C(=O)N([H])[C@]([H])(C([H])([H])c2c([H])c([H])c(O[H])c([H])c2[H])C(=O)N1[H]


 59 62  0  0  0  0  0  0  0  0999 V2000
    3.2442    4.1484   14.2536 C   0  0  0  0  0  0  0  0  0  0  0  0
    3.5060    4.8466   13.0293 N   0  0  0  0  0  0  0  0  0  0  0  0
    4.0859    4.6180   11.7934 C   0  0  0  0  0  0  0  0  0  0  0  0
    5.3812    4.4559   11.8061 O   0  0  0  0  0  0  0  0  0  0  0  0
    3.6510    4.5068   10.4042 C   0  0  0  0  0  0  0  0  0  0  0  0
    3.9851    5.7006    9.6062 N   0  0  0  0  0  0  0  0  0  0  0  0
    4.7565    6.8210    9.7819 C   0  0  0  0  0  0  0  0  0  0  0  0
    4.1263    7.9294   10.1337 O   0  0  0  0  0  0  0  0  0  0  0  0
    6.1816    7.1410    9.6716 C   0  0  0  0  0  0  0  0  0  0  0  0
    6.7773    7.9429   10.7078 N   0  0  0  0  0  0  0  0  0  0  0  0
    6.3769    8.4431   11.9237 C   0  0  0  0  0  0  0  0  0  0  0  0
    6.1026    9.7125   11.9522 O   0  0  0  0  0  0  0  0  0  0  0  0
    6.1973    7.7983   13.2445 C   0  0  0  0  0  0  0  0  0  0  0  0
    5.3553    8.6324   14.1146 N   0  0  0  0  0  0  0  0  0  0  0  0
    4.1540    8.2765   14.7155 C   0  0  0  0  0  0  0  0  0  0  0  0
    3.1599    9.0685   14.4676 O   0  0  0  0  0  0  0  0  0  0  0  0
    3.8061    7.1568   15.5851 C   0  0  0  0  0  0  0  0  0  0  0  0
    4.6215    5.9696   15.4915 N   0  0  0  0  0  0  0  0  0  0  0  0
    4.1895    4.6363   15.3427 C   0  0  0  0  0  0  0  0  0  0  0  0
    4.5631    3.7200   16.1198 O   0  0  0  0  0  0  0  0  0  0  0  0
    3.1447    5.8754   13.2066 H   0  0  0  0  0  0  0  0  0  0  0  0
    3.4596    5.6533    8.6594 H   0  0  0  0  0  0  0  0  0  0  0  0
    7.8044    8.2155   10.4064 H   0  0  0  0  0  0  0  0  0  0  0  0
    5.7476    9.5984   14.2681 H   0  0  0  0  0  0  0  0  0  0  0  0
    5.6586    6.1359   15.5595 H   0  0  0  0  0  0  0  0  0  0  0  0
    3.0958    2.6887   14.2527 C   0  0  0  0  0  0  0  0  0  0  0  0
    1.7720    2.1107   14.5909 C   0  0  0  0  0  0  0  0  0  0  0  0
    1.6679    1.7802   16.0910 C   0  0  0  0  0  0  0  0  0  0  0  0
    2.2924    0.5334   16.3927 N   0  0  0  0  0  0  0  0  0  0  0  0
    2.3380   -0.2156   15.6758 H   0  0  0  0  0  0  0  0  0  0  0  0
    3.9131    1.1413   18.1707 N   0  0  0  0  0  0  0  0  0  0  0  0
    2.8484    0.3294   17.6804 C   0  0  0  0  0  0  0  0  0  0  0  0
    2.3711   -0.6121   18.4131 N   0  0  0  0  0  0  0  0  0  0  0  0
    4.5318    1.6310   17.4961 H   0  0  0  0  0  0  0  0  0  0  0  0
    4.0815    1.2518   19.1833 H   0  0  0  0  0  0  0  0  0  0  0  0
    2.7551   -0.7890   19.3638 H   0  0  0  0  0  0  0  0  0  0  0  0
    2.2390    4.0961   10.1397 C   0  0  0  0  0  0  0  0  0  0  0  0
    1.9204    2.7072    9.9209 C   0  0  0  0  0  0  0  0  0  0  0  0
    2.9026    1.7391    9.7057 C   0  0  0  0  0  0  0  0  0  0  0  0
    2.6327    0.4079    9.5357 C   0  0  0  0  0  0  0  0  0  0  0  0
    1.3521   -0.0431    9.5704 C   0  0  0  0  0  0  0  0  0  0  0  0
    1.0953   -1.4043    9.3951 O   0  0  0  0  0  0  0  0  0  0  0  0
    0.3485    0.8750    9.7799 C   0  0  0  0  0  0  0  0  0  0  0  0
    0.6405    2.2249    9.9511 C   0  0  0  0  0  0  0  0  0  0  0  0
    0.1837   -1.8097    9.4090 H   0  0  0  0  0  0  0  0  0  0  0  0
    7.1023    6.1054    9.1124 C   0  0  0  0  0  0  0  0  0  0  0  0
    7.0297    5.9241    7.6451 C   0  0  0  0  0  0  0  0  0  0  0  0
    6.6538    4.8699    6.8523 C   0  0  0  0  0  0  0  0  0  0  0  0
    6.7476    5.1908    5.5500 N   0  0  0  0  0  0  0  0  0  0  0  0
    7.1894    6.4655    5.4964 C   0  0  0  0  0  0  0  0  0  0  0  0
    7.3583    6.9053    6.7508 N   0  0  0  0  0  0  0  0  0  0  0  0
    7.6917    7.8553    6.9910 H   0  0  0  0  0  0  0  0  0  0  0  0
    3.9153    7.6280   17.0370 C   0  0  0  0  0  0  0  0  0  0  0  0
    5.2400    7.5138   17.6208 C   0  0  0  0  0  0  0  0  0  0  0  0
    6.1408    8.5543   17.4803 C   0  0  0  0  0  0  0  0  0  0  0  0
    7.3949    8.4746   18.0425 C   0  0  0  0  0  0  0  0  0  0  0  0
    7.7716    7.3615   18.7510 C   0  0  0  0  0  0  0  0  0  0  0  0
    6.8601    6.3270   18.8840 C   0  0  0  0  0  0  0  0  0  0  0  0
    5.6130    6.3957   18.3305 C   0  0  0  0  0  0  0  0  0  0  0  0
 31 32  1  0  0  0
 32 33  2  0  0  0
 32 29  1  0  0  0
 29 28  1  0  0  0
 28 27  1  0  0  0
 27 26  1  0  0  0
 26  1  1  0  0  0
  1  2  1  0  0  0
  2  3  1  0  0  0
  3  4  2  0  0  0
  3  5  1  0  0  0
  5 37  1  0  0  0
 37 38  1  0  0  0
 38 39  2  0  0  0
 39 40  1  0  0  0
 40 41  2  0  0  0
 41 42  1  0  0  0
 41 43  1  0  0  0
 43 44  2  0  0  0
  5  6  1  0  0  0
  6  7  1  0  0  0
  7  8  2  0  0  0
  7  9  1  0  0  0
  9 46  1  0  0  0
 46 47  1  0  0  0
 47 48  2  0  0  0
 48 49  1  0  0  0
 49 50  2  0  0  0
 50 51  1  0  0  0
  9 10  1  0  0  0
 10 11  1  0  0  0
 11 12  2  0  0  0
 11 13  1  0  0  0
 13 14  1  0  0  0
 14 15  1  0  0  0
 15 16  2  0  0  0
 15 17  1  0  0  0
 17 53  1  0  0  0
 53 54  1  0  0  0
 54 55  2  0  0  0
 55 56  1  0  0  0
 56 57  2  0  0  0
 57 58  1  0  0  0
 58 59  2  0  0  0
 17 18  1  0  0  0
 18 19  1  0  0  0
 19 20  2  0  0  0
 19  1  1  0  0  0
 44 38  1  0  0  0
 51 47  1  0  0  0
 59 54  1  0  0  0
 31 34  1  0  0  0
 31 35  1  0  0  0
 33 36  1  0  0  0
 29 30  1  0  0  0
  2 21  1  0  0  0
 42 45  1  0  0  0
  6 22  1  0  0  0
 51 52  1  0  0  0
 10 23  1  0  0  0
 14 24  1  0  0  0
 18 25  1  0  0  0
M  END
> <minimizedAffinity>
-6.55059

> <CNNscore>
0.3104973435

> <CNNaffinity>
6.6804037094

> <CNN_VS>
2.0742475986

> <CNNaffinity_variance>
1.0986661911

$$$$
[H]N=C(N([H])[H])N([H])C([H])([H])C([H])([H])C([H])([H])[C@@]1([H])C(=O)N([H])[C@@]([H])(C([H])([H])c2c([H])c([H])c([H])c([H])c2[H])C(=O)N([H])C([H])([H])C(=O)N([H])[C@@]([H])(C([H])([H])c2c([H])nc([H])n2[H])C(=O)N([H])[C@]([H])(C([H])([H])c2c([H])c([H])c(O[H])c([H])c2[H])C(=O)N1[H]


 59 62  0  0  0  0  0  0  0  0999 V2000
    2.5208    5.1183   11.9410 C   0  0  0  0  0  0  0  0  0  0  0  0
    1.7543    4.5680   10.8618 N   0  0  0  0  0  0  0  0  0  0  0  0
    0.6768    3.7220   10.6635 C   0  0  0  0  0  0  0  0  0  0  0  0
    0.8907    2.4679   10.9561 O   0  0  0  0  0  0  0  0  0  0  0  0
   -0.7004    3.8257   10.1902 C   0  0  0  0  0  0  0  0  0  0  0  0
   -0.8744    3.2949    8.8258 N   0  0  0  0  0  0  0  0  0  0  0  0
   -0.1158    2.5654    7.9463 C   0  0  0  0  0  0  0  0  0  0  0  0
    0.5074    3.2402    6.9946 O   0  0  0  0  0  0  0  0  0  0  0  0
    0.2050    1.1481    7.7632 C   0  0  0  0  0  0  0  0  0  0  0  0
    1.5722    0.7941    7.4851 N   0  0  0  0  0  0  0  0  0  0  0  0
    2.7760    1.4560    7.4455 C   0  0  0  0  0  0  0  0  0  0  0  0
    3.2466    1.7069    6.2610 O   0  0  0  0  0  0  0  0  0  0  0  0
    3.6668    1.9477    8.5212 C   0  0  0  0  0  0  0  0  0  0  0  0
    4.6021    2.9532    7.9961 N   0  0  0  0  0  0  0  0  0  0  0  0
    4.7524    4.2671    8.4228 C   0  0  0  0  0  0  0  0  0  0  0  0
    4.6387    5.1627    7.4944 O   0  0  0  0  0  0  0  0  0  0  0  0
    5.0170    4.8265    9.7449 C   0  0  0  0  0  0  0  0  0  0  0  0
    4.6319    4.0326   10.8872 N   0  0  0  0  0  0  0  0  0  0  0  0
    3.8831    4.4421   12.0088 C   0  0  0  0  0  0  0  0  0  0  0  0
    4.2937    4.2747   13.1863 O   0  0  0  0  0  0  0  0  0  0  0  0
    2.2452    4.9422    9.9456 H   0  0  0  0  0  0  0  0  0  0  0  0
   -1.8490    3.5879    8.4525 H   0  0  0  0  0  0  0  0  0  0  0  0
    1.6213   -0.2795    7.2301 H   0  0  0  0  0  0  0  0  0  0  0  0
    5.2019    2.5901    7.2093 H   0  0  0  0  0  0  0  0  0  0  0  0
    4.9719    3.0367   10.8715 H   0  0  0  0  0  0  0  0  0  0  0  0
    1.9127    5.2882   13.2655 C   0  0  0  0  0  0  0  0  0  0  0  0
    0.9900    6.4299   13.4805 C   0  0  0  0  0  0  0  0  0  0  0  0
   -0.4631    5.9540   13.6602 C   0  0  0  0  0  0  0  0  0  0  0  0
   -1.3891    6.9013   13.1307 N   0  0  0  0  0  0  0  0  0  0  0  0
   -1.0690    7.6286   12.4632 H   0  0  0  0  0  0  0  0  0  0  0  0
   -3.7629    6.3709   12.6391 N   0  0  0  0  0  0  0  0  0  0  0  0
   -2.7488    6.8382   13.5259 C   0  0  0  0  0  0  0  0  0  0  0  0
   -3.0605    7.2127   14.7149 N   0  0  0  0  0  0  0  0  0  0  0  0
   -3.6036    6.4174   11.6144 H   0  0  0  0  0  0  0  0  0  0  0  0
   -4.6528    5.9875   12.9955 H   0  0  0  0  0  0  0  0  0  0  0  0
   -4.0489    7.1787   15.0383 H   0  0  0  0  0  0  0  0  0  0  0  0
   -1.3899    5.1452   10.3153 C   0  0  0  0  0  0  0  0  0  0  0  0
   -1.4662    6.0301    9.1797 C   0  0  0  0  0  0  0  0  0  0  0  0
   -2.6795    6.3871    8.5893 C   0  0  0  0  0  0  0  0  0  0  0  0
   -2.7857    7.2562    7.5371 C   0  0  0  0  0  0  0  0  0  0  0  0
   -1.6752    7.8282    7.0040 C   0  0  0  0  0  0  0  0  0  0  0  0
   -1.8022    8.7123    5.9309 O   0  0  0  0  0  0  0  0  0  0  0  0
   -0.4548    7.5063    7.5531 C   0  0  0  0  0  0  0  0  0  0  0  0
   -0.3648    6.6210    8.6230 C   0  0  0  0  0  0  0  0  0  0  0  0
   -1.0349    9.1715    5.4882 H   0  0  0  0  0  0  0  0  0  0  0  0
   -0.5153    0.1414    8.6003 C   0  0  0  0  0  0  0  0  0  0  0  0
   -1.8114   -0.3203    8.0544 C   0  0  0  0  0  0  0  0  0  0  0  0
   -2.5685    0.0794    6.9828 C   0  0  0  0  0  0  0  0  0  0  0  0
   -3.6854   -0.6621    6.8804 N   0  0  0  0  0  0  0  0  0  0  0  0
   -3.6538   -1.5516    7.8956 C   0  0  0  0  0  0  0  0  0  0  0  0
   -2.5317   -1.3475    8.5989 N   0  0  0  0  0  0  0  0  0  0  0  0
   -2.2638   -1.8978    9.4337 H   0  0  0  0  0  0  0  0  0  0  0  0
    6.5255    5.0478    9.8765 C   0  0  0  0  0  0  0  0  0  0  0  0
    6.9087    6.2407   10.6106 C   0  0  0  0  0  0  0  0  0  0  0  0
    5.9385    7.1512   10.9892 C   0  0  0  0  0  0  0  0  0  0  0  0
    6.2778    8.2788   11.7025 C   0  0  0  0  0  0  0  0  0  0  0  0
    7.5838    8.5176   12.0490 C   0  0  0  0  0  0  0  0  0  0  0  0
    8.5452    7.5979   11.6636 C   0  0  0  0  0  0  0  0  0  0  0  0
    8.2197    6.4756   10.9558 C   0  0  0  0  0  0  0  0  0  0  0  0
 31 32  1  0  0  0
 32 33  2  0  0  0
 32 29  1  0  0  0
 29 28  1  0  0  0
 28 27  1  0  0  0
 27 26  1  0  0  0
 26  1  1  0  0  0
  1  2  1  0  0  0
  2  3  1  0  0  0
  3  4  2  0  0  0
  3  5  1  0  0  0
  5 37  1  0  0  0
 37 38  1  0  0  0
 38 39  2  0  0  0
 39 40  1  0  0  0
 40 41  2  0  0  0
 41 42  1  0  0  0
 41 43  1  0  0  0
 43 44  2  0  0  0
  5  6  1  0  0  0
  6  7  1  0  0  0
  7  8  2  0  0  0
  7  9  1  0  0  0
  9 46  1  0  0  0
 46 47  1  0  0  0
 47 48  2  0  0  0
 48 49  1  0  0  0
 49 50  2  0  0  0
 50 51  1  0  0  0
  9 10  1  0  0  0
 10 11  1  0  0  0
 11 12  2  0  0  0
 11 13  1  0  0  0
 13 14  1  0  0  0
 14 15  1  0  0  0
 15 16  2  0  0  0
 15 17  1  0  0  0
 17 53  1  0  0  0
 53 54  1  0  0  0
 54 55  2  0  0  0
 55 56  1  0  0  0
 56 57  2  0  0  0
 57 58  1  0  0  0
 58 59  2  0  0  0
 17 18  1  0  0  0
 18 19  1  0  0  0
 19 20  2  0  0  0
 19  1  1  0  0  0
 44 38  1  0  0  0
 51 47  1  0  0  0
 59 54  1  0  0  0
 31 34  1  0  0  0
 31 35  1  0  0  0
 33 36  1  0  0  0
 29 30  1  0  0  0
  2 21  1  0  0  0
 42 45  1  0  0  0
  6 22  1  0  0  0
 51 52  1  0  0  0
 10 23  1  0  0  0
 14 24  1  0  0  0
 18 25  1  0  0  0
M  END
> <minimizedAffinity>
-6.27357

> <CNNscore>
0.3044492006

> <CNNaffinity>
6.0114040375

> <CNN_VS>
1.8301671743

> <CNNaffinity_variance>
0.9560173154

$$$$
[H]N=C(N([H])[H])N([H])C([H])([H])C([H])([H])C([H])([H])[C@@]1([H])C(=O)N([H])[C@@]([H])(C([H])([H])c2c([H])c([H])c([H])c([H])c2[H])C(=O)N([H])C([H])([H])C(=O)N([H])[C@@]([H])(C([H])([H])c2c([H])nc([H])n2[H])C(=O)N([H])[C@]([H])(C([H])([H])c2c([H])c([H])c(O[H])c([H])c2[H])C(=O)N1[H]


 59 62  0  0  0  0  0  0  0  0999 V2000
    2.8916    4.0608   13.3768 C   0  0  0  0  0  0  0  0  0  0  0  0
    3.6917    4.7261   14.3628 N   0  0  0  0  0  0  0  0  0  0  0  0
    3.6465    5.0495   15.7079 C   0  0  0  0  0  0  0  0  0  0  0  0
    2.7579    5.9478   16.0363 O   0  0  0  0  0  0  0  0  0  0  0  0
    4.3442    4.6656   16.9315 C   0  0  0  0  0  0  0  0  0  0  0  0
    5.2956    5.6941   17.3905 N   0  0  0  0  0  0  0  0  0  0  0  0
    5.5716    6.9980   17.0668 C   0  0  0  0  0  0  0  0  0  0  0  0
    6.6043    7.2081   16.2678 O   0  0  0  0  0  0  0  0  0  0  0  0
    4.9959    8.3043   17.3948 C   0  0  0  0  0  0  0  0  0  0  0  0
    4.8272    9.2564   16.3285 N   0  0  0  0  0  0  0  0  0  0  0  0
    4.9672    9.2443   14.9614 C   0  0  0  0  0  0  0  0  0  0  0  0
    6.0245    9.8369   14.4942 O   0  0  0  0  0  0  0  0  0  0  0  0
    4.1203    8.6749   13.8884 C   0  0  0  0  0  0  0  0  0  0  0  0
    4.8894    8.5388   12.6428 N   0  0  0  0  0  0  0  0  0  0  0  0
    5.1236    7.3746   11.9211 C   0  0  0  0  0  0  0  0  0  0  0  0
    6.3706    7.1126   11.6906 O   0  0  0  0  0  0  0  0  0  0  0  0
    4.2065    6.3814   11.3704 C   0  0  0  0  0  0  0  0  0  0  0  0
    2.9111    6.2603   11.9954 N   0  0  0  0  0  0  0  0  0  0  0  0
    2.2720    5.0832   12.4341 C   0  0  0  0  0  0  0  0  0  0  0  0
    1.1066    4.7781   12.0710 O   0  0  0  0  0  0  0  0  0  0  0  0
    4.5734    5.0963   13.8099 H   0  0  0  0  0  0  0  0  0  0  0  0
    5.9273    5.2733   18.1643 H   0  0  0  0  0  0  0  0  0  0  0  0
    4.5251   10.2281   16.7581 H   0  0  0  0  0  0  0  0  0  0  0  0
    5.2884    9.4521   12.3005 H   0  0  0  0  0  0  0  0  0  0  0  0
    2.3892    7.1662   12.1163 H   0  0  0  0  0  0  0  0  0  0  0  0
    1.9388    3.0204   13.7800 C   0  0  0  0  0  0  0  0  0  0  0  0
    2.0932    1.6590   13.2108 C   0  0  0  0  0  0  0  0  0  0  0  0
    1.4791    1.5641   11.8023 C   0  0  0  0  0  0  0  0  0  0  0  0
    2.4876    1.4076   10.8053 N   0  0  0  0  0  0  0  0  0  0  0  0
    3.4785    1.6237   11.0255 H   0  0  0  0  0  0  0  0  0  0  0  0
    1.8700    1.8664    8.4462 N   0  0  0  0  0  0  0  0  0  0  0  0
    2.1217    0.9546    9.5131 C   0  0  0  0  0  0  0  0  0  0  0  0
    2.0196   -0.3104    9.3121 N   0  0  0  0  0  0  0  0  0  0  0  0
    1.5931    2.8425    8.6658 H   0  0  0  0  0  0  0  0  0  0  0  0
    1.9572    1.5755    7.4594 H   0  0  0  0  0  0  0  0  0  0  0  0
    1.7539   -0.6776    8.3755 H   0  0  0  0  0  0  0  0  0  0  0  0
    4.9876    3.3180   16.9813 C   0  0  0  0  0  0  0  0  0  0  0  0
    4.4897    2.3138   17.8880 C   0  0  0  0  0  0  0  0  0  0  0  0
    4.5023    2.4840   19.2733 C   0  0  0  0  0  0  0  0  0  0  0  0
    3.9999    1.5664   20.1560 C   0  0  0  0  0  0  0  0  0  0  0  0
    3.4482    0.4101   19.7050 C   0  0  0  0  0  0  0  0  0  0  0  0
    2.9406   -0.5146   20.6197 O   0  0  0  0  0  0  0  0  0  0  0  0
    3.4133    0.1973   18.3457 C   0  0  0  0  0  0  0  0  0  0  0  0
    3.9285    1.1410   17.4621 C   0  0  0  0  0  0  0  0  0  0  0  0
    2.5205   -1.3831   20.3652 H   0  0  0  0  0  0  0  0  0  0  0  0
    3.9201    8.3683   18.4299 C   0  0  0  0  0  0  0  0  0  0  0  0
    4.3962    8.4644   19.8282 C   0  0  0  0  0  0  0  0  0  0  0  0
    4.7629    9.5236   20.6187 C   0  0  0  0  0  0  0  0  0  0  0  0
    5.1207    9.1061   21.8457 N   0  0  0  0  0  0  0  0  0  0  0  0
    4.9858    7.7627   21.8520 C   0  0  0  0  0  0  0  0  0  0  0  0
    4.5518    7.3779   20.6441 N   0  0  0  0  0  0  0  0  0  0  0  0
    4.3664    6.3937   20.3823 H   0  0  0  0  0  0  0  0  0  0  0  0
    3.9352    6.7409    9.9079 C   0  0  0  0  0  0  0  0  0  0  0  0
    4.2288    5.6873    8.9527 C   0  0  0  0  0  0  0  0  0  0  0  0
    5.2911    4.8318    9.1839 C   0  0  0  0  0  0  0  0  0  0  0  0
    5.5747    3.8143    8.3010 C   0  0  0  0  0  0  0  0  0  0  0  0
    4.8085    3.6326    7.1774 C   0  0  0  0  0  0  0  0  0  0  0  0
    3.7479    4.4962    6.9579 C   0  0  0  0  0  0  0  0  0  0  0  0
    3.4574    5.5091    7.8275 C   0  0  0  0  0  0  0  0  0  0  0  0
 31 32  1  0  0  0
 32 33  2  0  0  0
 32 29  1  0  0  0
 29 28  1  0  0  0
 28 27  1  0  0  0
 27 26  1  0  0  0
 26  1  1  0  0  0
  1  2  1  0  0  0
  2  3  1  0  0  0
  3  4  2  0  0  0
  3  5  1  0  0  0
  5 37  1  0  0  0
 37 38  1  0  0  0
 38 39  2  0  0  0
 39 40  1  0  0  0
 40 41  2  0  0  0
 41 42  1  0  0  0
 41 43  1  0  0  0
 43 44  2  0  0  0
  5  6  1  0  0  0
  6  7  1  0  0  0
  7  8  2  0  0  0
  7  9  1  0  0  0
  9 46  1  0  0  0
 46 47  1  0  0  0
 47 48  2  0  0  0
 48 49  1  0  0  0
 49 50  2  0  0  0
 50 51  1  0  0  0
  9 10  1  0  0  0
 10 11  1  0  0  0
 11 12  2  0  0  0
 11 13  1  0  0  0
 13 14  1  0  0  0
 14 15  1  0  0  0
 15 16  2  0  0  0
 15 17  1  0  0  0
 17 53  1  0  0  0
 53 54  1  0  0  0
 54 55  2  0  0  0
 55 56  1  0  0  0
 56 57  2  0  0  0
 57 58  1  0  0  0
 58 59  2  0  0  0
 17 18  1  0  0  0
 18 19  1  0  0  0
 19 20  2  0  0  0
 19  1  1  0  0  0
 44 38  1  0  0  0
 51 47  1  0  0  0
 59 54  1  0  0  0
 31 34  1  0  0  0
 31 35  1  0  0  0
 33 36  1  0  0  0
 29 30  1  0  0  0
  2 21  1  0  0  0
 42 45  1  0  0  0
  6 22  1  0  0  0
 51 52  1  0  0  0
 10 23  1  0  0  0
 14 24  1  0  0  0
 18 25  1  0  0  0
M  END
> <minimizedAffinity>
-7.46156

> <CNNscore>
0.2987379432

> <CNNaffinity>
6.7098312378

> <CNN_VS>
2.0044810772

> <CNNaffinity_variance>
0.9905855060

$$$$
[H]N=C(N([H])[H])N([H])C([H])([H])C([H])([H])C([H])([H])[C@@]1([H])C(=O)N([H])[C@@]([H])(C([H])([H])c2c([H])c([H])c([H])c([H])c2[H])C(=O)N([H])C([H])([H])C(=O)N([H])[C@@]([H])(C([H])([H])c2c([H])nc([H])n2[H])C(=O)N([H])[C@]([H])(C([H])([H])c2c([H])c([H])c(O[H])c([H])c2[H])C(=O)N1[H]


 59 62  0  0  0  0  0  0  0  0999 V2000
    0.7434    4.5164    8.2537 C   0  0  0  0  0  0  0  0  0  0  0  0
    0.9854    5.5830    9.1804 N   0  0  0  0  0  0  0  0  0  0  0  0
    2.0448    6.1777    9.8437 C   0  0  0  0  0  0  0  0  0  0  0  0
    2.6071    5.4454   10.7667 O   0  0  0  0  0  0  0  0  0  0  0  0
    2.7505    7.4554    9.8175 C   0  0  0  0  0  0  0  0  0  0  0  0
    2.4057    8.3194   10.9613 N   0  0  0  0  0  0  0  0  0  0  0  0
    1.7263    8.1678   12.1431 C   0  0  0  0  0  0  0  0  0  0  0  0
    0.4749    8.5951   12.1703 O   0  0  0  0  0  0  0  0  0  0  0  0
    2.0370    7.6306   13.4698 C   0  0  0  0  0  0  0  0  0  0  0  0
    1.0601    6.7839   14.1028 N   0  0  0  0  0  0  0  0  0  0  0  0
   -0.1318    6.2056   13.7372 C   0  0  0  0  0  0  0  0  0  0  0  0
   -1.2027    6.7589   14.2212 O   0  0  0  0  0  0  0  0  0  0  0  0
   -0.4395    5.0391   12.8785 C   0  0  0  0  0  0  0  0  0  0  0  0
   -1.8442    5.0741   12.4461 N   0  0  0  0  0  0  0  0  0  0  0  0
   -2.3231    5.0983   11.1418 C   0  0  0  0  0  0  0  0  0  0  0  0
   -3.1275    6.0761   10.8699 O   0  0  0  0  0  0  0  0  0  0  0  0
   -2.0788    4.2105   10.0090 C   0  0  0  0  0  0  0  0  0  0  0  0
   -0.8472    3.4579   10.0133 N   0  0  0  0  0  0  0  0  0  0  0  0
    0.0953    3.3408    8.9719 C   0  0  0  0  0  0  0  0  0  0  0  0
    0.4858    2.2240    8.5438 O   0  0  0  0  0  0  0  0  0  0  0  0
   -0.0162    5.9818    9.4217 H   0  0  0  0  0  0  0  0  0  0  0  0
    2.7861    9.3179   10.7794 H   0  0  0  0  0  0  0  0  0  0  0  0
    1.3754    6.5855   15.1426 H   0  0  0  0  0  0  0  0  0  0  0  0
   -2.5251    5.0823   13.2504 H   0  0  0  0  0  0  0  0  0  0  0  0
   -0.6532    2.9276   10.9014 H   0  0  0  0  0  0  0  0  0  0  0  0
    1.7972    4.0937    7.3245 C   0  0  0  0  0  0  0  0  0  0  0  0
    1.6097    4.3516    5.8756 C   0  0  0  0  0  0  0  0  0  0  0  0
    2.4084    5.5844    5.4146 C   0  0  0  0  0  0  0  0  0  0  0  0
    1.6007    6.4646    4.6346 N   0  0  0  0  0  0  0  0  0  0  0  0
    0.5676    6.4504    4.7318 H   0  0  0  0  0  0  0  0  0  0  0  0
    3.1804    8.3196    4.1645 N   0  0  0  0  0  0  0  0  0  0  0  0
    2.2240    7.3570    3.7268 C   0  0  0  0  0  0  0  0  0  0  0  0
    1.9116    7.2845    2.4825 N   0  0  0  0  0  0  0  0  0  0  0  0
    3.1701    8.6336    5.1540 H   0  0  0  0  0  0  0  0  0  0  0  0
    3.8830    8.7113    3.5172 H   0  0  0  0  0  0  0  0  0  0  0  0
    2.3505    7.9237    1.7886 H   0  0  0  0  0  0  0  0  0  0  0  0
    2.7212    8.2495    8.5523 C   0  0  0  0  0  0  0  0  0  0  0  0
    3.9319    8.4436    7.7939 C   0  0  0  0  0  0  0  0  0  0  0  0
    4.7664    7.3847    7.4326 C   0  0  0  0  0  0  0  0  0  0  0  0
    5.8994    7.5335    6.6790 C   0  0  0  0  0  0  0  0  0  0  0  0
    6.2729    8.7616    6.2354 C   0  0  0  0  0  0  0  0  0  0  0  0
    7.4316    8.8948    5.4680 O   0  0  0  0  0  0  0  0  0  0  0  0
    5.4809    9.8374    6.5668 C   0  0  0  0  0  0  0  0  0  0  0  0
    4.3319    9.6683    7.3336 C   0  0  0  0  0  0  0  0  0  0  0  0
    7.7686    9.7615    5.1062 H   0  0  0  0  0  0  0  0  0  0  0  0
    3.4487    7.2415   13.7675 C   0  0  0  0  0  0  0  0  0  0  0  0
    3.6271    5.8673   14.2878 C   0  0  0  0  0  0  0  0  0  0  0  0
    3.7507    5.3578   15.5552 C   0  0  0  0  0  0  0  0  0  0  0  0
    3.8848    4.0203   15.5243 N   0  0  0  0  0  0  0  0  0  0  0  0
    3.8486    3.6576   14.2243 C   0  0  0  0  0  0  0  0  0  0  0  0
    3.6942    4.7633   13.4833 N   0  0  0  0  0  0  0  0  0  0  0  0
    3.6365    4.7639   12.4498 H   0  0  0  0  0  0  0  0  0  0  0  0
   -3.2041    3.1744    9.9632 C   0  0  0  0  0  0  0  0  0  0  0  0
   -3.1582    2.2690    8.8288 C   0  0  0  0  0  0  0  0  0  0  0  0
   -3.0473    0.9072    9.0454 C   0  0  0  0  0  0  0  0  0  0  0  0
   -3.0217    0.0300    7.9847 C   0  0  0  0  0  0  0  0  0  0  0  0
   -3.1055    0.4925    6.6956 C   0  0  0  0  0  0  0  0  0  0  0  0
   -3.2161    1.8583    6.4928 C   0  0  0  0  0  0  0  0  0  0  0  0
   -3.2427    2.7376    7.5380 C   0  0  0  0  0  0  0  0  0  0  0  0
 31 32  1  0  0  0
 32 33  2  0  0  0
 32 29  1  0  0  0
 29 28  1  0  0  0
 28 27  1  0  0  0
 27 26  1  0  0  0
 26  1  1  0  0  0
  1  2  1  0  0  0
  2  3  1  0  0  0
  3  4  2  0  0  0
  3  5  1  0  0  0
  5 37  1  0  0  0
 37 38  1  0  0  0
 38 39  2  0  0  0
 39 40  1  0  0  0
 40 41  2  0  0  0
 41 42  1  0  0  0
 41 43  1  0  0  0
 43 44  2  0  0  0
  5  6  1  0  0  0
  6  7  1  0  0  0
  7  8  2  0  0  0
  7  9  1  0  0  0
  9 46  1  0  0  0
 46 47  1  0  0  0
 47 48  2  0  0  0
 48 49  1  0  0  0
 49 50  2  0  0  0
 50 51  1  0  0  0
  9 10  1  0  0  0
 10 11  1  0  0  0
 11 12  2  0  0  0
 11 13  1  0  0  0
 13 14  1  0  0  0
 14 15  1  0  0  0
 15 16  2  0  0  0
 15 17  1  0  0  0
 17 53  1  0  0  0
 53 54  1  0  0  0
 54 55  2  0  0  0
 55 56  1  0  0  0
 56 57  2  0  0  0
 57 58  1  0  0  0
 58 59  2  0  0  0
 17 18  1  0  0  0
 18 19  1  0  0  0
 19 20  2  0  0  0
 19  1  1  0  0  0
 44 38  1  0  0  0
 51 47  1  0  0  0
 59 54  1  0  0  0
 31 34  1  0  0  0
 31 35  1  0  0  0
 33 36  1  0  0  0
 29 30  1  0  0  0
  2 21  1  0  0  0
 42 45  1  0  0  0
  6 22  1  0  0  0
 51 52  1  0  0  0
 10 23  1  0  0  0
 14 24  1  0  0  0
 18 25  1  0  0  0
M  END
> <minimizedAffinity>
-6.08962

> <CNNscore>
0.2862601280

> <CNNaffinity>
5.8467235565

> <CNN_VS>
1.6736838818

> <CNNaffinity_variance>
1.1783133745

$$$$
[H]N=C(N([H])[H])N([H])C([H])([H])C([H])([H])C([H])([H])[C@@]1([H])C(=O)N([H])[C@@]([H])(C([H])([H])c2c([H])c([H])c([H])c([H])c2[H])C(=O)N([H])C([H])([H])C(=O)N([H])[C@@]([H])(C([H])([H])c2c([H])nc([H])n2[H])C(=O)N([H])[C@]([H])(C([H])([H])c2c([H])c([H])c(O[H])c([H])c2[H])C(=O)N1[H]


 59 62  0  0  0  0  0  0  0  0999 V2000
    1.4145    3.4704    9.0024 C   0  0  0  0  0  0  0  0  0  0  0  0
    1.5383    4.6844    9.7547 N   0  0  0  0  0  0  0  0  0  0  0  0
    2.4401    5.3095   10.5985 C   0  0  0  0  0  0  0  0  0  0  0  0
    2.5973    4.7441   11.7647 O   0  0  0  0  0  0  0  0  0  0  0  0
    3.3076    6.4833   10.5678 C   0  0  0  0  0  0  0  0  0  0  0  0
    2.7835    7.5993   11.3760 N   0  0  0  0  0  0  0  0  0  0  0  0
    1.7791    7.7658   12.2951 C   0  0  0  0  0  0  0  0  0  0  0  0
    0.6517    8.2999   11.8558 O   0  0  0  0  0  0  0  0  0  0  0  0
    1.6118    7.4992   13.7256 C   0  0  0  0  0  0  0  0  0  0  0  0
    0.3787    6.8990   14.1624 N   0  0  0  0  0  0  0  0  0  0  0  0
   -0.7312    6.3654   13.5524 C   0  0  0  0  0  0  0  0  0  0  0  0
   -1.7999    7.1035   13.5735 O   0  0  0  0  0  0  0  0  0  0  0  0
   -0.9517    5.0747   12.8609 C   0  0  0  0  0  0  0  0  0  0  0  0
   -2.1516    5.1426   12.0139 N   0  0  0  0  0  0  0  0  0  0  0  0
   -2.2271    4.9301   10.6427 C   0  0  0  0  0  0  0  0  0  0  0  0
   -2.7630    5.8953    9.9659 O   0  0  0  0  0  0  0  0  0  0  0  0
   -1.8049    3.8022    9.8177 C   0  0  0  0  0  0  0  0  0  0  0  0
   -0.7541    2.9603   10.3377 N   0  0  0  0  0  0  0  0  0  0  0  0
    0.4185    2.5389    9.6791 C   0  0  0  0  0  0  0  0  0  0  0  0
    0.7425    1.3258    9.5982 O   0  0  0  0  0  0  0  0  0  0  0  0
    0.5816    5.2140    9.5980 H   0  0  0  0  0  0  0  0  0  0  0  0
    3.3459    8.4975   11.1482 H   0  0  0  0  0  0  0  0  0  0  0  0
    0.3491    6.9001   15.2666 H   0  0  0  0  0  0  0  0  0  0  0  0
   -3.0252    5.3838   12.5517 H   0  0  0  0  0  0  0  0  0  0  0  0
   -0.9050    2.6171   11.3212 H   0  0  0  0  0  0  0  0  0  0  0  0
    2.6144    2.7657    8.5371 C   0  0  0  0  0  0  0  0  0  0  0  0
    3.7908    2.6982    9.4385 C   0  0  0  0  0  0  0  0  0  0  0  0
    4.1939    1.2414    9.7308 C   0  0  0  0  0  0  0  0  0  0  0  0
    4.0355    0.4171    8.5771 N   0  0  0  0  0  0  0  0  0  0  0  0
    4.2027    0.8061    7.6296 H   0  0  0  0  0  0  0  0  0  0  0  0
    4.5983   -1.9975    8.6789 N   0  0  0  0  0  0  0  0  0  0  0  0
    3.6477   -0.9365    8.7392 C   0  0  0  0  0  0  0  0  0  0  0  0
    2.4070   -1.1991    8.9464 N   0  0  0  0  0  0  0  0  0  0  0  0
    5.4905   -1.8528    8.1683 H   0  0  0  0  0  0  0  0  0  0  0  0
    4.4172   -2.9071    9.1325 H   0  0  0  0  0  0  0  0  0  0  0  0
    2.0877   -2.1815    9.0706 H   0  0  0  0  0  0  0  0  0  0  0  0
    3.7621    6.9876    9.2369 C   0  0  0  0  0  0  0  0  0  0  0  0
    4.6046    6.1666    8.4034 C   0  0  0  0  0  0  0  0  0  0  0  0
    4.2217    5.7575    7.1251 C   0  0  0  0  0  0  0  0  0  0  0  0
    5.0164    5.0127    6.2960 C   0  0  0  0  0  0  0  0  0  0  0  0
    6.2552    4.6263    6.6966 C   0  0  0  0  0  0  0  0  0  0  0  0
    7.0522    3.8668    5.8379 O   0  0  0  0  0  0  0  0  0  0  0  0
    6.6772    5.0060    7.9505 C   0  0  0  0  0  0  0  0  0  0  0  0
    5.8565    5.7636    8.7806 C   0  0  0  0  0  0  0  0  0  0  0  0
    7.9710    3.5477    6.0605 H   0  0  0  0  0  0  0  0  0  0  0  0
    2.8037    7.0576   14.5114 C   0  0  0  0  0  0  0  0  0  0  0  0
    3.7225    8.1418   14.9252 C   0  0  0  0  0  0  0  0  0  0  0  0
    4.9028    8.6128   14.4094 C   0  0  0  0  0  0  0  0  0  0  0  0
    5.3708    9.6396   15.1405 N   0  0  0  0  0  0  0  0  0  0  0  0
    4.4862    9.8372   16.1411 C   0  0  0  0  0  0  0  0  0  0  0  0
    3.4987    8.9406   16.0127 N   0  0  0  0  0  0  0  0  0  0  0  0
    2.6894    8.8752   16.6546 H   0  0  0  0  0  0  0  0  0  0  0  0
   -3.0123    2.8858    9.6079 C   0  0  0  0  0  0  0  0  0  0  0  0
   -2.8019    1.7999    8.6671 C   0  0  0  0  0  0  0  0  0  0  0  0
   -2.5208    2.0873    7.3434 C   0  0  0  0  0  0  0  0  0  0  0  0
   -2.2988    1.0731    6.4393 C   0  0  0  0  0  0  0  0  0  0  0  0
   -2.3532   -0.2391    6.8366 C   0  0  0  0  0  0  0  0  0  0  0  0
   -2.6357   -0.5129    8.1647 C   0  0  0  0  0  0  0  0  0  0  0  0
   -2.8574    0.4856    9.0704 C   0  0  0  0  0  0  0  0  0  0  0  0
 31 32  1  0  0  0
 32 33  2  0  0  0
 32 29  1  0  0  0
 29 28  1  0  0  0
 28 27  1  0  0  0
 27 26  1  0  0  0
 26  1  1  0  0  0
  1  2  1  0  0  0
  2  3  1  0  0  0
  3  4  2  0  0  0
  3  5  1  0  0  0
  5 37  1  0  0  0
 37 38  1  0  0  0
 38 39  2  0  0  0
 39 40  1  0  0  0
 40 41  2  0  0  0
 41 42  1  0  0  0
 41 43  1  0  0  0
 43 44  2  0  0  0
  5  6  1  0  0  0
  6  7  1  0  0  0
  7  8  2  0  0  0
  7  9  1  0  0  0
  9 46  1  0  0  0
 46 47  1  0  0  0
 47 48  2  0  0  0
 48 49  1  0  0  0
 49 50  2  0  0  0
 50 51  1  0  0  0
  9 10  1  0  0  0
 10 11  1  0  0  0
 11 12  2  0  0  0
 11 13  1  0  0  0
 13 14  1  0  0  0
 14 15  1  0  0  0
 15 16  2  0  0  0
 15 17  1  0  0  0
 17 53  1  0  0  0
 53 54  1  0  0  0
 54 55  2  0  0  0
 55 56  1  0  0  0
 56 57  2  0  0  0
 57 58  1  0  0  0
 58 59  2  0  0  0
 17 18  1  0  0  0
 18 19  1  0  0  0
 19 20  2  0  0  0
 19  1  1  0  0  0
 44 38  1  0  0  0
 51 47  1  0  0  0
 59 54  1  0  0  0
 31 34  1  0  0  0
 31 35  1  0  0  0
 33 36  1  0  0  0
 29 30  1  0  0  0
  2 21  1  0  0  0
 42 45  1  0  0  0
  6 22  1  0  0  0
 51 52  1  0  0  0
 10 23  1  0  0  0
 14 24  1  0  0  0
 18 25  1  0  0  0
M  END
> <minimizedAffinity>
-6.01822

> <CNNscore>
0.2833738625

> <CNNaffinity>
6.1511454582

> <CNN_VS>
1.7430738211

> <CNNaffinity_variance>
1.3201485872

$$$$
[H]N=C(N([H])[H])N([H])C([H])([H])C([H])([H])C([H])([H])[C@@]1([H])C(=O)N([H])[C@@]([H])(C([H])([H])c2c([H])c([H])c([H])c([H])c2[H])C(=O)N([H])C([H])([H])C(=O)N([H])[C@@]([H])(C([H])([H])c2c([H])nc([H])n2[H])C(=O)N([H])[C@]([H])(C([H])([H])c2c([H])c([H])c(O[H])c([H])c2[H])C(=O)N1[H]


 59 62  0  0  0  0  0  0  0  0999 V2000
    4.1232    8.4886   14.1881 C   0  0  0  0  0  0  0  0  0  0  0  0
    3.7255    7.5163   15.1636 N   0  0  0  0  0  0  0  0  0  0  0  0
    4.2813    6.7656   16.1850 C   0  0  0  0  0  0  0  0  0  0  0  0
    5.1068    5.8289   15.8036 O   0  0  0  0  0  0  0  0  0  0  0  0
    4.2047    6.7060   17.6417 C   0  0  0  0  0  0  0  0  0  0  0  0
    3.4078    5.5629   18.1232 N   0  0  0  0  0  0  0  0  0  0  0  0
    2.8629    4.4348   17.5651 C   0  0  0  0  0  0  0  0  0  0  0  0
    1.5750    4.4795   17.2673 O   0  0  0  0  0  0  0  0  0  0  0  0
    3.3551    3.1066   17.1920 C   0  0  0  0  0  0  0  0  0  0  0  0
    2.9485    2.5666   15.9213 N   0  0  0  0  0  0  0  0  0  0  0  0
    2.2594    3.0291   14.8258 C   0  0  0  0  0  0  0  0  0  0  0  0
    1.0388    2.6023   14.7020 O   0  0  0  0  0  0  0  0  0  0  0  0
    2.6514    3.9408   13.7269 C   0  0  0  0  0  0  0  0  0  0  0  0
    1.4601    4.4661   13.0437 N   0  0  0  0  0  0  0  0  0  0  0  0
    1.0958    5.7984   12.8918 C   0  0  0  0  0  0  0  0  0  0  0  0
   -0.0919    6.0948   13.3143 O   0  0  0  0  0  0  0  0  0  0  0  0
    1.8196    6.9380   12.3364 C   0  0  0  0  0  0  0  0  0  0  0  0
    3.2615    6.8729   12.3460 N   0  0  0  0  0  0  0  0  0  0  0  0
    4.1657    7.8512   12.8062 C   0  0  0  0  0  0  0  0  0  0  0  0
    5.1053    8.2849   12.0906 O   0  0  0  0  0  0  0  0  0  0  0  0
    2.6556    7.3315   14.9600 H   0  0  0  0  0  0  0  0  0  0  0  0
    3.2097    5.6889   19.1814 H   0  0  0  0  0  0  0  0  0  0  0  0
    3.2774    1.5142   15.8555 H   0  0  0  0  0  0  0  0  0  0  0  0
    0.8451    3.7097   12.6433 H   0  0  0  0  0  0  0  0  0  0  0  0
    3.6695    5.9898   11.9442 H   0  0  0  0  0  0  0  0  0  0  0  0
    5.2788    9.3566   14.4409 C   0  0  0  0  0  0  0  0  0  0  0  0
    6.4997    8.7567   15.0330 C   0  0  0  0  0  0  0  0  0  0  0  0
    7.7407    9.0316   14.1644 C   0  0  0  0  0  0  0  0  0  0  0  0
    7.7492    8.2123   12.9965 N   0  0  0  0  0  0  0  0  0  0  0  0
    6.8585    7.8527   12.6035 H   0  0  0  0  0  0  0  0  0  0  0  0
    9.0935    6.8468   11.4198 N   0  0  0  0  0  0  0  0  0  0  0  0
    8.9855    7.8953   12.3800 C   0  0  0  0  0  0  0  0  0  0  0  0
   10.0252    8.5782   12.7024 N   0  0  0  0  0  0  0  0  0  0  0  0
    8.3930    6.0807   11.4221 H   0  0  0  0  0  0  0  0  0  0  0  0
    9.8546    6.8339   10.7222 H   0  0  0  0  0  0  0  0  0  0  0  0
   10.9484    8.3729   12.2688 H   0  0  0  0  0  0  0  0  0  0  0  0
    3.8126    7.9461   18.3769 C   0  0  0  0  0  0  0  0  0  0  0  0
    4.4282    8.2601   19.6422 C   0  0  0  0  0  0  0  0  0  0  0  0
    4.9016    7.2739   20.5092 C   0  0  0  0  0  0  0  0  0  0  0  0
    5.5264    7.5430   21.6970 C   0  0  0  0  0  0  0  0  0  0  0  0
    5.7189    8.8267   22.0964 C   0  0  0  0  0  0  0  0  0  0  0  0
    6.3581    9.0826   23.3111 O   0  0  0  0  0  0  0  0  0  0  0  0
    5.2686    9.8344   21.2741 C   0  0  0  0  0  0  0  0  0  0  0  0
    4.6355    9.5431   20.0695 C   0  0  0  0  0  0  0  0  0  0  0  0
    6.5360    9.9965   23.6700 H   0  0  0  0  0  0  0  0  0  0  0  0
    4.7451    2.7260   17.5869 C   0  0  0  0  0  0  0  0  0  0  0  0
    4.9353    2.4414   19.0270 C   0  0  0  0  0  0  0  0  0  0  0  0
    4.7921    1.3045   19.7808 C   0  0  0  0  0  0  0  0  0  0  0  0
    5.0942    1.5412   21.0694 N   0  0  0  0  0  0  0  0  0  0  0  0
    5.4363    2.8445   21.1536 C   0  0  0  0  0  0  0  0  0  0  0  0
    5.3415    3.3842   19.9308 N   0  0  0  0  0  0  0  0  0  0  0  0
    5.5492    4.3757   19.7181 H   0  0  0  0  0  0  0  0  0  0  0  0
    1.4158    7.0906   10.8683 C   0  0  0  0  0  0  0  0  0  0  0  0
    2.4264    6.6825    9.9086 C   0  0  0  0  0  0  0  0  0  0  0  0
    3.1314    7.6446    9.2078 C   0  0  0  0  0  0  0  0  0  0  0  0
    4.1071    7.2797    8.3077 C   0  0  0  0  0  0  0  0  0  0  0  0
    4.3956    5.9559    8.0911 C   0  0  0  0  0  0  0  0  0  0  0  0
    3.6824    5.0029    8.7994 C   0  0  0  0  0  0  0  0  0  0  0  0
    2.7123    5.3537    9.6951 C   0  0  0  0  0  0  0  0  0  0  0  0
 31 32  1  0  0  0
 32 33  2  0  0  0
 32 29  1  0  0  0
 29 28  1  0  0  0
 28 27  1  0  0  0
 27 26  1  0  0  0
 26  1  1  0  0  0
  1  2  1  0  0  0
  2  3  1  0  0  0
  3  4  2  0  0  0
  3  5  1  0  0  0
  5 37  1  0  0  0
 37 38  1  0  0  0
 38 39  2  0  0  0
 39 40  1  0  0  0
 40 41  2  0  0  0
 41 42  1  0  0  0
 41 43  1  0  0  0
 43 44  2  0  0  0
  5  6  1  0  0  0
  6  7  1  0  0  0
  7  8  2  0  0  0
  7  9  1  0  0  0
  9 46  1  0  0  0
 46 47  1  0  0  0
 47 48  2  0  0  0
 48 49  1  0  0  0
 49 50  2  0  0  0
 50 51  1  0  0  0
  9 10  1  0  0  0
 10 11  1  0  0  0
 11 12  2  0  0  0
 11 13  1  0  0  0
 13 14  1  0  0  0
 14 15  1  0  0  0
 15 16  2  0  0  0
 15 17  1  0  0  0
 17 53  1  0  0  0
 53 54  1  0  0  0
 54 55  2  0  0  0
 55 56  1  0  0  0
 56 57  2  0  0  0
 57 58  1  0  0  0
 58 59  2  0  0  0
 17 18  1  0  0  0
 18 19  1  0  0  0
 19 20  2  0  0  0
 19  1  1  0  0  0
 44 38  1  0  0  0
 51 47  1  0  0  0
 59 54  1  0  0  0
 31 34  1  0  0  0
 31 35  1  0  0  0
 33 36  1  0  0  0
 29 30  1  0  0  0
  2 21  1  0  0  0
 42 45  1  0  0  0
  6 22  1  0  0  0
 51 52  1  0  0  0
 10 23  1  0  0  0
 14 24  1  0  0  0
 18 25  1  0  0  0
M  END
> <minimizedAffinity>
-7.71894

> <CNNscore>
0.2678588331

> <CNNaffinity>
6.3639955521

> <CNN_VS>
1.7046524286

> <CNNaffinity_variance>
0.8983142972

$$$$
[H]N=C(N([H])[H])N([H])C([H])([H])C([H])([H])C([H])([H])[C@@]1([H])C(=O)N([H])[C@@]([H])(C([H])([H])c2c([H])c([H])c([H])c([H])c2[H])C(=O)N([H])C([H])([H])C(=O)N([H])[C@@]([H])(C([H])([H])c2c([H])nc([H])n2[H])C(=O)N([H])[C@]([H])(C([H])([H])c2c([H])c([H])c(O[H])c([H])c2[H])C(=O)N1[H]


 59 62  0  0  0  0  0  0  0  0999 V2000
    4.1538    5.1641   16.6007 C   0  0  0  0  0  0  0  0  0  0  0  0
    3.5726    4.8831   15.3207 N   0  0  0  0  0  0  0  0  0  0  0  0
    3.6486    3.9305   14.3193 C   0  0  0  0  0  0  0  0  0  0  0  0
    4.7693    3.9127   13.6500 O   0  0  0  0  0  0  0  0  0  0  0  0
    2.7937    2.8893   13.7568 C   0  0  0  0  0  0  0  0  0  0  0  0
    2.2239    3.2653   12.4502 N   0  0  0  0  0  0  0  0  0  0  0  0
    2.4262    4.2687   11.5371 C   0  0  0  0  0  0  0  0  0  0  0  0
    1.5733    5.2792   11.5633 O   0  0  0  0  0  0  0  0  0  0  0  0
    3.3918    4.5352   10.4685 C   0  0  0  0  0  0  0  0  0  0  0  0
    3.9340    5.8643   10.3625 N   0  0  0  0  0  0  0  0  0  0  0  0
    3.8761    7.0177   11.1075 C   0  0  0  0  0  0  0  0  0  0  0  0
    3.1113    7.9575   10.6394 O   0  0  0  0  0  0  0  0  0  0  0  0
    4.5386    7.4087   12.3728 C   0  0  0  0  0  0  0  0  0  0  0  0
    3.8410    8.5467   12.9892 N   0  0  0  0  0  0  0  0  0  0  0  0
    3.2666    8.5972   14.2535 C   0  0  0  0  0  0  0  0  0  0  0  0
    2.0199    8.9466   14.2770 O   0  0  0  0  0  0  0  0  0  0  0  0
    3.8215    8.3230   15.5756 C   0  0  0  0  0  0  0  0  0  0  0  0
    4.9610    7.4397   15.6434 N   0  0  0  0  0  0  0  0  0  0  0  0
    5.1362    6.3212   16.4827 C   0  0  0  0  0  0  0  0  0  0  0  0
    6.1473    6.1880   17.2197 O   0  0  0  0  0  0  0  0  0  0  0  0
    2.9020    5.7376   15.1199 H   0  0  0  0  0  0  0  0  0  0  0  0
    1.4440    2.5602   12.1867 H   0  0  0  0  0  0  0  0  0  0  0  0
    4.5234    5.9394    9.4313 H   0  0  0  0  0  0  0  0  0  0  0  0
    3.7961    9.3933   12.3632 H   0  0  0  0  0  0  0  0  0  0  0  0
    5.7518    7.6834   14.9930 H   0  0  0  0  0  0  0  0  0  0  0  0
    4.6719    4.0712   17.4312 C   0  0  0  0  0  0  0  0  0  0  0  0
    4.0425    3.8250   18.7519 C   0  0  0  0  0  0  0  0  0  0  0  0
    3.6546    5.1433   19.4458 C   0  0  0  0  0  0  0  0  0  0  0  0
    4.7759    5.7358   20.0994 N   0  0  0  0  0  0  0  0  0  0  0  0
    5.6225    5.9916   19.5564 H   0  0  0  0  0  0  0  0  0  0  0  0
    5.8604    6.4262   22.2218 N   0  0  0  0  0  0  0  0  0  0  0  0
    4.7208    5.9705   21.4961 C   0  0  0  0  0  0  0  0  0  0  0  0
    3.6107    5.7652   22.1098 N   0  0  0  0  0  0  0  0  0  0  0  0
    6.8100    6.2482   21.8420 H   0  0  0  0  0  0  0  0  0  0  0  0
    5.7605    6.9294   23.1178 H   0  0  0  0  0  0  0  0  0  0  0  0
    3.5347    5.9282   23.1347 H   0  0  0  0  0  0  0  0  0  0  0  0
    1.7292    2.3063   14.6281 C   0  0  0  0  0  0  0  0  0  0  0  0
    2.0905    1.5520   15.8024 C   0  0  0  0  0  0  0  0  0  0  0  0
    1.2386    1.4232   16.9005 C   0  0  0  0  0  0  0  0  0  0  0  0
    1.5376    0.6808   18.0109 C   0  0  0  0  0  0  0  0  0  0  0  0
    2.7182    0.0146   18.0942 C   0  0  0  0  0  0  0  0  0  0  0  0
    3.0066   -0.7378   19.2344 O   0  0  0  0  0  0  0  0  0  0  0  0
    3.5918    0.1118   17.0351 C   0  0  0  0  0  0  0  0  0  0  0  0
    3.2718    0.8708   15.9134 C   0  0  0  0  0  0  0  0  0  0  0  0
    3.8500   -1.2541   19.3676 H   0  0  0  0  0  0  0  0  0  0  0  0
    4.3648    3.4611   10.1044 C   0  0  0  0  0  0  0  0  0  0  0  0
    5.2713    3.7870    8.9805 C   0  0  0  0  0  0  0  0  0  0  0  0
    6.6273    3.9768    8.8999 C   0  0  0  0  0  0  0  0  0  0  0  0
    7.0001    4.2487    7.6370 N   0  0  0  0  0  0  0  0  0  0  0  0
    5.8754    4.2359    6.8902 C   0  0  0  0  0  0  0  0  0  0  0  0
    4.8398    3.9593    7.6942 N   0  0  0  0  0  0  0  0  0  0  0  0
    3.8588    3.8904    7.3713 H   0  0  0  0  0  0  0  0  0  0  0  0
    4.2812    9.6492   16.1850 C   0  0  0  0  0  0  0  0  0  0  0  0
    4.6596    9.5823   17.5853 C   0  0  0  0  0  0  0  0  0  0  0  0
    5.9720    9.8224   17.9509 C   0  0  0  0  0  0  0  0  0  0  0  0
    6.3477    9.7831   19.2748 C   0  0  0  0  0  0  0  0  0  0  0  0
    5.4265    9.5048   20.2528 C   0  0  0  0  0  0  0  0  0  0  0  0
    4.1159    9.2663   19.8731 C   0  0  0  0  0  0  0  0  0  0  0  0
    3.7320    9.3030   18.5624 C   0  0  0  0  0  0  0  0  0  0  0  0
 31 32  1  0  0  0
 32 33  2  0  0  0
 32 29  1  0  0  0
 29 28  1  0  0  0
 28 27  1  0  0  0
 27 26  1  0  0  0
 26  1  1  0  0  0
  1  2  1  0  0  0
  2  3  1  0  0  0
  3  4  2  0  0  0
  3  5  1  0  0  0
  5 37  1  0  0  0
 37 38  1  0  0  0
 38 39  2  0  0  0
 39 40  1  0  0  0
 40 41  2  0  0  0
 41 42  1  0  0  0
 41 43  1  0  0  0
 43 44  2  0  0  0
  5  6  1  0  0  0
  6  7  1  0  0  0
  7  8  2  0  0  0
  7  9  1  0  0  0
  9 46  1  0  0  0
 46 47  1  0  0  0
 47 48  2  0  0  0
 48 49  1  0  0  0
 49 50  2  0  0  0
 50 51  1  0  0  0
  9 10  1  0  0  0
 10 11  1  0  0  0
 11 12  2  0  0  0
 11 13  1  0  0  0
 13 14  1  0  0  0
 14 15  1  0  0  0
 15 16  2  0  0  0
 15 17  1  0  0  0
 17 53  1  0  0  0
 53 54  1  0  0  0
 54 55  2  0  0  0
 55 56  1  0  0  0
 56 57  2  0  0  0
 57 58  1  0  0  0
 58 59  2  0  0  0
 17 18  1  0  0  0
 18 19  1  0  0  0
 19 20  2  0  0  0
 19  1  1  0  0  0
 44 38  1  0  0  0
 51 47  1  0  0  0
 59 54  1  0  0  0
 31 34  1  0  0  0
 31 35  1  0  0  0
 33 36  1  0  0  0
 29 30  1  0  0  0
  2 21  1  0  0  0
 42 45  1  0  0  0
  6 22  1  0  0  0
 51 52  1  0  0  0
 10 23  1  0  0  0
 14 24  1  0  0  0
 18 25  1  0  0  0
M  END
> <minimizedAffinity>
-7.00455

> <CNNscore>
0.2493710369

> <CNNaffinity>
6.5158605576

> <CNN_VS>
1.6248669624

> <CNNaffinity_variance>
0.4004536569

$$$$
[H]c1nc(N([H])c2c([H])c([H])c([N+](=O)[O-])c([H])c2OC([H])([H])[H])nc(N([H])c2c([H])c([H])c([H])c([H])c2S(=O)(=O)C([H])(C([H])([H])[H])C([H])([H])[H])c1Cl


 34 36  0  0  0  0  0  0  0  0999 V2000
    3.1764    1.1074   16.7869 C   0  0  0  0  0  0  0  0  0  0  0  0
    2.4332    0.1011   17.2234 N   0  0  0  0  0  0  0  0  0  0  0  0
    2.4153   -0.3323   18.4904 C   0  0  0  0  0  0  0  0  0  0  0  0
    3.2106    0.2927   19.4106 C   0  0  0  0  0  0  0  0  0  0  0  0
    3.1852   -0.2753   21.0640 Cl  0  0  0  0  0  0  0  0  0  0  0  0
    4.0185    1.3623   19.0103 C   0  0  0  0  0  0  0  0  0  0  0  0
    3.9561    1.7041   17.7379 N   0  0  0  0  0  0  0  0  0  0  0  0
    3.2306    1.6050   15.4527 N   0  0  0  0  0  0  0  0  0  0  0  0
    3.3920    0.8944   14.6713 H   0  0  0  0  0  0  0  0  0  0  0  0
    2.0416    3.2620   14.1977 C   0  0  0  0  0  0  0  0  0  0  0  0
    1.8211    4.5529   13.7714 C   0  0  0  0  0  0  0  0  0  0  0  0
    2.5985    5.6007   14.1725 C   0  0  0  0  0  0  0  0  0  0  0  0
    3.6231    5.3199   15.0282 C   0  0  0  0  0  0  0  0  0  0  0  0
    3.8513    4.0107   15.4641 C   0  0  0  0  0  0  0  0  0  0  0  0
    3.0904    2.9461   15.0792 C   0  0  0  0  0  0  0  0  0  0  0  0
    2.3085    6.8987   13.6904 N   0  0  0  0  0  0  0  0  0  0  0  0
    1.0684    7.4450   13.8580 O   0  0  0  0  0  0  0  0  0  0  0  0
    3.1741    7.5733   13.1030 O   0  0  0  0  0  0  0  0  0  0  0  0
    1.1883    1.8399   12.4192 C   0  0  0  0  0  0  0  0  0  0  0  0
    1.2295    2.2267   13.7670 O   0  0  0  0  0  0  0  0  0  0  0  0
    4.8345    1.9904   19.9808 N   0  0  0  0  0  0  0  0  0  0  0  0
    5.8826    1.9065   19.7694 H   0  0  0  0  0  0  0  0  0  0  0  0
    4.5019    2.6770   21.1415 C   0  0  0  0  0  0  0  0  0  0  0  0
    4.3988    2.0979   22.3793 C   0  0  0  0  0  0  0  0  0  0  0  0
    4.0723    2.8276   23.5390 C   0  0  0  0  0  0  0  0  0  0  0  0
    3.8436    4.1755   23.4513 C   0  0  0  0  0  0  0  0  0  0  0  0
    3.9416    4.7776   22.2174 C   0  0  0  0  0  0  0  0  0  0  0  0
    4.2619    4.0483   21.0924 C   0  0  0  0  0  0  0  0  0  0  0  0
    4.3552    4.8780   19.5884 S   0  0  0  0  0  0  0  0  0  0  0  0
    5.5627    4.5151   18.7741 O   0  0  0  0  0  0  0  0  0  0  0  0
    3.1423    4.6462   18.6996 O   0  0  0  0  0  0  0  0  0  0  0  0
    4.5312    6.6590   19.8352 C   0  0  0  0  0  0  0  0  0  0  0  0
    6.0522    6.8876   19.7632 C   0  0  0  0  0  0  0  0  0  0  0  0
    3.8694    7.4535   18.7677 C   0  0  0  0  0  0  0  0  0  0  0  0
 19 20  1  0  0  0
 20 10  1  0  0  0
 10 11  2  0  0  0
 11 12  1  0  0  0
 12 13  2  0  0  0
 13 14  1  0  0  0
 14 15  2  0  0  0
 15  8  1  0  0  0
  8  1  1  0  0  0
  1  2  2  0  0  0
  2  3  1  0  0  0
  3  4  2  0  0  0
  4  5  1  0  0  0
  4  6  1  0  0  0
  6 21  1  0  0  0
 21 23  1  0  0  0
 23 24  2  0  0  0
 24 25  1  0  0  0
 25 26  2  0  0  0
 26 27  1  0  0  0
 27 28  2  0  0  0
 28 29  1  0  0  0
 29 30  2  0  0  0
 29 31  2  0  0  0
 29 32  1  0  0  0
 32 33  1  0  0  0
 32 34  1  0  0  0
  6  7  2  0  0  0
 12 16  1  0  0  0
 16 17  1  0  0  0
 16 18  2  0  0  0
 15 10  1  0  0  0
  7  1  1  0  0  0
 28 23  1  0  0  0
  8  9  1  0  0  0
 21 22  1  0  0  0
M  CHG 1  16   1
M  CHG 1  17  -1
M  END
> <minimizedAffinity>
-8.34910

> <CNNscore>
0.8132787347

> <CNNaffinity>
7.4604096413

> <CNN_VS>
6.0673923492

> <CNNaffinity_variance>
0.2458370179

$$$$
[H]c1nc(N([H])c2c([H])c([H])c([N+](=O)[O-])c([H])c2OC([H])([H])[H])nc(N([H])c2c([H])c([H])c([H])c([H])c2S(=O)(=O)C([H])(C([H])([H])[H])C([H])([H])[H])c1Cl


 34 36  0  0  0  0  0  0  0  0999 V2000
    3.4457    2.0373   16.0026 C   0  0  0  0  0  0  0  0  0  0  0  0
    3.0614    0.7796   16.1632 N   0  0  0  0  0  0  0  0  0  0  0  0
    2.9841    0.1572   17.3465 C   0  0  0  0  0  0  0  0  0  0  0  0
    3.3202    0.8495   18.4769 C   0  0  0  0  0  0  0  0  0  0  0  0
    3.2184    0.0345   20.0203 Cl  0  0  0  0  0  0  0  0  0  0  0  0
    3.7341    2.1816   18.3719 C   0  0  0  0  0  0  0  0  0  0  0  0
    3.7727    2.6928   17.1566 N   0  0  0  0  0  0  0  0  0  0  0  0
    3.5443    2.7428   14.7683 N   0  0  0  0  0  0  0  0  0  0  0  0
    4.5210    2.8711   14.3545 H   0  0  0  0  0  0  0  0  0  0  0  0
    2.1653    4.6367   14.2727 C   0  0  0  0  0  0  0  0  0  0  0  0
    1.1267    5.2590   13.6162 C   0  0  0  0  0  0  0  0  0  0  0  0
    0.3322    4.6080   12.7172 C   0  0  0  0  0  0  0  0  0  0  0  0
    0.6078    3.2921   12.4860 C   0  0  0  0  0  0  0  0  0  0  0  0
    1.6613    2.6556   13.1500 C   0  0  0  0  0  0  0  0  0  0  0  0
    2.4699    3.2819   14.0523 C   0  0  0  0  0  0  0  0  0  0  0  0
   -0.7155    5.3164   12.0834 N   0  0  0  0  0  0  0  0  0  0  0  0
   -0.4640    6.4708   11.3991 O   0  0  0  0  0  0  0  0  0  0  0  0
   -1.8896    4.9060   12.1335 O   0  0  0  0  0  0  0  0  0  0  0  0
    3.6586    6.4820   14.8002 C   0  0  0  0  0  0  0  0  0  0  0  0
    2.9481    5.3330   15.1779 O   0  0  0  0  0  0  0  0  0  0  0  0
    4.0792    2.8752   19.5559 N   0  0  0  0  0  0  0  0  0  0  0  0
    4.2255    2.2268   20.3977 H   0  0  0  0  0  0  0  0  0  0  0  0
    4.2483    4.2324   19.7981 C   0  0  0  0  0  0  0  0  0  0  0  0
    3.6783    5.2280   19.0485 C   0  0  0  0  0  0  0  0  0  0  0  0
    3.8603    6.5959   19.3309 C   0  0  0  0  0  0  0  0  0  0  0  0
    4.6360    6.9723   20.3954 C   0  0  0  0  0  0  0  0  0  0  0  0
    5.2184    5.9884   21.1618 C   0  0  0  0  0  0  0  0  0  0  0  0
    5.0302    4.6541   20.8712 C   0  0  0  0  0  0  0  0  0  0  0  0
    5.8014    3.4896   21.8752 S   0  0  0  0  0  0  0  0  0  0  0  0
    6.0977    2.1942   21.1773 O   0  0  0  0  0  0  0  0  0  0  0  0
    7.1162    3.9809   22.4622 O   0  0  0  0  0  0  0  0  0  0  0  0
    4.7309    2.9970   23.2446 C   0  0  0  0  0  0  0  0  0  0  0  0
    3.7113    4.1468   23.3408 C   0  0  0  0  0  0  0  0  0  0  0  0
    4.0070    1.7268   22.9777 C   0  0  0  0  0  0  0  0  0  0  0  0
 19 20  1  0  0  0
 20 10  1  0  0  0
 10 11  2  0  0  0
 11 12  1  0  0  0
 12 13  2  0  0  0
 13 14  1  0  0  0
 14 15  2  0  0  0
 15  8  1  0  0  0
  8  1  1  0  0  0
  1  2  2  0  0  0
  2  3  1  0  0  0
  3  4  2  0  0  0
  4  5  1  0  0  0
  4  6  1  0  0  0
  6 21  1  0  0  0
 21 23  1  0  0  0
 23 24  2  0  0  0
 24 25  1  0  0  0
 25 26  2  0  0  0
 26 27  1  0  0  0
 27 28  2  0  0  0
 28 29  1  0  0  0
 29 30  2  0  0  0
 29 31  2  0  0  0
 29 32  1  0  0  0
 32 33  1  0  0  0
 32 34  1  0  0  0
  6  7  2  0  0  0
 12 16  1  0  0  0
 16 17  1  0  0  0
 16 18  2  0  0  0
 15 10  1  0  0  0
  7  1  1  0  0  0
 28 23  1  0  0  0
  8  9  1  0  0  0
 21 22  1  0  0  0
M  CHG 1  16   1
M  CHG 1  17  -1
M  END
> <minimizedAffinity>
-7.73743

> <CNNscore>
0.4200503528

> <CNNaffinity>
6.9220075607

> <CNN_VS>
2.9075918198

> <CNNaffinity_variance>
0.4047869742

$$$$
[H]c1nc(N([H])c2c([H])c([H])c([N+](=O)[O-])c([H])c2OC([H])([H])[H])nc(N([H])c2c([H])c([H])c([H])c([H])c2S(=O)(=O)C([H])(C([H])([H])[H])C([H])([H])[H])c1Cl


 34 36  0  0  0  0  0  0  0  0999 V2000
    4.5640    2.0869   19.6747 C   0  0  0  0  0  0  0  0  0  0  0  0
    3.9934    1.4959   20.7141 N   0  0  0  0  0  0  0  0  0  0  0  0
    3.8190    2.0721   21.9105 C   0  0  0  0  0  0  0  0  0  0  0  0
    4.2524    3.3564   22.0913 C   0  0  0  0  0  0  0  0  0  0  0  0
    4.0235    4.1061   23.6542 Cl  0  0  0  0  0  0  0  0  0  0  0  0
    4.8633    4.0336   21.0306 C   0  0  0  0  0  0  0  0  0  0  0  0
    4.9827    3.3688   19.8976 N   0  0  0  0  0  0  0  0  0  0  0  0
    4.7722    1.5181   18.3848 N   0  0  0  0  0  0  0  0  0  0  0  0
    5.5101    0.7499   18.3018 H   0  0  0  0  0  0  0  0  0  0  0  0
    3.1557    0.9636   16.7073 C   0  0  0  0  0  0  0  0  0  0  0  0
    2.4353    1.2283   15.5637 C   0  0  0  0  0  0  0  0  0  0  0  0
    2.5807    2.3868   14.8568 C   0  0  0  0  0  0  0  0  0  0  0  0
    3.4831    3.2931   15.3316 C   0  0  0  0  0  0  0  0  0  0  0  0
    4.2172    3.0292   16.4924 C   0  0  0  0  0  0  0  0  0  0  0  0
    4.0916    1.8806   17.2173 C   0  0  0  0  0  0  0  0  0  0  0  0
    1.8041    2.5854   13.6911 N   0  0  0  0  0  0  0  0  0  0  0  0
    1.7550    3.8076   13.0845 O   0  0  0  0  0  0  0  0  0  0  0  0
    1.1480    1.6534   13.1908 O   0  0  0  0  0  0  0  0  0  0  0  0
    1.9904   -0.3593   18.3823 C   0  0  0  0  0  0  0  0  0  0  0  0
    2.9784   -0.2245   17.3956 O   0  0  0  0  0  0  0  0  0  0  0  0
    5.3055    5.3606   21.2440 N   0  0  0  0  0  0  0  0  0  0  0  0
    4.5028    6.0702   21.2946 H   0  0  0  0  0  0  0  0  0  0  0  0
    6.5856    5.8802   21.3883 C   0  0  0  0  0  0  0  0  0  0  0  0
    7.5133    5.4123   22.2818 C   0  0  0  0  0  0  0  0  0  0  0  0
    8.8085    5.9548   22.3923 C   0  0  0  0  0  0  0  0  0  0  0  0
    9.1803    6.9953   21.5824 C   0  0  0  0  0  0  0  0  0  0  0  0
    8.2639    7.4810   20.6776 C   0  0  0  0  0  0  0  0  0  0  0  0
    7.0002    6.9386   20.5829 C   0  0  0  0  0  0  0  0  0  0  0  0
    5.9140    7.6112   19.4309 S   0  0  0  0  0  0  0  0  0  0  0  0
    6.5471    8.6309   18.5298 O   0  0  0  0  0  0  0  0  0  0  0  0
    5.2750    6.5663   18.5282 O   0  0  0  0  0  0  0  0  0  0  0  0
    4.5876    8.5300   20.2433 C   0  0  0  0  0  0  0  0  0  0  0  0
    5.3240    9.3737   21.3001 C   0  0  0  0  0  0  0  0  0  0  0  0
    3.8664    9.4377   19.3133 C   0  0  0  0  0  0  0  0  0  0  0  0
 19 20  1  0  0  0
 20 10  1  0  0  0
 10 11  2  0  0  0
 11 12  1  0  0  0
 12 13  2  0  0  0
 13 14  1  0  0  0
 14 15  2  0  0  0
 15  8  1  0  0  0
  8  1  1  0  0  0
  1  2  2  0  0  0
  2  3  1  0  0  0
  3  4  2  0  0  0
  4  5  1  0  0  0
  4  6  1  0  0  0
  6 21  1  0  0  0
 21 23  1  0  0  0
 23 24  2  0  0  0
 24 25  1  0  0  0
 25 26  2  0  0  0
 26 27  1  0  0  0
 27 28  2  0  0  0
 28 29  1  0  0  0
 29 30  2  0  0  0
 29 31  2  0  0  0
 29 32  1  0  0  0
 32 33  1  0  0  0
 32 34  1  0  0  0
  6  7  2  0  0  0
 12 16  1  0  0  0
 16 17  1  0  0  0
 16 18  2  0  0  0
 15 10  1  0  0  0
  7  1  1  0  0  0
 28 23  1  0  0  0
  8  9  1  0  0  0
 21 22  1  0  0  0
M  CHG 1  16   1
M  CHG 1  17  -1
M  END
> <minimizedAffinity>
-8.46359

> <CNNscore>
0.3155348599

> <CNNaffinity>
6.6404352188

> <CNN_VS>
2.0952887535

> <CNNaffinity_variance>
0.2760108113

$$$$
[H]c1nc(N([H])c2c([H])c([H])c([N+](=O)[O-])c([H])c2OC([H])([H])[H])nc(N([H])c2c([H])c([H])c([H])c([H])c2S(=O)(=O)C([H])(C([H])([H])[H])C([H])([H])[H])c1Cl


 34 36  0  0  0  0  0  0  0  0999 V2000
    4.5411    7.4256   19.7822 C   0  0  0  0  0  0  0  0  0  0  0  0
    4.4262    8.2532   18.7540 N   0  0  0  0  0  0  0  0  0  0  0  0
    5.3179    9.2031   18.4440 C   0  0  0  0  0  0  0  0  0  0  0  0
    6.4284    9.3443   19.2294 C   0  0  0  0  0  0  0  0  0  0  0  0
    7.5908   10.5852   18.8224 Cl  0  0  0  0  0  0  0  0  0  0  0  0
    6.6060    8.4996   20.3303 C   0  0  0  0  0  0  0  0  0  0  0  0
    5.6644    7.6002   20.5411 N   0  0  0  0  0  0  0  0  0  0  0  0
    3.6224    6.4012   20.1529 N   0  0  0  0  0  0  0  0  0  0  0  0
    2.6611    6.7092   20.5032 H   0  0  0  0  0  0  0  0  0  0  0  0
    3.9664    4.3388   21.3200 C   0  0  0  0  0  0  0  0  0  0  0  0
    4.2104    2.9843   21.3702 C   0  0  0  0  0  0  0  0  0  0  0  0
    4.3758    2.2266   20.2469 C   0  0  0  0  0  0  0  0  0  0  0  0
    4.2894    2.8704   19.0472 C   0  0  0  0  0  0  0  0  0  0  0  0
    4.0418    4.2457   18.9909 C   0  0  0  0  0  0  0  0  0  0  0  0
    3.8728    5.0258   20.0969 C   0  0  0  0  0  0  0  0  0  0  0  0
    4.6235    0.8403   20.3805 N   0  0  0  0  0  0  0  0  0  0  0  0
    5.8060    0.3882   20.8920 O   0  0  0  0  0  0  0  0  0  0  0  0
    3.7719    0.0002   20.0362 O   0  0  0  0  0  0  0  0  0  0  0  0
    3.8776    4.4663   23.7468 C   0  0  0  0  0  0  0  0  0  0  0  0
    3.8045    5.0717   22.4835 O   0  0  0  0  0  0  0  0  0  0  0  0
    7.7618    8.6677   21.1290 N   0  0  0  0  0  0  0  0  0  0  0  0
    7.7798    9.6028   21.6540 H   0  0  0  0  0  0  0  0  0  0  0  0
    8.8558    7.8362   21.3315 C   0  0  0  0  0  0  0  0  0  0  0  0
    9.4290    7.0622   20.3567 C   0  0  0  0  0  0  0  0  0  0  0  0
   10.5476    6.2396   20.5940 C   0  0  0  0  0  0  0  0  0  0  0  0
   11.1042    6.1946   21.8450 C   0  0  0  0  0  0  0  0  0  0  0  0
   10.5441    6.9641   22.8393 C   0  0  0  0  0  0  0  0  0  0  0  0
    9.4491    7.7634   22.5898 C   0  0  0  0  0  0  0  0  0  0  0  0
    8.8065    8.6865   23.8913 S   0  0  0  0  0  0  0  0  0  0  0  0
    8.6235   10.1403   23.5661 O   0  0  0  0  0  0  0  0  0  0  0  0
    7.4600    8.1751   24.3816 O   0  0  0  0  0  0  0  0  0  0  0  0
    9.9390    8.7072   25.2986 C   0  0  0  0  0  0  0  0  0  0  0  0
    9.7257   10.1013   25.9167 C   0  0  0  0  0  0  0  0  0  0  0  0
    9.6120    7.6710   26.3126 C   0  0  0  0  0  0  0  0  0  0  0  0
 19 20  1  0  0  0
 20 10  1  0  0  0
 10 11  2  0  0  0
 11 12  1  0  0  0
 12 13  2  0  0  0
 13 14  1  0  0  0
 14 15  2  0  0  0
 15  8  1  0  0  0
  8  1  1  0  0  0
  1  2  2  0  0  0
  2  3  1  0  0  0
  3  4  2  0  0  0
  4  5  1  0  0  0
  4  6  1  0  0  0
  6 21  1  0  0  0
 21 23  1  0  0  0
 23 24  2  0  0  0
 24 25  1  0  0  0
 25 26  2  0  0  0
 26 27  1  0  0  0
 27 28  2  0  0  0
 28 29  1  0  0  0
 29 30  2  0  0  0
 29 31  2  0  0  0
 29 32  1  0  0  0
 32 33  1  0  0  0
 32 34  1  0  0  0
  6  7  2  0  0  0
 12 16  1  0  0  0
 16 17  1  0  0  0
 16 18  2  0  0  0
 15 10  1  0  0  0
  7  1  1  0  0  0
 28 23  1  0  0  0
  8  9  1  0  0  0
 21 22  1  0  0  0
M  CHG 1  16   1
M  CHG 1  17  -1
M  END
> <minimizedAffinity>
-7.01135

> <CNNscore>
0.2823525369

> <CNNaffinity>
6.0919742584

> <CNN_VS>
1.7200844288

> <CNNaffinity_variance>
0.4281609654

$$$$
[H]c1nc(N([H])c2c([H])c([H])c([N+](=O)[O-])c([H])c2OC([H])([H])[H])nc(N([H])c2c([H])c([H])c([H])c([H])c2S(=O)(=O)C([H])(C([H])([H])[H])C([H])([H])[H])c1Cl


 34 36  0  0  0  0  0  0  0  0999 V2000
    4.4740    2.0082   19.7871 C   0  0  0  0  0  0  0  0  0  0  0  0
    3.8662    1.6177   20.8977 N   0  0  0  0  0  0  0  0  0  0  0  0
    3.7692    2.3600   22.0082 C   0  0  0  0  0  0  0  0  0  0  0  0
    4.3286    3.6078   22.0162 C   0  0  0  0  0  0  0  0  0  0  0  0
    4.2004    4.5746   23.4673 Cl  0  0  0  0  0  0  0  0  0  0  0  0
    4.9845    4.0765   20.8730 C   0  0  0  0  0  0  0  0  0  0  0  0
    5.0193    3.2606   19.8372 N   0  0  0  0  0  0  0  0  0  0  0  0
    4.6038    1.2576   18.5827 N   0  0  0  0  0  0  0  0  0  0  0  0
    5.1579    0.3453   18.6318 H   0  0  0  0  0  0  0  0  0  0  0  0
    3.1298    0.7358   16.7691 C   0  0  0  0  0  0  0  0  0  0  0  0
    2.5447    0.9982   15.5502 C   0  0  0  0  0  0  0  0  0  0  0  0
    2.8328    2.1175   14.8240 C   0  0  0  0  0  0  0  0  0  0  0  0
    3.7394    2.9859   15.3578 C   0  0  0  0  0  0  0  0  0  0  0  0
    4.3364    2.7241   16.5951 C   0  0  0  0  0  0  0  0  0  0  0  0
    4.0668    1.6143   17.3409 C   0  0  0  0  0  0  0  0  0  0  0  0
    2.1899    2.3165   13.5797 N   0  0  0  0  0  0  0  0  0  0  0  0
    0.9809    1.7384   13.3179 O   0  0  0  0  0  0  0  0  0  0  0  0
    2.7088    3.0216   12.6948 O   0  0  0  0  0  0  0  0  0  0  0  0
    1.8736   -0.3929   18.5188 C   0  0  0  0  0  0  0  0  0  0  0  0
    2.8100   -0.4118   17.4745 O   0  0  0  0  0  0  0  0  0  0  0  0
    5.5576    5.3698   20.9076 N   0  0  0  0  0  0  0  0  0  0  0  0
    6.4760    5.4099   21.4600 H   0  0  0  0  0  0  0  0  0  0  0  0
    5.1261    6.5703   20.3582 C   0  0  0  0  0  0  0  0  0  0  0  0
    4.0695    6.6890   19.4936 C   0  0  0  0  0  0  0  0  0  0  0  0
    3.6502    7.9256   18.9654 C   0  0  0  0  0  0  0  0  0  0  0  0
    4.3111    9.0731   19.3163 C   0  0  0  0  0  0  0  0  0  0  0  0
    5.3757    8.9768   20.1835 C   0  0  0  0  0  0  0  0  0  0  0  0
    5.7731    7.7583   20.6908 C   0  0  0  0  0  0  0  0  0  0  0  0
    7.1187    7.7267   21.7619 S   0  0  0  0  0  0  0  0  0  0  0  0
    6.7868    7.2095   23.1313 O   0  0  0  0  0  0  0  0  0  0  0  0
    8.2764    6.8853   21.2454 O   0  0  0  0  0  0  0  0  0  0  0  0
    7.7405    9.3931   22.0784 C   0  0  0  0  0  0  0  0  0  0  0  0
    7.0800    9.7801   23.4144 C   0  0  0  0  0  0  0  0  0  0  0  0
    9.2177    9.4329   22.2373 C   0  0  0  0  0  0  0  0  0  0  0  0
 19 20  1  0  0  0
 20 10  1  0  0  0
 10 11  2  0  0  0
 11 12  1  0  0  0
 12 13  2  0  0  0
 13 14  1  0  0  0
 14 15  2  0  0  0
 15  8  1  0  0  0
  8  1  1  0  0  0
  1  2  2  0  0  0
  2  3  1  0  0  0
  3  4  2  0  0  0
  4  5  1  0  0  0
  4  6  1  0  0  0
  6 21  1  0  0  0
 21 23  1  0  0  0
 23 24  2  0  0  0
 24 25  1  0  0  0
 25 26  2  0  0  0
 26 27  1  0  0  0
 27 28  2  0  0  0
 28 29  1  0  0  0
 29 30  2  0  0  0
 29 31  2  0  0  0
 29 32  1  0  0  0
 32 33  1  0  0  0
 32 34  1  0  0  0
  6  7  2  0  0  0
 12 16  1  0  0  0
 16 17  1  0  0  0
 16 18  2  0  0  0
 15 10  1  0  0  0
  7  1  1  0  0  0
 28 23  1  0  0  0
  8  9  1  0  0  0
 21 22  1  0  0  0
M  CHG 1  16   1
M  CHG 1  17  -1
M  END
> <minimizedAffinity>
-8.32783

> <CNNscore>
0.2264727652

> <CNNaffinity>
6.3740110397

> <CNN_VS>
1.4435398579

> <CNNaffinity_variance>
0.4192892909

$$$$
[H]c1nc(N([H])c2c([H])c([H])c([N+](=O)[O-])c([H])c2OC([H])([H])[H])nc(N([H])c2c([H])c([H])c([H])c([H])c2S(=O)(=O)C([H])(C([H])([H])[H])C([H])([H])[H])c1Cl


 34 36  0  0  0  0  0  0  0  0999 V2000
    3.4625    2.0740   15.9705 C   0  0  0  0  0  0  0  0  0  0  0  0
    2.9610    0.8571   16.1222 N   0  0  0  0  0  0  0  0  0  0  0  0
    2.8510    0.2251   17.2978 C   0  0  0  0  0  0  0  0  0  0  0  0
    3.2796    0.8620   18.4295 C   0  0  0  0  0  0  0  0  0  0  0  0
    3.1348    0.0345   19.9628 Cl  0  0  0  0  0  0  0  0  0  0  0  0
    3.8191    2.1491   18.3338 C   0  0  0  0  0  0  0  0  0  0  0  0
    3.8789    2.6748   17.1255 N   0  0  0  0  0  0  0  0  0  0  0  0
    3.6006    2.7875   14.7447 N   0  0  0  0  0  0  0  0  0  0  0  0
    3.9783    2.2474   13.9038 H   0  0  0  0  0  0  0  0  0  0  0  0
    2.3034    4.4331   13.5857 C   0  0  0  0  0  0  0  0  0  0  0  0
    1.9218    5.7296   13.3202 C   0  0  0  0  0  0  0  0  0  0  0  0
    2.4641    6.8013   13.9687 C   0  0  0  0  0  0  0  0  0  0  0  0
    3.4173    6.5390   14.9087 C   0  0  0  0  0  0  0  0  0  0  0  0
    3.8084    5.2244   15.1820 C   0  0  0  0  0  0  0  0  0  0  0  0
    3.2833    4.1362   14.5493 C   0  0  0  0  0  0  0  0  0  0  0  0
    2.0194    8.1034   13.6401 N   0  0  0  0  0  0  0  0  0  0  0  0
    1.3122    8.3315   12.4946 O   0  0  0  0  0  0  0  0  0  0  0  0
    2.2611    9.0710   14.3848 O   0  0  0  0  0  0  0  0  0  0  0  0
    1.9550    3.1728   11.5354 C   0  0  0  0  0  0  0  0  0  0  0  0
    1.7284    3.3734   12.9051 O   0  0  0  0  0  0  0  0  0  0  0  0
    4.2580    2.7855   19.5189 N   0  0  0  0  0  0  0  0  0  0  0  0
    4.5067    2.0954   20.3014 H   0  0  0  0  0  0  0  0  0  0  0  0
    4.4081    4.1318   19.8259 C   0  0  0  0  0  0  0  0  0  0  0  0
    4.5319    5.1279   18.8929 C   0  0  0  0  0  0  0  0  0  0  0  0
    4.6691    6.4862   19.2398 C   0  0  0  0  0  0  0  0  0  0  0  0
    4.6820    6.8521   20.5599 C   0  0  0  0  0  0  0  0  0  0  0  0
    4.5591    5.8674   21.5138 C   0  0  0  0  0  0  0  0  0  0  0  0
    4.4260    4.5426   21.1569 C   0  0  0  0  0  0  0  0  0  0  0  0
    4.2866    3.3753   22.4126 S   0  0  0  0  0  0  0  0  0  0  0  0
    3.7854    3.9419   23.7090 O   0  0  0  0  0  0  0  0  0  0  0  0
    3.3654    2.2181   22.0558 O   0  0  0  0  0  0  0  0  0  0  0  0
    5.8998    2.6880   22.8470 C   0  0  0  0  0  0  0  0  0  0  0  0
    5.6681    2.0667   24.2368 C   0  0  0  0  0  0  0  0  0  0  0  0
    6.3416    1.6248   21.9071 C   0  0  0  0  0  0  0  0  0  0  0  0
 19 20  1  0  0  0
 20 10  1  0  0  0
 10 11  2  0  0  0
 11 12  1  0  0  0
 12 13  2  0  0  0
 13 14  1  0  0  0
 14 15  2  0  0  0
 15  8  1  0  0  0
  8  1  1  0  0  0
  1  2  2  0  0  0
  2  3  1  0  0  0
  3  4  2  0  0  0
  4  5  1  0  0  0
  4  6  1  0  0  0
  6 21  1  0  0  0
 21 23  1  0  0  0
 23 24  2  0  0  0
 24 25  1  0  0  0
 25 26  2  0  0  0
 26 27  1  0  0  0
 27 28  2  0  0  0
 28 29  1  0  0  0
 29 30  2  0  0  0
 29 31  2  0  0  0
 29 32  1  0  0  0
 32 33  1  0  0  0
 32 34  1  0  0  0
  6  7  2  0  0  0
 12 16  1  0  0  0
 16 17  1  0  0  0
 16 18  2  0  0  0
 15 10  1  0  0  0
  7  1  1  0  0  0
 28 23  1  0  0  0
  8  9  1  0  0  0
 21 22  1  0  0  0
M  CHG 1  16   1
M  CHG 1  17  -1
M  END
> <minimizedAffinity>
-7.95313

> <CNNscore>
0.1990841627

> <CNNaffinity>
6.6725873947

> <CNN_VS>
1.3284064531

> <CNNaffinity_variance>
0.2825874388

$$$$
[H]c1nc(N([H])c2c([H])c([H])c([N+](=O)[O-])c([H])c2OC([H])([H])[H])nc(N([H])c2c([H])c([H])c([H])c([H])c2S(=O)(=O)C([H])(C([H])([H])[H])C([H])([H])[H])c1Cl


 34 36  0  0  0  0  0  0  0  0999 V2000
    3.4177    2.1825   15.7345 C   0  0  0  0  0  0  0  0  0  0  0  0
    3.0364    0.9138   15.7605 N   0  0  0  0  0  0  0  0  0  0  0  0
    2.8406    0.2053   16.8800 C   0  0  0  0  0  0  0  0  0  0  0  0
    3.0425    0.8145   18.0876 C   0  0  0  0  0  0  0  0  0  0  0  0
    2.7861   -0.1129   19.5474 Cl  0  0  0  0  0  0  0  0  0  0  0  0
    3.4460    2.1534   18.1253 C   0  0  0  0  0  0  0  0  0  0  0  0
    3.6084    2.7531   16.9618 N   0  0  0  0  0  0  0  0  0  0  0  0
    3.6389    2.9777   14.5729 N   0  0  0  0  0  0  0  0  0  0  0  0
    4.6377    3.0276   14.1968 H   0  0  0  0  0  0  0  0  0  0  0  0
    2.7537    5.1015   13.9096 C   0  0  0  0  0  0  0  0  0  0  0  0
    1.8372    5.8996   13.2614 C   0  0  0  0  0  0  0  0  0  0  0  0
    0.7863    5.3868   12.5572 C   0  0  0  0  0  0  0  0  0  0  0  0
    0.6721    4.0280   12.5164 C   0  0  0  0  0  0  0  0  0  0  0  0
    1.6000    3.2132   13.1729 C   0  0  0  0  0  0  0  0  0  0  0  0
    2.6584    3.6990   13.8830 C   0  0  0  0  0  0  0  0  0  0  0  0
   -0.1131    6.2722   11.9182 N   0  0  0  0  0  0  0  0  0  0  0  0
    0.2005    7.5915   11.7588 O   0  0  0  0  0  0  0  0  0  0  0  0
   -1.2098    5.8718   11.4865 O   0  0  0  0  0  0  0  0  0  0  0  0
    3.5899    6.4256   15.7699 C   0  0  0  0  0  0  0  0  0  0  0  0
    3.8061    5.6615   14.6135 O   0  0  0  0  0  0  0  0  0  0  0  0
    3.6509    2.7599   19.3872 N   0  0  0  0  0  0  0  0  0  0  0  0
    2.8530    3.4165   19.6747 H   0  0  0  0  0  0  0  0  0  0  0  0
    4.7008    2.6483   20.2898 C   0  0  0  0  0  0  0  0  0  0  0  0
    5.2963    1.4647   20.6398 C   0  0  0  0  0  0  0  0  0  0  0  0
    6.3692    1.3895   21.5495 C   0  0  0  0  0  0  0  0  0  0  0  0
    6.8559    2.5350   22.1219 C   0  0  0  0  0  0  0  0  0  0  0  0
    6.2722    3.7350   21.7844 C   0  0  0  0  0  0  0  0  0  0  0  0
    5.2226    3.7906   20.8926 C   0  0  0  0  0  0  0  0  0  0  0  0
    4.5459    5.3307   20.5329 S   0  0  0  0  0  0  0  0  0  0  0  0
    3.1352    5.2650   20.0245 O   0  0  0  0  0  0  0  0  0  0  0  0
    4.5374    6.2751   21.7257 O   0  0  0  0  0  0  0  0  0  0  0  0
    5.4424    6.1400   19.1894 C   0  0  0  0  0  0  0  0  0  0  0  0
    6.5788    6.8888   19.9098 C   0  0  0  0  0  0  0  0  0  0  0  0
    6.0315    5.1713   18.2285 C   0  0  0  0  0  0  0  0  0  0  0  0
 19 20  1  0  0  0
 20 10  1  0  0  0
 10 11  2  0  0  0
 11 12  1  0  0  0
 12 13  2  0  0  0
 13 14  1  0  0  0
 14 15  2  0  0  0
 15  8  1  0  0  0
  8  1  1  0  0  0
  1  2  2  0  0  0
  2  3  1  0  0  0
  3  4  2  0  0  0
  4  5  1  0  0  0
  4  6  1  0  0  0
  6 21  1  0  0  0
 21 23  1  0  0  0
 23 24  2  0  0  0
 24 25  1  0  0  0
 25 26  2  0  0  0
 26 27  1  0  0  0
 27 28  2  0  0  0
 28 29  1  0  0  0
 29 30  2  0  0  0
 29 31  2  0  0  0
 29 32  1  0  0  0
 32 33  1  0  0  0
 32 34  1  0  0  0
  6  7  2  0  0  0
 12 16  1  0  0  0
 16 17  1  0  0  0
 16 18  2  0  0  0
 15 10  1  0  0  0
  7  1  1  0  0  0
 28 23  1  0  0  0
  8  9  1  0  0  0
 21 22  1  0  0  0
M  CHG 1  16   1
M  CHG 1  17  -1
M  END
> <minimizedAffinity>
-7.31871

> <CNNscore>
0.1560392529

> <CNNaffinity>
6.3787589073

> <CNN_VS>
0.9953367710

> <CNNaffinity_variance>
0.3904440701

$$$$
[H]c1nc(N([H])c2c([H])c([H])c([N+](=O)[O-])c([H])c2OC([H])([H])[H])nc(N([H])c2c([H])c([H])c([H])c([H])c2S(=O)(=O)C([H])(C([H])([H])[H])C([H])([H])[H])c1Cl


 34 36  0  0  0  0  0  0  0  0999 V2000
    4.8187    3.3215   18.5036 C   0  0  0  0  0  0  0  0  0  0  0  0
    4.3298    2.6654   19.5457 N   0  0  0  0  0  0  0  0  0  0  0  0
    4.1762    3.1921   20.7674 C   0  0  0  0  0  0  0  0  0  0  0  0
    4.5428    4.4933   20.9734 C   0  0  0  0  0  0  0  0  0  0  0  0
    4.3413    5.1784   22.5693 Cl  0  0  0  0  0  0  0  0  0  0  0  0
    5.0660    5.2385   19.9113 C   0  0  0  0  0  0  0  0  0  0  0  0
    5.1727    4.6181   18.7522 N   0  0  0  0  0  0  0  0  0  0  0  0
    5.0014    2.8070   17.1873 N   0  0  0  0  0  0  0  0  0  0  0  0
    5.9324    2.3284   16.9736 H   0  0  0  0  0  0  0  0  0  0  0  0
    3.2872    1.7291   15.9092 C   0  0  0  0  0  0  0  0  0  0  0  0
    2.3382    1.6973   14.9115 C   0  0  0  0  0  0  0  0  0  0  0  0
    2.0917    2.7663   14.0993 C   0  0  0  0  0  0  0  0  0  0  0  0
    2.8330    3.8912   14.3138 C   0  0  0  0  0  0  0  0  0  0  0  0
    3.7978    3.9286   15.3255 C   0  0  0  0  0  0  0  0  0  0  0  0
    4.0642    2.8757   16.1506 C   0  0  0  0  0  0  0  0  0  0  0  0
    1.1001    2.6560   13.0963 N   0  0  0  0  0  0  0  0  0  0  0  0
    1.1623    1.6655   12.1586 O   0  0  0  0  0  0  0  0  0  0  0  0
    0.1487    3.4570   13.0438 O   0  0  0  0  0  0  0  0  0  0  0  0
    2.4960    0.1012   17.5332 C   0  0  0  0  0  0  0  0  0  0  0  0
    3.5066    0.6225   16.7118 O   0  0  0  0  0  0  0  0  0  0  0  0
    5.4405    6.5818   20.1509 N   0  0  0  0  0  0  0  0  0  0  0  0
    6.1524    6.6862   20.9463 H   0  0  0  0  0  0  0  0  0  0  0  0
    5.0367    7.7613   19.5384 C   0  0  0  0  0  0  0  0  0  0  0  0
    3.7346    8.1789   19.4485 C   0  0  0  0  0  0  0  0  0  0  0  0
    3.3616    9.3889   18.8313 C   0  0  0  0  0  0  0  0  0  0  0  0
    4.3239   10.2002   18.2904 C   0  0  0  0  0  0  0  0  0  0  0  0
    5.6384    9.7998   18.3694 C   0  0  0  0  0  0  0  0  0  0  0  0
    5.9860    8.6122   18.9767 C   0  0  0  0  0  0  0  0  0  0  0  0
    7.6513    8.1836   19.0243 S   0  0  0  0  0  0  0  0  0  0  0  0
    7.9090    6.7343   18.7308 O   0  0  0  0  0  0  0  0  0  0  0  0
    8.5046    8.9851   18.0527 O   0  0  0  0  0  0  0  0  0  0  0  0
    8.3359    8.4079   20.6810 C   0  0  0  0  0  0  0  0  0  0  0  0
    9.5192    7.4233   20.7219 C   0  0  0  0  0  0  0  0  0  0  0  0
    8.8426    9.7862   20.9098 C   0  0  0  0  0  0  0  0  0  0  0  0
 19 20  1  0  0  0
 20 10  1  0  0  0
 10 11  2  0  0  0
 11 12  1  0  0  0
 12 13  2  0  0  0
 13 14  1  0  0  0
 14 15  2  0  0  0
 15  8  1  0  0  0
  8  1  1  0  0  0
  1  2  2  0  0  0
  2  3  1  0  0  0
  3  4  2  0  0  0
  4  5  1  0  0  0
  4  6  1  0  0  0
  6 21  1  0  0  0
 21 23  1  0  0  0
 23 24  2  0  0  0
 24 25  1  0  0  0
 25 26  2  0  0  0
 26 27  1  0  0  0
 27 28  2  0  0  0
 28 29  1  0  0  0
 29 30  2  0  0  0
 29 31  2  0  0  0
 29 32  1  0  0  0
 32 33  1  0  0  0
 32 34  1  0  0  0
  6  7  2  0  0  0
 12 16  1  0  0  0
 16 17  1  0  0  0
 16 18  2  0  0  0
 15 10  1  0  0  0
  7  1  1  0  0  0
 28 23  1  0  0  0
  8  9  1  0  0  0
 21 22  1  0  0  0
M  CHG 1  16   1
M  CHG 1  17  -1
M  END
> <minimizedAffinity>
-7.27080

> <CNNscore>
0.1349091381

> <CNNaffinity>
6.0722150803

> <CNN_VS>
0.8191972971

> <CNNaffinity_variance>
0.2442799807

$$$$
[H]c1nc(N([H])c2c([H])c([H])c([N+](=O)[O-])c([H])c2OC([H])([H])[H])nc(N([H])c2c([H])c([H])c([H])c([H])c2S(=O)(=O)C([H])(C([H])([H])[H])C([H])([H])[H])c1Cl


 34 36  0  0  0  0  0  0  0  0999 V2000
    4.2614    2.8096   16.8719 C   0  0  0  0  0  0  0  0  0  0  0  0
    3.5973    1.6689   16.7561 N   0  0  0  0  0  0  0  0  0  0  0  0
    2.7400    1.3896   15.7659 C   0  0  0  0  0  0  0  0  0  0  0  0
    2.5216    2.3323   14.7996 C   0  0  0  0  0  0  0  0  0  0  0  0
    1.4017    1.9650   13.5082 Cl  0  0  0  0  0  0  0  0  0  0  0  0
    3.1936    3.5573   14.8673 C   0  0  0  0  0  0  0  0  0  0  0  0
    4.0144    3.7238   15.8863 N   0  0  0  0  0  0  0  0  0  0  0  0
    5.1819    3.1538   17.9038 N   0  0  0  0  0  0  0  0  0  0  0  0
    6.1374    3.5259   17.6034 H   0  0  0  0  0  0  0  0  0  0  0  0
    4.6519    4.2318   19.9753 C   0  0  0  0  0  0  0  0  0  0  0  0
    4.3998    4.2297   21.3293 C   0  0  0  0  0  0  0  0  0  0  0  0
    4.4130    3.0872   22.0762 C   0  0  0  0  0  0  0  0  0  0  0  0
    4.6904    1.9227   21.4220 C   0  0  0  0  0  0  0  0  0  0  0  0
    4.9471    1.9194   20.0472 C   0  0  0  0  0  0  0  0  0  0  0  0
    4.9403    3.0456   19.2777 C   0  0  0  0  0  0  0  0  0  0  0  0
    4.1440    3.1667   23.4627 N   0  0  0  0  0  0  0  0  0  0  0  0
    3.1836    4.0115   23.9405 O   0  0  0  0  0  0  0  0  0  0  0  0
    4.7743    2.4704   24.2796 O   0  0  0  0  0  0  0  0  0  0  0  0
    3.4725    6.2039   19.1794 C   0  0  0  0  0  0  0  0  0  0  0  0
    4.6288    5.4131   19.2536 O   0  0  0  0  0  0  0  0  0  0  0  0
    2.9482    4.5171   13.8570 N   0  0  0  0  0  0  0  0  0  0  0  0
    2.0094    5.0224   13.9737 H   0  0  0  0  0  0  0  0  0  0  0  0
    3.7095    4.8959   12.7586 C   0  0  0  0  0  0  0  0  0  0  0  0
    4.4221    4.0260   11.9753 C   0  0  0  0  0  0  0  0  0  0  0  0
    5.1735    4.4434   10.8594 C   0  0  0  0  0  0  0  0  0  0  0  0
    5.2089    5.7708   10.5225 C   0  0  0  0  0  0  0  0  0  0  0  0
    4.5004    6.6620   11.2960 C   0  0  0  0  0  0  0  0  0  0  0  0
    3.7704    6.2366   12.3851 C   0  0  0  0  0  0  0  0  0  0  0  0
    2.9209    7.4178   13.3027 S   0  0  0  0  0  0  0  0  0  0  0  0
    2.4659    8.5969   12.4930 O   0  0  0  0  0  0  0  0  0  0  0  0
    1.6870    6.8629   13.9986 O   0  0  0  0  0  0  0  0  0  0  0  0
    3.9852    8.1552   14.5625 C   0  0  0  0  0  0  0  0  0  0  0  0
    3.3196    9.5134   14.8513 C   0  0  0  0  0  0  0  0  0  0  0  0
    4.0262    7.3580   15.8161 C   0  0  0  0  0  0  0  0  0  0  0  0
 19 20  1  0  0  0
 20 10  1  0  0  0
 10 11  2  0  0  0
 11 12  1  0  0  0
 12 13  2  0  0  0
 13 14  1  0  0  0
 14 15  2  0  0  0
 15  8  1  0  0  0
  8  1  1  0  0  0
  1  2  2  0  0  0
  2  3  1  0  0  0
  3  4  2  0  0  0
  4  5  1  0  0  0
  4  6  1  0  0  0
  6 21  1  0  0  0
 21 23  1  0  0  0
 23 24  2  0  0  0
 24 25  1  0  0  0
 25 26  2  0  0  0
 26 27  1  0  0  0
 27 28  2  0  0  0
 28 29  1  0  0  0
 29 30  2  0  0  0
 29 31  2  0  0  0
 29 32  1  0  0  0
 32 33  1  0  0  0
 32 34  1  0  0  0
  6  7  2  0  0  0
 12 16  1  0  0  0
 16 17  1  0  0  0
 16 18  2  0  0  0
 15 10  1  0  0  0
  7  1  1  0  0  0
 28 23  1  0  0  0
  8  9  1  0  0  0
 21 22  1  0  0  0
M  CHG 1  16   1
M  CHG 1  17  -1
M  END
> <minimizedAffinity>
-7.33960

> <CNNscore>
0.1295799613

> <CNNaffinity>
6.3610410690

> <CNN_VS>
0.8242634535

> <CNNaffinity_variance>
0.2609696984

$$$$
[H]c1nc(F)c([H])c([H])c1Oc1c([H])c([H])c(C(F)(F)F)c([H])c1C(=O)N([H])c1c([H])c([H])n([H])c(=O)c1[H]


 30 32  0  0  0  0  0  0  0  0999 V2000
    1.6702    2.8752   11.4856 C   0  0  0  0  0  0  0  0  0  0  0  0
    1.0836    3.3613   10.3043 C   0  0  0  0  0  0  0  0  0  0  0  0
    0.4585    4.5796   10.2980 C   0  0  0  0  0  0  0  0  0  0  0  0
    0.4334    5.2834   11.4707 C   0  0  0  0  0  0  0  0  0  0  0  0
    1.0033    4.8024   12.6203 C   0  0  0  0  0  0  0  0  0  0  0  0
    1.6577    3.5420   12.6708 C   0  0  0  0  0  0  0  0  0  0  0  0
    2.0380    3.0775   13.9831 C   0  0  0  0  0  0  0  0  0  0  0  0
    1.7737    3.8609   14.9514 O   0  0  0  0  0  0  0  0  0  0  0  0
    2.6758    1.8758   14.3584 N   0  0  0  0  0  0  0  0  0  0  0  0
    2.8442    1.1437   13.6287 H   0  0  0  0  0  0  0  0  0  0  0  0
    3.0430    1.5564   15.6882 C   0  0  0  0  0  0  0  0  0  0  0  0
    4.0348    2.3080   16.3346 C   0  0  0  0  0  0  0  0  0  0  0  0
    4.3859    2.0441   17.6406 C   0  0  0  0  0  0  0  0  0  0  0  0
    3.7652    1.0651   18.2709 N   0  0  0  0  0  0  0  0  0  0  0  0
    2.8117    0.3126   17.7123 C   0  0  0  0  0  0  0  0  0  0  0  0
    2.2559   -0.6046   18.3572 O   0  0  0  0  0  0  0  0  0  0  0  0
    2.4345    0.5610   16.3840 C   0  0  0  0  0  0  0  0  0  0  0  0
    4.0563    0.8749   19.2700 H   0  0  0  0  0  0  0  0  0  0  0  0
   -0.2125    6.6262   11.4577 C   0  0  0  0  0  0  0  0  0  0  0  0
    0.7014    7.6235   11.7215 F   0  0  0  0  0  0  0  0  0  0  0  0
   -1.3304    6.7117   12.2192 F   0  0  0  0  0  0  0  0  0  0  0  0
   -0.6062    6.8541   10.1264 F   0  0  0  0  0  0  0  0  0  0  0  0
    2.3088    1.6294   11.3990 O   0  0  0  0  0  0  0  0  0  0  0  0
    6.0921    1.0551    7.4030 F   0  0  0  0  0  0  0  0  0  0  0  0
    5.1533    1.1608    8.3786 C   0  0  0  0  0  0  0  0  0  0  0  0
    4.3525    0.0815    8.7173 C   0  0  0  0  0  0  0  0  0  0  0  0
    3.4061    0.2612    9.7368 C   0  0  0  0  0  0  0  0  0  0  0  0
    3.2747    1.4583   10.3773 C   0  0  0  0  0  0  0  0  0  0  0  0
    4.0954    2.4996   10.0037 C   0  0  0  0  0  0  0  0  0  0  0  0
    5.0170    2.3328    9.0138 N   0  0  0  0  0  0  0  0  0  0  0  0
 24 25  1  0  0  0
 25 26  2  0  0  0
 26 27  1  0  0  0
 27 28  2  0  0  0
 28 23  1  0  0  0
 23  1  1  0  0  0
  1  2  2  0  0  0
  2  3  1  0  0  0
  3  4  2  0  0  0
  4  5  1  0  0  0
  5  6  2  0  0  0
  6  7  1  0  0  0
  7  8  2  0  0  0
  7  9  1  0  0  0
  9 11  1  0  0  0
 11 12  1  0  0  0
 12 13  2  0  0  0
 13 14  1  0  0  0
 14 15  1  0  0  0
 15 16  2  0  0  0
 15 17  1  0  0  0
  4 19  1  0  0  0
 19 20  1  0  0  0
 19 21  1  0  0  0
 19 22  1  0  0  0
 28 29  1  0  0  0
 29 30  2  0  0  0
 30 25  1  0  0  0
  6  1  1  0  0  0
 17 11  2  0  0  0
  9 10  1  0  0  0
 14 18  1  0  0  0
M  END
> <minimizedAffinity>
-6.34702

> <CNNscore>
0.4615528882

> <CNNaffinity>
5.7334809303

> <CNN_VS>
2.6463046074

> <CNNaffinity_variance>
0.1148224846

$$$$
[H]c1nc(F)c([H])c([H])c1Oc1c([H])c([H])c(C(F)(F)F)c([H])c1C(=O)N([H])c1c([H])c([H])n([H])c(=O)c1[H]


 30 32  0  0  0  0  0  0  0  0999 V2000
    4.6224    6.3136   17.8237 C   0  0  0  0  0  0  0  0  0  0  0  0
    5.1902    7.5836   17.6225 C   0  0  0  0  0  0  0  0  0  0  0  0
    6.3461    7.9300   18.2697 C   0  0  0  0  0  0  0  0  0  0  0  0
    6.9074    7.0011   19.1023 C   0  0  0  0  0  0  0  0  0  0  0  0
    6.3469    5.7661   19.2977 C   0  0  0  0  0  0  0  0  0  0  0  0
    5.1466    5.3685   18.6490 C   0  0  0  0  0  0  0  0  0  0  0  0
    4.5683    4.1234   19.0940 C   0  0  0  0  0  0  0  0  0  0  0  0
    3.6236    4.2178   19.9425 O   0  0  0  0  0  0  0  0  0  0  0  0
    4.9030    2.8005   18.7340 N   0  0  0  0  0  0  0  0  0  0  0  0
    5.6089    2.6462   17.9759 H   0  0  0  0  0  0  0  0  0  0  0  0
    4.2869    1.6504   19.2843 C   0  0  0  0  0  0  0  0  0  0  0  0
    4.6601    1.2060   20.5608 C   0  0  0  0  0  0  0  0  0  0  0  0
    4.0511    0.1124   21.1369 C   0  0  0  0  0  0  0  0  0  0  0  0
    3.1056   -0.5086   20.4575 N   0  0  0  0  0  0  0  0  0  0  0  0
    2.7037   -0.1354   19.2383 C   0  0  0  0  0  0  0  0  0  0  0  0
    1.8017   -0.7620   18.6386 O   0  0  0  0  0  0  0  0  0  0  0  0
    3.3065    0.9755   18.6294 C   0  0  0  0  0  0  0  0  0  0  0  0
    2.6575   -1.3503   20.9156 H   0  0  0  0  0  0  0  0  0  0  0  0
    8.1857    7.3610   19.7784 C   0  0  0  0  0  0  0  0  0  0  0  0
    8.2997    8.7249   19.9395 F   0  0  0  0  0  0  0  0  0  0  0  0
    9.2852    6.7953   19.2235 F   0  0  0  0  0  0  0  0  0  0  0  0
    8.0854    6.8599   21.0892 F   0  0  0  0  0  0  0  0  0  0  0  0
    3.4509    6.0324   17.1054 O   0  0  0  0  0  0  0  0  0  0  0  0
    3.9835    4.0332   11.9739 F   0  0  0  0  0  0  0  0  0  0  0  0
    3.8545    4.4893   13.2467 C   0  0  0  0  0  0  0  0  0  0  0  0
    3.8567    3.6140   14.3213 C   0  0  0  0  0  0  0  0  0  0  0  0
    3.7228    4.1552   15.6083 C   0  0  0  0  0  0  0  0  0  0  0  0
    3.5945    5.4994   15.8010 C   0  0  0  0  0  0  0  0  0  0  0  0
    3.5991    6.3267   14.6996 C   0  0  0  0  0  0  0  0  0  0  0  0
    3.7284    5.8084   13.4460 N   0  0  0  0  0  0  0  0  0  0  0  0
 24 25  1  0  0  0
 25 26  2  0  0  0
 26 27  1  0  0  0
 27 28  2  0  0  0
 28 23  1  0  0  0
 23  1  1  0  0  0
  1  2  2  0  0  0
  2  3  1  0  0  0
  3  4  2  0  0  0
  4  5  1  0  0  0
  5  6  2  0  0  0
  6  7  1  0  0  0
  7  8  2  0  0  0
  7  9  1  0  0  0
  9 11  1  0  0  0
 11 12  1  0  0  0
 12 13  2  0  0  0
 13 14  1  0  0  0
 14 15  1  0  0  0
 15 16  2  0  0  0
 15 17  1  0  0  0
  4 19  1  0  0  0
 19 20  1  0  0  0
 19 21  1  0  0  0
 19 22  1  0  0  0
 28 29  1  0  0  0
 29 30  2  0  0  0
 30 25  1  0  0  0
  6  1  1  0  0  0
 17 11  2  0  0  0
  9 10  1  0  0  0
 14 18  1  0  0  0
M  END
> <minimizedAffinity>
-7.39379

> <CNNscore>
0.4487902820

> <CNNaffinity>
6.3696584702

> <CNN_VS>
2.8586409092

> <CNNaffinity_variance>
0.3199148178

$$$$
[H]c1nc(F)c([H])c([H])c1Oc1c([H])c([H])c(C(F)(F)F)c([H])c1C(=O)N([H])c1c([H])c([H])n([H])c(=O)c1[H]


 30 32  0  0  0  0  0  0  0  0999 V2000
    5.8682    4.8339   21.0219 C   0  0  0  0  0  0  0  0  0  0  0  0
    6.5418    5.7383   21.8611 C   0  0  0  0  0  0  0  0  0  0  0  0
    6.2452    7.0741   21.8109 C   0  0  0  0  0  0  0  0  0  0  0  0
    5.2839    7.4756   20.9243 C   0  0  0  0  0  0  0  0  0  0  0  0
    4.6336    6.5898   20.1058 C   0  0  0  0  0  0  0  0  0  0  0  0
    4.9141    5.1967   20.1234 C   0  0  0  0  0  0  0  0  0  0  0  0
    4.2992    4.4133   19.0790 C   0  0  0  0  0  0  0  0  0  0  0  0
    3.1036    4.7280   18.7746 O   0  0  0  0  0  0  0  0  0  0  0  0
    4.8261    3.3310   18.3424 N   0  0  0  0  0  0  0  0  0  0  0  0
    5.8323    3.0720   18.4742 H   0  0  0  0  0  0  0  0  0  0  0  0
    4.0969    2.6067   17.3683 C   0  0  0  0  0  0  0  0  0  0  0  0
    3.9931    3.1086   16.0630 C   0  0  0  0  0  0  0  0  0  0  0  0
    3.3219    2.4071   15.0851 C   0  0  0  0  0  0  0  0  0  0  0  0
    2.7779    1.2487   15.4063 N   0  0  0  0  0  0  0  0  0  0  0  0
    2.8414    0.7153   16.6306 C   0  0  0  0  0  0  0  0  0  0  0  0
    2.3062   -0.3879   16.8800 O   0  0  0  0  0  0  0  0  0  0  0  0
    3.5198    1.4083   17.6444 C   0  0  0  0  0  0  0  0  0  0  0  0
    2.2607    0.7313   14.6421 H   0  0  0  0  0  0  0  0  0  0  0  0
    4.9318    8.9232   20.8944 C   0  0  0  0  0  0  0  0  0  0  0  0
    4.7501    9.4203   22.1669 F   0  0  0  0  0  0  0  0  0  0  0  0
    3.9158    9.2299   20.0515 F   0  0  0  0  0  0  0  0  0  0  0  0
    6.0748    9.5903   20.4170 F   0  0  0  0  0  0  0  0  0  0  0  0
    6.2170    3.4817   21.1532 O   0  0  0  0  0  0  0  0  0  0  0  0
    3.5634    0.5064   24.9896 F   0  0  0  0  0  0  0  0  0  0  0  0
    4.1919    1.2230   24.0221 C   0  0  0  0  0  0  0  0  0  0  0  0
    3.7755    1.1568   22.7018 C   0  0  0  0  0  0  0  0  0  0  0  0
    4.4686    1.9264   21.7561 C   0  0  0  0  0  0  0  0  0  0  0  0
    5.5195    2.7163   22.1195 C   0  0  0  0  0  0  0  0  0  0  0  0
    5.8934    2.7475   23.4450 C   0  0  0  0  0  0  0  0  0  0  0  0
    5.2251    2.0023   24.3696 N   0  0  0  0  0  0  0  0  0  0  0  0
 24 25  1  0  0  0
 25 26  2  0  0  0
 26 27  1  0  0  0
 27 28  2  0  0  0
 28 23  1  0  0  0
 23  1  1  0  0  0
  1  2  2  0  0  0
  2  3  1  0  0  0
  3  4  2  0  0  0
  4  5  1  0  0  0
  5  6  2  0  0  0
  6  7  1  0  0  0
  7  8  2  0  0  0
  7  9  1  0  0  0
  9 11  1  0  0  0
 11 12  1  0  0  0
 12 13  2  0  0  0
 13 14  1  0  0  0
 14 15  1  0  0  0
 15 16  2  0  0  0
 15 17  1  0  0  0
  4 19  1  0  0  0
 19 20  1  0  0  0
 19 21  1  0  0  0
 19 22  1  0  0  0
 28 29  1  0  0  0
 29 30  2  0  0  0
 30 25  1  0  0  0
  6  1  1  0  0  0
 17 11  2  0  0  0
  9 10  1  0  0  0
 14 18  1  0  0  0
M  END
> <minimizedAffinity>
-8.61169

> <CNNscore>
0.3981929421

> <CNNaffinity>
6.2769060135

> <CNN_VS>
2.4994196892

> <CNNaffinity_variance>
0.4394987226

$$$$
[H]c1nc(F)c([H])c([H])c1Oc1c([H])c([H])c(C(F)(F)F)c([H])c1C(=O)N([H])c1c([H])c([H])n([H])c(=O)c1[H]


 30 32  0  0  0  0  0  0  0  0999 V2000
    4.9906    2.5381   18.9086 C   0  0  0  0  0  0  0  0  0  0  0  0
    4.2271    1.3588   18.9570 C   0  0  0  0  0  0  0  0  0  0  0  0
    3.4643    0.9892   17.8816 C   0  0  0  0  0  0  0  0  0  0  0  0
    3.4813    1.8053   16.7839 C   0  0  0  0  0  0  0  0  0  0  0  0
    4.2243    2.9560   16.7443 C   0  0  0  0  0  0  0  0  0  0  0  0
    5.0258    3.3776   17.8394 C   0  0  0  0  0  0  0  0  0  0  0  0
    5.5971    4.6987   17.7350 C   0  0  0  0  0  0  0  0  0  0  0  0
    6.7577    4.7662   17.2156 O   0  0  0  0  0  0  0  0  0  0  0  0
    5.0613    5.9410   18.1363 N   0  0  0  0  0  0  0  0  0  0  0  0
    4.0762    5.9761   18.4899 H   0  0  0  0  0  0  0  0  0  0  0  0
    5.7492    7.1736   18.0230 C   0  0  0  0  0  0  0  0  0  0  0  0
    6.5081    7.6473   19.1029 C   0  0  0  0  0  0  0  0  0  0  0  0
    7.2182    8.8244   19.0080 C   0  0  0  0  0  0  0  0  0  0  0  0
    7.1677    9.4972   17.8741 N   0  0  0  0  0  0  0  0  0  0  0  0
    6.4645    9.1000   16.8086 C   0  0  0  0  0  0  0  0  0  0  0  0
    6.4516    9.7784   15.7572 O   0  0  0  0  0  0  0  0  0  0  0  0
    5.7334    7.9046   16.8782 C   0  0  0  0  0  0  0  0  0  0  0  0
    7.7139   10.4019   17.8263 H   0  0  0  0  0  0  0  0  0  0  0  0
    2.6824    1.3861   15.5980 C   0  0  0  0  0  0  0  0  0  0  0  0
    2.1215    0.1416   15.7871 F   0  0  0  0  0  0  0  0  0  0  0  0
    3.3386    1.5020   14.4178 F   0  0  0  0  0  0  0  0  0  0  0  0
    1.5827    2.2618   15.5421 F   0  0  0  0  0  0  0  0  0  0  0  0
    5.7601    2.8309   20.0442 O   0  0  0  0  0  0  0  0  0  0  0  0
    3.0799    4.3190   24.6501 F   0  0  0  0  0  0  0  0  0  0  0  0
    3.7270    3.9855   23.5036 C   0  0  0  0  0  0  0  0  0  0  0  0
    3.7232    4.8362   22.4094 C   0  0  0  0  0  0  0  0  0  0  0  0
    4.4152    4.4289   21.2595 C   0  0  0  0  0  0  0  0  0  0  0  0
    5.0725    3.2346   21.2149 C   0  0  0  0  0  0  0  0  0  0  0  0
    5.0465    2.4257   22.3296 C   0  0  0  0  0  0  0  0  0  0  0  0
    4.3760    2.8143   23.4504 N   0  0  0  0  0  0  0  0  0  0  0  0
 24 25  1  0  0  0
 25 26  2  0  0  0
 26 27  1  0  0  0
 27 28  2  0  0  0
 28 23  1  0  0  0
 23  1  1  0  0  0
  1  2  2  0  0  0
  2  3  1  0  0  0
  3  4  2  0  0  0
  4  5  1  0  0  0
  5  6  2  0  0  0
  6  7  1  0  0  0
  7  8  2  0  0  0
  7  9  1  0  0  0
  9 11  1  0  0  0
 11 12  1  0  0  0
 12 13  2  0  0  0
 13 14  1  0  0  0
 14 15  1  0  0  0
 15 16  2  0  0  0
 15 17  1  0  0  0
  4 19  1  0  0  0
 19 20  1  0  0  0
 19 21  1  0  0  0
 19 22  1  0  0  0
 28 29  1  0  0  0
 29 30  2  0  0  0
 30 25  1  0  0  0
  6  1  1  0  0  0
 17 11  2  0  0  0
  9 10  1  0  0  0
 14 18  1  0  0  0
M  END
> <minimizedAffinity>
-8.08671

> <CNNscore>
0.3014687598

> <CNNaffinity>
5.8334970474

> <CNN_VS>
1.7586171627

> <CNNaffinity_variance>
0.2177209109

$$$$
[H]c1nc(F)c([H])c([H])c1Oc1c([H])c([H])c(C(F)(F)F)c([H])c1C(=O)N([H])c1c([H])c([H])n([H])c(=O)c1[H]


 30 32  0  0  0  0  0  0  0  0999 V2000
    4.8899    2.8963   18.8099 C   0  0  0  0  0  0  0  0  0  0  0  0
    4.6400    1.6378   19.3840 C   0  0  0  0  0  0  0  0  0  0  0  0
    4.3147    1.5398   20.7105 C   0  0  0  0  0  0  0  0  0  0  0  0
    4.2469    2.6999   21.4323 C   0  0  0  0  0  0  0  0  0  0  0  0
    4.4957    3.9235   20.8680 C   0  0  0  0  0  0  0  0  0  0  0  0
    4.8402    4.0688   19.4970 C   0  0  0  0  0  0  0  0  0  0  0  0
    5.2636    5.3858   19.0860 C   0  0  0  0  0  0  0  0  0  0  0  0
    4.7152    6.3630   19.6907 O   0  0  0  0  0  0  0  0  0  0  0  0
    6.1974    5.7586   18.0958 N   0  0  0  0  0  0  0  0  0  0  0  0
    6.7536    5.0106   17.6183 H   0  0  0  0  0  0  0  0  0  0  0  0
    6.4916    7.0999   17.7501 C   0  0  0  0  0  0  0  0  0  0  0  0
    7.4453    7.8147   18.4891 C   0  0  0  0  0  0  0  0  0  0  0  0
    7.7791    9.1084   18.1522 C   0  0  0  0  0  0  0  0  0  0  0  0
    7.1790    9.6607   17.1149 N   0  0  0  0  0  0  0  0  0  0  0  0
    6.2628    9.0339   16.3698 C   0  0  0  0  0  0  0  0  0  0  0  0
    5.7245    9.6066   15.3961 O   0  0  0  0  0  0  0  0  0  0  0  0
    5.9055    7.7157   16.6904 C   0  0  0  0  0  0  0  0  0  0  0  0
    7.4447   10.6572   16.8794 H   0  0  0  0  0  0  0  0  0  0  0  0
    3.8558    2.6001   22.8667 C   0  0  0  0  0  0  0  0  0  0  0  0
    3.3290    1.3600   23.1565 F   0  0  0  0  0  0  0  0  0  0  0  0
    3.0826    3.6238   23.3035 F   0  0  0  0  0  0  0  0  0  0  0  0
    5.0553    2.6518   23.6001 F   0  0  0  0  0  0  0  0  0  0  0  0
    5.1945    2.9087   17.4408 O   0  0  0  0  0  0  0  0  0  0  0  0
    0.9863    2.3842   13.8872 F   0  0  0  0  0  0  0  0  0  0  0  0
    2.0192    2.4762   14.7642 C   0  0  0  0  0  0  0  0  0  0  0  0
    2.5545    1.3432   15.3565 C   0  0  0  0  0  0  0  0  0  0  0  0
    3.6224    1.5124   16.2499 C   0  0  0  0  0  0  0  0  0  0  0  0
    4.1216    2.7505   16.5297 C   0  0  0  0  0  0  0  0  0  0  0  0
    3.5548    3.8447   15.9139 C   0  0  0  0  0  0  0  0  0  0  0  0
    2.5167    3.6883   15.0450 N   0  0  0  0  0  0  0  0  0  0  0  0
 24 25  1  0  0  0
 25 26  2  0  0  0
 26 27  1  0  0  0
 27 28  2  0  0  0
 28 23  1  0  0  0
 23  1  1  0  0  0
  1  2  2  0  0  0
  2  3  1  0  0  0
  3  4  2  0  0  0
  4  5  1  0  0  0
  5  6  2  0  0  0
  6  7  1  0  0  0
  7  8  2  0  0  0
  7  9  1  0  0  0
  9 11  1  0  0  0
 11 12  1  0  0  0
 12 13  2  0  0  0
 13 14  1  0  0  0
 14 15  1  0  0  0
 15 16  2  0  0  0
 15 17  1  0  0  0
  4 19  1  0  0  0
 19 20  1  0  0  0
 19 21  1  0  0  0
 19 22  1  0  0  0
 28 29  1  0  0  0
 29 30  2  0  0  0
 30 25  1  0  0  0
  6  1  1  0  0  0
 17 11  2  0  0  0
  9 10  1  0  0  0
 14 18  1  0  0  0
M  END
> <minimizedAffinity>
-8.01551

> <CNNscore>
0.2864925861

> <CNNaffinity>
5.8944325447

> <CNN_VS>
1.6887111664

> <CNNaffinity_variance>
0.1703938991

$$$$
[H]c1nc(F)c([H])c([H])c1Oc1c([H])c([H])c(C(F)(F)F)c([H])c1C(=O)N([H])c1c([H])c([H])n([H])c(=O)c1[H]


 30 32  0  0  0  0  0  0  0  0999 V2000
    1.2996    3.8725   12.0619 C   0  0  0  0  0  0  0  0  0  0  0  0
    0.9100    4.6808   10.9799 C   0  0  0  0  0  0  0  0  0  0  0  0
    1.3001    5.9922   10.9261 C   0  0  0  0  0  0  0  0  0  0  0  0
    2.0692    6.4658   11.9535 C   0  0  0  0  0  0  0  0  0  0  0  0
    2.4423    5.6741   13.0078 C   0  0  0  0  0  0  0  0  0  0  0  0
    2.0557    4.3100   13.1041 C   0  0  0  0  0  0  0  0  0  0  0  0
    2.3526    3.6539   14.3547 C   0  0  0  0  0  0  0  0  0  0  0  0
    2.0298    4.2897   15.4097 O   0  0  0  0  0  0  0  0  0  0  0  0
    2.9635    2.4033   14.5878 N   0  0  0  0  0  0  0  0  0  0  0  0
    3.1758    1.7843   13.7701 H   0  0  0  0  0  0  0  0  0  0  0  0
    3.2465    1.8883   15.8761 C   0  0  0  0  0  0  0  0  0  0  0  0
    4.2086    2.5171   16.6796 C   0  0  0  0  0  0  0  0  0  0  0  0
    4.4776    2.0608   17.9517 C   0  0  0  0  0  0  0  0  0  0  0  0
    3.8069    1.0157   18.3976 N   0  0  0  0  0  0  0  0  0  0  0  0
    2.8780    0.3726   17.6829 C   0  0  0  0  0  0  0  0  0  0  0  0
    2.2720   -0.6149   18.1558 O   0  0  0  0  0  0  0  0  0  0  0  0
    2.5839    0.8173   16.3852 C   0  0  0  0  0  0  0  0  0  0  0  0
    4.0354    0.6777   19.3737 H   0  0  0  0  0  0  0  0  0  0  0  0
    2.5273    7.8818   11.8788 C   0  0  0  0  0  0  0  0  0  0  0  0
    2.2589    8.5569   13.0500 F   0  0  0  0  0  0  0  0  0  0  0  0
    2.1069    8.5433   10.7731 F   0  0  0  0  0  0  0  0  0  0  0  0
    3.9319    7.8321   11.8164 F   0  0  0  0  0  0  0  0  0  0  0  0
    0.8755    2.5360   12.0275 O   0  0  0  0  0  0  0  0  0  0  0  0
    3.0587   -0.8117    8.2014 F   0  0  0  0  0  0  0  0  0  0  0  0
    2.5571    0.0191    9.1515 C   0  0  0  0  0  0  0  0  0  0  0  0
    3.3983    0.7406    9.9838 C   0  0  0  0  0  0  0  0  0  0  0  0
    2.8112    1.5819   10.9402 C   0  0  0  0  0  0  0  0  0  0  0  0
    1.4560    1.6897   11.0513 C   0  0  0  0  0  0  0  0  0  0  0  0
    0.6639    0.9517   10.1995 C   0  0  0  0  0  0  0  0  0  0  0  0
    1.2269    0.1319    9.2679 N   0  0  0  0  0  0  0  0  0  0  0  0
 24 25  1  0  0  0
 25 26  2  0  0  0
 26 27  1  0  0  0
 27 28  2  0  0  0
 28 23  1  0  0  0
 23  1  1  0  0  0
  1  2  2  0  0  0
  2  3  1  0  0  0
  3  4  2  0  0  0
  4  5  1  0  0  0
  5  6  2  0  0  0
  6  7  1  0  0  0
  7  8  2  0  0  0
  7  9  1  0  0  0
  9 11  1  0  0  0
 11 12  1  0  0  0
 12 13  2  0  0  0
 13 14  1  0  0  0
 14 15  1  0  0  0
 15 16  2  0  0  0
 15 17  1  0  0  0
  4 19  1  0  0  0
 19 20  1  0  0  0
 19 21  1  0  0  0
 19 22  1  0  0  0
 28 29  1  0  0  0
 29 30  2  0  0  0
 30 25  1  0  0  0
  6  1  1  0  0  0
 17 11  2  0  0  0
  9 10  1  0  0  0
 14 18  1  0  0  0
M  END
> <minimizedAffinity>
-6.52905

> <CNNscore>
0.2784423530

> <CNNaffinity>
5.8457856178

> <CNN_VS>
1.6277142763

> <CNNaffinity_variance>
0.2470318079

$$$$
[H]c1nc(F)c([H])c([H])c1Oc1c([H])c([H])c(C(F)(F)F)c([H])c1C(=O)N([H])c1c([H])c([H])n([H])c(=O)c1[H]


 30 32  0  0  0  0  0  0  0  0999 V2000
    4.4318    2.6088   17.5386 C   0  0  0  0  0  0  0  0  0  0  0  0
    3.9352    1.2938   17.5440 C   0  0  0  0  0  0  0  0  0  0  0  0
    3.6203    0.6829   18.7283 C   0  0  0  0  0  0  0  0  0  0  0  0
    3.8089    1.3985   19.8788 C   0  0  0  0  0  0  0  0  0  0  0  0
    4.2973    2.6787   19.8674 C   0  0  0  0  0  0  0  0  0  0  0  0
    4.6401    3.3475   18.6613 C   0  0  0  0  0  0  0  0  0  0  0  0
    5.3214    4.6110   18.8088 C   0  0  0  0  0  0  0  0  0  0  0  0
    5.0400    5.2787   19.8558 O   0  0  0  0  0  0  0  0  0  0  0  0
    6.2562    5.2305   17.9521 N   0  0  0  0  0  0  0  0  0  0  0  0
    6.6037    4.7027   17.1169 H   0  0  0  0  0  0  0  0  0  0  0  0
    6.8211    6.5075   18.1877 C   0  0  0  0  0  0  0  0  0  0  0  0
    6.4315    7.5964   17.3947 C   0  0  0  0  0  0  0  0  0  0  0  0
    6.9359    8.8578   17.6254 C   0  0  0  0  0  0  0  0  0  0  0  0
    7.7964    9.0177   18.6128 N   0  0  0  0  0  0  0  0  0  0  0  0
    8.2075    8.0221   19.4047 C   0  0  0  0  0  0  0  0  0  0  0  0
    9.0269    8.2306   20.3273 O   0  0  0  0  0  0  0  0  0  0  0  0
    7.7085    6.7282   19.1922 C   0  0  0  0  0  0  0  0  0  0  0  0
    8.1768    9.9927   18.7666 H   0  0  0  0  0  0  0  0  0  0  0  0
    3.4312    0.7503   21.1663 C   0  0  0  0  0  0  0  0  0  0  0  0
    2.4200   -0.1685   20.9861 F   0  0  0  0  0  0  0  0  0  0  0  0
    3.1872    1.6214   22.1755 F   0  0  0  0  0  0  0  0  0  0  0  0
    4.5422   -0.0217   21.5522 F   0  0  0  0  0  0  0  0  0  0  0  0
    4.7078    3.1670   16.2818 O   0  0  0  0  0  0  0  0  0  0  0  0
    0.4820    3.6853   12.7483 F   0  0  0  0  0  0  0  0  0  0  0  0
    1.5249    3.5236   13.6031 C   0  0  0  0  0  0  0  0  0  0  0  0
    2.2482    2.3416   13.6297 C   0  0  0  0  0  0  0  0  0  0  0  0
    3.3149    2.2456   14.5354 C   0  0  0  0  0  0  0  0  0  0  0  0
    3.6339    3.2800   15.3653 C   0  0  0  0  0  0  0  0  0  0  0  0
    2.8843    4.4338   15.2990 C   0  0  0  0  0  0  0  0  0  0  0  0
    1.8462    4.5345   14.4219 N   0  0  0  0  0  0  0  0  0  0  0  0
 24 25  1  0  0  0
 25 26  2  0  0  0
 26 27  1  0  0  0
 27 28  2  0  0  0
 28 23  1  0  0  0
 23  1  1  0  0  0
  1  2  2  0  0  0
  2  3  1  0  0  0
  3  4  2  0  0  0
  4  5  1  0  0  0
  5  6  2  0  0  0
  6  7  1  0  0  0
  7  8  2  0  0  0
  7  9  1  0  0  0
  9 11  1  0  0  0
 11 12  1  0  0  0
 12 13  2  0  0  0
 13 14  1  0  0  0
 14 15  1  0  0  0
 15 16  2  0  0  0
 15 17  1  0  0  0
  4 19  1  0  0  0
 19 20  1  0  0  0
 19 21  1  0  0  0
 19 22  1  0  0  0
 28 29  1  0  0  0
 29 30  2  0  0  0
 30 25  1  0  0  0
  6  1  1  0  0  0
 17 11  2  0  0  0
  9 10  1  0  0  0
 14 18  1  0  0  0
M  END
> <minimizedAffinity>
-7.95884

> <CNNscore>
0.2702745199

> <CNNaffinity>
5.9871988297

> <CNN_VS>
1.6181873083

> <CNNaffinity_variance>
0.1340505034

$$$$
[H]c1nc(F)c([H])c([H])c1Oc1c([H])c([H])c(C(F)(F)F)c([H])c1C(=O)N([H])c1c([H])c([H])n([H])c(=O)c1[H]


 30 32  0  0  0  0  0  0  0  0999 V2000
    4.7369    2.5189   18.8651 C   0  0  0  0  0  0  0  0  0  0  0  0
    4.8007    1.1272   19.0521 C   0  0  0  0  0  0  0  0  0  0  0  0
    4.4239    0.5764   20.2477 C   0  0  0  0  0  0  0  0  0  0  0  0
    3.9930    1.4274   21.2282 C   0  0  0  0  0  0  0  0  0  0  0  0
    3.9371    2.7837   21.0414 C   0  0  0  0  0  0  0  0  0  0  0  0
    4.3224    3.3959   19.8182 C   0  0  0  0  0  0  0  0  0  0  0  0
    4.3980    4.8370   19.8270 C   0  0  0  0  0  0  0  0  0  0  0  0
    3.6655    5.4297   20.6833 O   0  0  0  0  0  0  0  0  0  0  0  0
    5.1628    5.6993   19.0127 N   0  0  0  0  0  0  0  0  0  0  0  0
    5.8550    5.2830   18.3461 H   0  0  0  0  0  0  0  0  0  0  0  0
    5.1107    7.1124   19.0881 C   0  0  0  0  0  0  0  0  0  0  0  0
    6.2947    7.8427   19.2647 C   0  0  0  0  0  0  0  0  0  0  0  0
    6.2789    9.2200   19.3039 C   0  0  0  0  0  0  0  0  0  0  0  0
    5.1205    9.8375   19.1708 N   0  0  0  0  0  0  0  0  0  0  0  0
    3.9577    9.2005   18.9992 C   0  0  0  0  0  0  0  0  0  0  0  0
    2.8872    9.8372   18.8787 O   0  0  0  0  0  0  0  0  0  0  0  0
    3.9458    7.7983   18.9544 C   0  0  0  0  0  0  0  0  0  0  0  0
    5.1309   10.8945   19.2120 H   0  0  0  0  0  0  0  0  0  0  0  0
    3.5461    0.8279   22.5171 C   0  0  0  0  0  0  0  0  0  0  0  0
    2.2062    1.0611   22.7395 F   0  0  0  0  0  0  0  0  0  0  0  0
    4.3268    1.1475   23.5779 F   0  0  0  0  0  0  0  0  0  0  0  0
    3.6364   -0.5659   22.3483 F   0  0  0  0  0  0  0  0  0  0  0  0
    5.1201    2.9977   17.6036 O   0  0  0  0  0  0  0  0  0  0  0  0
    1.2392    3.1008   13.6615 F   0  0  0  0  0  0  0  0  0  0  0  0
    2.2008    3.1104   14.6205 C   0  0  0  0  0  0  0  0  0  0  0  0
    2.9763    4.2378   14.8412 C   0  0  0  0  0  0  0  0  0  0  0  0
    3.9485    4.1778   15.8504 C   0  0  0  0  0  0  0  0  0  0  0  0
    4.1285    3.0483   16.5935 C   0  0  0  0  0  0  0  0  0  0  0  0
    3.3313    1.9551   16.3351 C   0  0  0  0  0  0  0  0  0  0  0  0
    2.3848    2.0055   15.3560 N   0  0  0  0  0  0  0  0  0  0  0  0
 24 25  1  0  0  0
 25 26  2  0  0  0
 26 27  1  0  0  0
 27 28  2  0  0  0
 28 23  1  0  0  0
 23  1  1  0  0  0
  1  2  2  0  0  0
  2  3  1  0  0  0
  3  4  2  0  0  0
  4  5  1  0  0  0
  5  6  2  0  0  0
  6  7  1  0  0  0
  7  8  2  0  0  0
  7  9  1  0  0  0
  9 11  1  0  0  0
 11 12  1  0  0  0
 12 13  2  0  0  0
 13 14  1  0  0  0
 14 15  1  0  0  0
 15 16  2  0  0  0
 15 17  1  0  0  0
  4 19  1  0  0  0
 19 20  1  0  0  0
 19 21  1  0  0  0
 19 22  1  0  0  0
 28 29  1  0  0  0
 29 30  2  0  0  0
 30 25  1  0  0  0
  6  1  1  0  0  0
 17 11  2  0  0  0
  9 10  1  0  0  0
 14 18  1  0  0  0
M  END
> <minimizedAffinity>
-7.44874

> <CNNscore>
0.2672616243

> <CNNaffinity>
5.7441916466

> <CNN_VS>
1.5352020264

> <CNNaffinity_variance>
0.3344091773

$$$$
[H]c1nc(F)c([H])c([H])c1Oc1c([H])c([H])c(C(F)(F)F)c([H])c1C(=O)N([H])c1c([H])c([H])n([H])c(=O)c1[H]


 30 32  0  0  0  0  0  0  0  0999 V2000
    4.8721    4.2316   16.8373 C   0  0  0  0  0  0  0  0  0  0  0  0
    4.7580    4.3008   15.4380 C   0  0  0  0  0  0  0  0  0  0  0  0
    3.9486    3.4212   14.7700 C   0  0  0  0  0  0  0  0  0  0  0  0
    3.2729    2.4934   15.5143 C   0  0  0  0  0  0  0  0  0  0  0  0
    3.3915    2.4281   16.8778 C   0  0  0  0  0  0  0  0  0  0  0  0
    4.2232    3.3188   17.6088 C   0  0  0  0  0  0  0  0  0  0  0  0
    4.4037    3.0134   19.0076 C   0  0  0  0  0  0  0  0  0  0  0  0
    4.1605    1.8123   19.3532 O   0  0  0  0  0  0  0  0  0  0  0  0
    4.8040    3.8580   20.0649 N   0  0  0  0  0  0  0  0  0  0  0  0
    5.1064    4.8360   19.8438 H   0  0  0  0  0  0  0  0  0  0  0  0
    4.8965    3.4452   21.4163 C   0  0  0  0  0  0  0  0  0  0  0  0
    3.9640    3.9159   22.3519 C   0  0  0  0  0  0  0  0  0  0  0  0
    4.0068    3.5018   23.6654 C   0  0  0  0  0  0  0  0  0  0  0  0
    4.9481    2.6493   24.0235 N   0  0  0  0  0  0  0  0  0  0  0  0
    5.8654    2.1629   23.1812 C   0  0  0  0  0  0  0  0  0  0  0  0
    6.7370    1.3562   23.5754 O   0  0  0  0  0  0  0  0  0  0  0  0
    5.8436    2.5674   21.8380 C   0  0  0  0  0  0  0  0  0  0  0  0
    4.9670    2.3513   25.0383 H   0  0  0  0  0  0  0  0  0  0  0  0
    2.3618    1.5596   14.7942 C   0  0  0  0  0  0  0  0  0  0  0  0
    1.2527    2.2178   14.3086 F   0  0  0  0  0  0  0  0  0  0  0  0
    2.0547    0.4376   15.4896 F   0  0  0  0  0  0  0  0  0  0  0  0
    3.0584    1.1493   13.6428 F   0  0  0  0  0  0  0  0  0  0  0  0
    5.7047    5.1836   17.4438 O   0  0  0  0  0  0  0  0  0  0  0  0
    3.3290    9.8358   19.2673 F   0  0  0  0  0  0  0  0  0  0  0  0
    3.9181    8.7103   18.7870 C   0  0  0  0  0  0  0  0  0  0  0  0
    4.4209    8.6640   17.4962 C   0  0  0  0  0  0  0  0  0  0  0  0
    5.0193    7.4701   17.0678 C   0  0  0  0  0  0  0  0  0  0  0  0
    5.1060    6.3865   17.8917 C   0  0  0  0  0  0  0  0  0  0  0  0
    4.5915    6.4842   19.1659 C   0  0  0  0  0  0  0  0  0  0  0  0
    4.0083    7.6408   19.5892 N   0  0  0  0  0  0  0  0  0  0  0  0
 24 25  1  0  0  0
 25 26  2  0  0  0
 26 27  1  0  0  0
 27 28  2  0  0  0
 28 23  1  0  0  0
 23  1  1  0  0  0
  1  2  2  0  0  0
  2  3  1  0  0  0
  3  4  2  0  0  0
  4  5  1  0  0  0
  5  6  2  0  0  0
  6  7  1  0  0  0
  7  8  2  0  0  0
  7  9  1  0  0  0
  9 11  1  0  0  0
 11 12  1  0  0  0
 12 13  2  0  0  0
 13 14  1  0  0  0
 14 15  1  0  0  0
 15 16  2  0  0  0
 15 17  1  0  0  0
  4 19  1  0  0  0
 19 20  1  0  0  0
 19 21  1  0  0  0
 19 22  1  0  0  0
 28 29  1  0  0  0
 29 30  2  0  0  0
 30 25  1  0  0  0
  6  1  1  0  0  0
 17 11  2  0  0  0
  9 10  1  0  0  0
 14 18  1  0  0  0
M  END
> <minimizedAffinity>
-7.09147

> <CNNscore>
0.2380191535

> <CNNaffinity>
5.7970142365

> <CNN_VS>
1.3798004389

> <CNNaffinity_variance>
0.3392427564

$$$$
[H]c1nc2c(nc1-c1c([H])c(N([H])C(=O)c3c([H])c([H])c(C([H])([H])N4C([H])([H])C([H])([H])N(C([H])([H])[H])C([H])([H])C4([H])[H])c(C(F)(F)F)c3[H])c([H])c([H])c1C([H])([H])[H])c([H])c([H])n2[H]


 39 43  0  0  0  0  0  0  0  0999 V2000
    3.0045    2.3192   15.2607 C   0  0  0  0  0  0  0  0  0  0  0  0
    2.6618    1.1202   15.4569 O   0  0  0  0  0  0  0  0  0  0  0  0
    3.5470    3.0664   16.3122 N   0  0  0  0  0  0  0  0  0  0  0  0
    3.8244    4.0890   16.1013 H   0  0  0  0  0  0  0  0  0  0  0  0
    3.7640    2.5792   17.6281 C   0  0  0  0  0  0  0  0  0  0  0  0
    3.6262    1.2779   18.0178 C   0  0  0  0  0  0  0  0  0  0  0  0
    3.8211    0.8604   19.3039 C   0  0  0  0  0  0  0  0  0  0  0  0
    4.1775    1.7750   20.2859 C   0  0  0  0  0  0  0  0  0  0  0  0
    4.4411    1.2226   21.6490 C   0  0  0  0  0  0  0  0  0  0  0  0
    4.3244    3.0779   19.9477 C   0  0  0  0  0  0  0  0  0  0  0  0
    4.1195    3.4966   18.6079 C   0  0  0  0  0  0  0  0  0  0  0  0
    4.7448    4.1129   20.8838 C   0  0  0  0  0  0  0  0  0  0  0  0
    3.9301    4.9110   21.5995 C   0  0  0  0  0  0  0  0  0  0  0  0
    4.4328    5.9138   22.4046 N   0  0  0  0  0  0  0  0  0  0  0  0
    5.7404    6.1469   22.5159 C   0  0  0  0  0  0  0  0  0  0  0  0
    6.4967    7.0364   23.2098 N   0  0  0  0  0  0  0  0  0  0  0  0
    7.7922    6.8454   22.9676 C   0  0  0  0  0  0  0  0  0  0  0  0
    7.8662    5.7912   22.0831 C   0  0  0  0  0  0  0  0  0  0  0  0
    6.5836    5.3393   21.7880 C   0  0  0  0  0  0  0  0  0  0  0  0
    6.0913    4.3694   21.0108 N   0  0  0  0  0  0  0  0  0  0  0  0
    6.1217    7.7798   23.8545 H   0  0  0  0  0  0  0  0  0  0  0  0
    2.4723    4.0704   11.3517 C   0  0  0  0  0  0  0  0  0  0  0  0
    2.3735    4.8136   12.4988 C   0  0  0  0  0  0  0  0  0  0  0  0
    2.5445    4.2406   13.7531 C   0  0  0  0  0  0  0  0  0  0  0  0
    2.8201    2.9013   13.9093 C   0  0  0  0  0  0  0  0  0  0  0  0
    2.9202    2.1513   12.7758 C   0  0  0  0  0  0  0  0  0  0  0  0
    2.7492    2.7212   11.4986 C   0  0  0  0  0  0  0  0  0  0  0  0
    2.8682    1.8686   10.3047 C   0  0  0  0  0  0  0  0  0  0  0  0
    1.7565    1.8045    9.5261 F   0  0  0  0  0  0  0  0  0  0  0  0
    3.3567    0.6004   10.6274 F   0  0  0  0  0  0  0  0  0  0  0  0
    3.8720    2.4105    9.4884 F   0  0  0  0  0  0  0  0  0  0  0  0
    2.2525    4.6411   10.0286 C   0  0  0  0  0  0  0  0  0  0  0  0
    2.9513    6.9175    6.0656 C   0  0  0  0  0  0  0  0  0  0  0  0
    2.8317    5.9060    7.0860 N   0  0  0  0  0  0  0  0  0  0  0  0
    1.5197    5.8567    7.6790 C   0  0  0  0  0  0  0  0  0  0  0  0
    1.4291    6.6141    8.9601 C   0  0  0  0  0  0  0  0  0  0  0  0
    2.3855    6.0864    9.9531 N   0  0  0  0  0  0  0  0  0  0  0  0
    3.6896    6.4008    9.3658 C   0  0  0  0  0  0  0  0  0  0  0  0
    3.9083    5.8578    8.0009 C   0  0  0  0  0  0  0  0  0  0  0  0
 33 34  1  0  0  0
 34 35  1  0  0  0
 35 36  1  0  0  0
 36 37  1  0  0  0
 37 32  1  0  0  0
 32 22  1  0  0  0
 22 23  2  0  0  0
 23 24  1  0  0  0
 24 25  2  0  0  0
 25 26  1  0  0  0
 26 27  2  0  0  0
 27 28  1  0  0  0
 28 29  1  0  0  0
 28 30  1  0  0  0
 28 31  1  0  0  0
 25  1  1  0  0  0
  1  2  2  0  0  0
  1  3  1  0  0  0
  3  5  1  0  0  0
  5  6  2  0  0  0
  6  7  1  0  0  0
  7  8  2  0  0  0
  8  9  1  0  0  0
  8 10  1  0  0  0
 10 11  2  0  0  0
 10 12  1  0  0  0
 12 13  2  0  0  0
 13 14  1  0  0  0
 14 15  2  0  0  0
 15 16  1  0  0  0
 16 17  1  0  0  0
 17 18  2  0  0  0
 18 19  1  0  0  0
 19 20  2  0  0  0
 37 38  1  0  0  0
 38 39  1  0  0  0
 39 34  1  0  0  0
 27 22  1  0  0  0
 11  5  1  0  0  0
 20 12  1  0  0  0
 19 15  1  0  0  0
  3  4  1  0  0  0
 16 21  1  0  0  0
M  END
> <minimizedAffinity>
-8.19030

> <CNNscore>
0.2161672264

> <CNNaffinity>
6.3039231300

> <CNN_VS>
1.3627015352

> <CNNaffinity_variance>
0.3250485957

$$$$
[H]c1nc2c(nc1-c1c([H])c(N([H])C(=O)c3c([H])c([H])c(C([H])([H])N4C([H])([H])C([H])([H])N(C([H])([H])[H])C([H])([H])C4([H])[H])c(C(F)(F)F)c3[H])c([H])c([H])c1C([H])([H])[H])c([H])c([H])n2[H]


 39 43  0  0  0  0  0  0  0  0999 V2000
    3.6397    9.1582   16.5160 C   0  0  0  0  0  0  0  0  0  0  0  0
    3.1666   10.2338   16.0548 O   0  0  0  0  0  0  0  0  0  0  0  0
    3.6958    8.0203   15.7032 N   0  0  0  0  0  0  0  0  0  0  0  0
    4.1059    7.1207   16.1386 H   0  0  0  0  0  0  0  0  0  0  0  0
    3.2607    7.9640   14.3528 C   0  0  0  0  0  0  0  0  0  0  0  0
    2.0292    8.3490   13.9064 C   0  0  0  0  0  0  0  0  0  0  0  0
    1.6465    8.2516   12.5986 C   0  0  0  0  0  0  0  0  0  0  0  0
    2.5261    7.7429   11.6523 C   0  0  0  0  0  0  0  0  0  0  0  0
    2.0530    7.7388   10.2349 C   0  0  0  0  0  0  0  0  0  0  0  0
    3.7588    7.3462   12.0477 C   0  0  0  0  0  0  0  0  0  0  0  0
    4.1425    7.4540   13.4091 C   0  0  0  0  0  0  0  0  0  0  0  0
    4.7782    6.8463   11.1339 C   0  0  0  0  0  0  0  0  0  0  0  0
    5.6191    7.5980   10.3983 C   0  0  0  0  0  0  0  0  0  0  0  0
    6.5006    7.0235    9.5043 N   0  0  0  0  0  0  0  0  0  0  0  0
    6.5666    5.7051    9.3197 C   0  0  0  0  0  0  0  0  0  0  0  0
    7.3119    4.8867    8.5326 N   0  0  0  0  0  0  0  0  0  0  0  0
    6.9815    3.6118    8.7299 C   0  0  0  0  0  0  0  0  0  0  0  0
    5.9848    3.6163    9.6816 C   0  0  0  0  0  0  0  0  0  0  0  0
    5.7112    4.9259   10.0640 C   0  0  0  0  0  0  0  0  0  0  0  0
    4.8604    5.4875   10.9288 N   0  0  0  0  0  0  0  0  0  0  0  0
    8.0528    5.2047    7.8552 H   0  0  0  0  0  0  0  0  0  0  0  0
    5.0484    9.1553   20.5960 C   0  0  0  0  0  0  0  0  0  0  0  0
    4.9379   10.3110   19.8677 C   0  0  0  0  0  0  0  0  0  0  0  0
    4.4852   10.3018   18.5540 C   0  0  0  0  0  0  0  0  0  0  0  0
    4.1261    9.1361   17.9167 C   0  0  0  0  0  0  0  0  0  0  0  0
    4.2322    7.9798   18.6303 C   0  0  0  0  0  0  0  0  0  0  0  0
    4.6895    7.9767   19.9630 C   0  0  0  0  0  0  0  0  0  0  0  0
    4.7854    6.7013   20.6914 C   0  0  0  0  0  0  0  0  0  0  0  0
    4.4570    6.7608   22.0085 F   0  0  0  0  0  0  0  0  0  0  0  0
    6.0225    6.0860   20.4864 F   0  0  0  0  0  0  0  0  0  0  0  0
    3.8726    5.8068   20.1132 F   0  0  0  0  0  0  0  0  0  0  0  0
    5.5630    9.1362   21.9595 C   0  0  0  0  0  0  0  0  0  0  0  0
    9.0144    7.6009   24.6252 C   0  0  0  0  0  0  0  0  0  0  0  0
    7.7428    7.8053   23.9773 N   0  0  0  0  0  0  0  0  0  0  0  0
    7.8143    7.6783   22.5440 C   0  0  0  0  0  0  0  0  0  0  0  0
    7.9460    8.9900   21.8475 C   0  0  0  0  0  0  0  0  0  0  0  0
    6.8020    9.8694   22.1590 N   0  0  0  0  0  0  0  0  0  0  0  0
    6.9584   10.1321   23.5911 C   0  0  0  0  0  0  0  0  0  0  0  0
    7.0111    8.9198   24.4474 C   0  0  0  0  0  0  0  0  0  0  0  0
 33 34  1  0  0  0
 34 35  1  0  0  0
 35 36  1  0  0  0
 36 37  1  0  0  0
 37 32  1  0  0  0
 32 22  1  0  0  0
 22 23  2  0  0  0
 23 24  1  0  0  0
 24 25  2  0  0  0
 25 26  1  0  0  0
 26 27  2  0  0  0
 27 28  1  0  0  0
 28 29  1  0  0  0
 28 30  1  0  0  0
 28 31  1  0  0  0
 25  1  1  0  0  0
  1  2  2  0  0  0
  1  3  1  0  0  0
  3  5  1  0  0  0
  5  6  2  0  0  0
  6  7  1  0  0  0
  7  8  2  0  0  0
  8  9  1  0  0  0
  8 10  1  0  0  0
 10 11  2  0  0  0
 10 12  1  0  0  0
 12 13  2  0  0  0
 13 14  1  0  0  0
 14 15  2  0  0  0
 15 16  1  0  0  0
 16 17  1  0  0  0
 17 18  2  0  0  0
 18 19  1  0  0  0
 19 20  2  0  0  0
 37 38  1  0  0  0
 38 39  1  0  0  0
 39 34  1  0  0  0
 27 22  1  0  0  0
 11  5  1  0  0  0
 20 12  1  0  0  0
 19 15  1  0  0  0
  3  4  1  0  0  0
 16 21  1  0  0  0
M  END
> <minimizedAffinity>
-8.09293

> <CNNscore>
0.1987080872

> <CNNaffinity>
5.7073254585

> <CNN_VS>
1.1340917349

> <CNNaffinity_variance>
0.4879331589

$$$$
[H]c1nc2c(nc1-c1c([H])c(N([H])C(=O)c3c([H])c([H])c(C([H])([H])N4C([H])([H])C([H])([H])N(C([H])([H])[H])C([H])([H])C4([H])[H])c(C(F)(F)F)c3[H])c([H])c([H])c1C([H])([H])[H])c([H])c([H])n2[H]


 39 43  0  0  0  0  0  0  0  0999 V2000
    2.8142    5.8514   16.9577 C   0  0  0  0  0  0  0  0  0  0  0  0
    2.0820    4.8237   16.9933 O   0  0  0  0  0  0  0  0  0  0  0  0
    2.9465    6.5678   15.7627 N   0  0  0  0  0  0  0  0  0  0  0  0
    3.5846    7.4393   15.7761 H   0  0  0  0  0  0  0  0  0  0  0  0
    2.3014    6.2377   14.5417 C   0  0  0  0  0  0  0  0  0  0  0  0
    0.9782    5.9284   14.4095 C   0  0  0  0  0  0  0  0  0  0  0  0
    0.4072    5.5913   13.2151 C   0  0  0  0  0  0  0  0  0  0  0  0
    1.1789    5.5522   12.0614 C   0  0  0  0  0  0  0  0  0  0  0  0
    0.4607    5.2449   10.7877 C   0  0  0  0  0  0  0  0  0  0  0  0
    2.4973    5.8497   12.1428 C   0  0  0  0  0  0  0  0  0  0  0  0
    3.0762    6.1987   13.3900 C   0  0  0  0  0  0  0  0  0  0  0  0
    3.3888    5.8902   10.9906 C   0  0  0  0  0  0  0  0  0  0  0  0
    4.2098    4.9011   10.5898 C   0  0  0  0  0  0  0  0  0  0  0  0
    5.0715    5.0703    9.5243 N   0  0  0  0  0  0  0  0  0  0  0  0
    5.1394    6.2122    8.8402 C   0  0  0  0  0  0  0  0  0  0  0  0
    5.8693    6.6499    7.7818 N   0  0  0  0  0  0  0  0  0  0  0  0
    5.5506    7.9061    7.4751 C   0  0  0  0  0  0  0  0  0  0  0  0
    4.5778    8.2859    8.3743 C   0  0  0  0  0  0  0  0  0  0  0  0
    4.3068    7.2316    9.2410 C   0  0  0  0  0  0  0  0  0  0  0  0
    3.4740    7.0619   10.2728 N   0  0  0  0  0  0  0  0  0  0  0  0
    6.5911    6.0830    7.2655 H   0  0  0  0  0  0  0  0  0  0  0  0
    4.8537    7.1290   20.5408 C   0  0  0  0  0  0  0  0  0  0  0  0
    4.7032    7.9557   19.4581 C   0  0  0  0  0  0  0  0  0  0  0  0
    4.0467    7.5348   18.3080 C   0  0  0  0  0  0  0  0  0  0  0  0
    3.5158    6.2701   18.1952 C   0  0  0  0  0  0  0  0  0  0  0  0
    3.6596    5.4383   19.2652 C   0  0  0  0  0  0  0  0  0  0  0  0
    4.3228    5.8539   20.4367 C   0  0  0  0  0  0  0  0  0  0  0  0
    4.4513    4.9181   21.5655 C   0  0  0  0  0  0  0  0  0  0  0  0
    3.7784    5.2731   22.6912 F   0  0  0  0  0  0  0  0  0  0  0  0
    5.7888    4.6126   21.8280 F   0  0  0  0  0  0  0  0  0  0  0  0
    3.9043    3.6889   21.1686 F   0  0  0  0  0  0  0  0  0  0  0  0
    5.5773    7.5341   21.7394 C   0  0  0  0  0  0  0  0  0  0  0  0
    9.4390    7.7844   24.2692 C   0  0  0  0  0  0  0  0  0  0  0  0
    8.1235    7.4762   23.7662 N   0  0  0  0  0  0  0  0  0  0  0  0
    8.1473    6.8846   22.4528 C   0  0  0  0  0  0  0  0  0  0  0  0
    7.9129    7.8741   21.3624 C   0  0  0  0  0  0  0  0  0  0  0  0
    6.6053    8.5392   21.5264 N   0  0  0  0  0  0  0  0  0  0  0  0
    6.7684    9.3036   22.7648 C   0  0  0  0  0  0  0  0  0  0  0  0
    7.1652    8.4993   23.9486 C   0  0  0  0  0  0  0  0  0  0  0  0
 33 34  1  0  0  0
 34 35  1  0  0  0
 35 36  1  0  0  0
 36 37  1  0  0  0
 37 32  1  0  0  0
 32 22  1  0  0  0
 22 23  2  0  0  0
 23 24  1  0  0  0
 24 25  2  0  0  0
 25 26  1  0  0  0
 26 27  2  0  0  0
 27 28  1  0  0  0
 28 29  1  0  0  0
 28 30  1  0  0  0
 28 31  1  0  0  0
 25  1  1  0  0  0
  1  2  2  0  0  0
  1  3  1  0  0  0
  3  5  1  0  0  0
  5  6  2  0  0  0
  6  7  1  0  0  0
  7  8  2  0  0  0
  8  9  1  0  0  0
  8 10  1  0  0  0
 10 11  2  0  0  0
 10 12  1  0  0  0
 12 13  2  0  0  0
 13 14  1  0  0  0
 14 15  2  0  0  0
 15 16  1  0  0  0
 16 17  1  0  0  0
 17 18  2  0  0  0
 18 19  1  0  0  0
 19 20  2  0  0  0
 37 38  1  0  0  0
 38 39  1  0  0  0
 39 34  1  0  0  0
 27 22  1  0  0  0
 11  5  1  0  0  0
 20 12  1  0  0  0
 19 15  1  0  0  0
  3  4  1  0  0  0
 16 21  1  0  0  0
M  END
> <minimizedAffinity>
-7.86183

> <CNNscore>
0.1853653789

> <CNNaffinity>
5.9159250259

> <CNN_VS>
1.0966076851

> <CNNaffinity_variance>
0.6296807528

$$$$
[H]c1nc2c(nc1-c1c([H])c(N([H])C(=O)c3c([H])c([H])c(C([H])([H])N4C([H])([H])C([H])([H])N(C([H])([H])[H])C([H])([H])C4([H])[H])c(C(F)(F)F)c3[H])c([H])c([H])c1C([H])([H])[H])c([H])c([H])n2[H]


 39 43  0  0  0  0  0  0  0  0999 V2000
    3.0390    2.6154   15.6919 C   0  0  0  0  0  0  0  0  0  0  0  0
    1.8883    2.4351   16.1784 O   0  0  0  0  0  0  0  0  0  0  0  0
    4.1639    2.5269   16.5198 N   0  0  0  0  0  0  0  0  0  0  0  0
    5.1290    2.6905   16.0629 H   0  0  0  0  0  0  0  0  0  0  0  0
    4.1296    2.2333   17.9085 C   0  0  0  0  0  0  0  0  0  0  0  0
    3.7688    1.0330   18.4502 C   0  0  0  0  0  0  0  0  0  0  0  0
    3.7263    0.8055   19.7965 C   0  0  0  0  0  0  0  0  0  0  0  0
    4.0600    1.8195   20.6844 C   0  0  0  0  0  0  0  0  0  0  0  0
    4.0564    1.4643   22.1358 C   0  0  0  0  0  0  0  0  0  0  0  0
    4.4229    3.0285   20.1944 C   0  0  0  0  0  0  0  0  0  0  0  0
    4.4632    3.2498   18.7938 C   0  0  0  0  0  0  0  0  0  0  0  0
    4.8416    4.1464   21.0305 C   0  0  0  0  0  0  0  0  0  0  0  0
    4.0368    5.0963   21.5433 C   0  0  0  0  0  0  0  0  0  0  0  0
    4.5472    6.1579   22.2636 N   0  0  0  0  0  0  0  0  0  0  0  0
    5.8531    6.3015   22.4880 C   0  0  0  0  0  0  0  0  0  0  0  0
    6.6154    7.2163   23.1413 N   0  0  0  0  0  0  0  0  0  0  0  0
    7.9054    6.8936   23.0704 C   0  0  0  0  0  0  0  0  0  0  0  0
    7.9696    5.7253   22.3423 C   0  0  0  0  0  0  0  0  0  0  0  0
    6.6866    5.3384   21.9676 C   0  0  0  0  0  0  0  0  0  0  0  0
    6.1868    4.3123   21.2717 N   0  0  0  0  0  0  0  0  0  0  0  0
    6.2483    8.0682   23.6398 H   0  0  0  0  0  0  0  0  0  0  0  0
    3.4460    3.5290   11.4930 C   0  0  0  0  0  0  0  0  0  0  0  0
    4.0946    4.2532   12.4589 C   0  0  0  0  0  0  0  0  0  0  0  0
    3.9559    3.9528   13.8085 C   0  0  0  0  0  0  0  0  0  0  0  0
    3.1621    2.9168   14.2451 C   0  0  0  0  0  0  0  0  0  0  0  0
    2.5112    2.1894   13.2940 C   0  0  0  0  0  0  0  0  0  0  0  0
    2.6444    2.4842   11.9227 C   0  0  0  0  0  0  0  0  0  0  0  0
    1.9211    1.6681   10.9341 C   0  0  0  0  0  0  0  0  0  0  0  0
    2.6676    0.7214   10.3076 F   0  0  0  0  0  0  0  0  0  0  0  0
    1.2170    2.4652   10.0286 F   0  0  0  0  0  0  0  0  0  0  0  0
    0.9116    0.9682   11.6113 F   0  0  0  0  0  0  0  0  0  0  0  0
    3.5414    3.8542   10.0755 C   0  0  0  0  0  0  0  0  0  0  0  0
    4.4671    3.1716    5.5974 C   0  0  0  0  0  0  0  0  0  0  0  0
    3.8346    3.2494    6.8907 N   0  0  0  0  0  0  0  0  0  0  0  0
    3.8493    4.5788    7.4457 C   0  0  0  0  0  0  0  0  0  0  0  0
    4.9682    4.7982    8.4063 C   0  0  0  0  0  0  0  0  0  0  0  0
    4.8897    3.8474    9.5328 N   0  0  0  0  0  0  0  0  0  0  0  0
    5.1255    2.5498    8.8964 C   0  0  0  0  0  0  0  0  0  0  0  0
    4.1939    2.2180    7.7884 C   0  0  0  0  0  0  0  0  0  0  0  0
 33 34  1  0  0  0
 34 35  1  0  0  0
 35 36  1  0  0  0
 36 37  1  0  0  0
 37 32  1  0  0  0
 32 22  1  0  0  0
 22 23  2  0  0  0
 23 24  1  0  0  0
 24 25  2  0  0  0
 25 26  1  0  0  0
 26 27  2  0  0  0
 27 28  1  0  0  0
 28 29  1  0  0  0
 28 30  1  0  0  0
 28 31  1  0  0  0
 25  1  1  0  0  0
  1  2  2  0  0  0
  1  3  1  0  0  0
  3  5  1  0  0  0
  5  6  2  0  0  0
  6  7  1  0  0  0
  7  8  2  0  0  0
  8  9  1  0  0  0
  8 10  1  0  0  0
 10 11  2  0  0  0
 10 12  1  0  0  0
 12 13  2  0  0  0
 13 14  1  0  0  0
 14 15  2  0  0  0
 15 16  1  0  0  0
 16 17  1  0  0  0
 17 18  2  0  0  0
 18 19  1  0  0  0
 19 20  2  0  0  0
 37 38  1  0  0  0
 38 39  1  0  0  0
 39 34  1  0  0  0
 27 22  1  0  0  0
 11  5  1  0  0  0
 20 12  1  0  0  0
 19 15  1  0  0  0
  3  4  1  0  0  0
 16 21  1  0  0  0
M  END
> <minimizedAffinity>
-8.82394

> <CNNscore>
0.1627297550

> <CNNaffinity>
6.3494849205

> <CNN_VS>
1.0332500935

> <CNNaffinity_variance>
0.2907511294

$$$$
[H]c1nc2c(nc1-c1c([H])c(N([H])C(=O)c3c([H])c([H])c(C([H])([H])N4C([H])([H])C([H])([H])N(C([H])([H])[H])C([H])([H])C4([H])[H])c(C(F)(F)F)c3[H])c([H])c([H])c1C([H])([H])[H])c([H])c([H])n2[H]


 39 43  0  0  0  0  0  0  0  0999 V2000
    3.3982    2.1900   16.2055 C   0  0  0  0  0  0  0  0  0  0  0  0
    3.4055    0.9584   16.4825 O   0  0  0  0  0  0  0  0  0  0  0  0
    3.8657    3.1152   17.1457 N   0  0  0  0  0  0  0  0  0  0  0  0
    3.8394    4.1590   16.8684 H   0  0  0  0  0  0  0  0  0  0  0  0
    4.3751    2.7832   18.4287 C   0  0  0  0  0  0  0  0  0  0  0  0
    4.4467    1.5209   18.9443 C   0  0  0  0  0  0  0  0  0  0  0  0
    4.9218    1.2532   20.1968 C   0  0  0  0  0  0  0  0  0  0  0  0
    5.3616    2.2889   21.0103 C   0  0  0  0  0  0  0  0  0  0  0  0
    5.9321    1.9010   22.3356 C   0  0  0  0  0  0  0  0  0  0  0  0
    5.3085    3.5588   20.5432 C   0  0  0  0  0  0  0  0  0  0  0  0
    4.8133    3.8214   19.2400 C   0  0  0  0  0  0  0  0  0  0  0  0
    5.7898    4.7145   21.2892 C   0  0  0  0  0  0  0  0  0  0  0  0
    5.1021    5.8484   21.5225 C   0  0  0  0  0  0  0  0  0  0  0  0
    5.6800    6.9167   22.1792 N   0  0  0  0  0  0  0  0  0  0  0  0
    6.9399    6.8863   22.6132 C   0  0  0  0  0  0  0  0  0  0  0  0
    7.7460    7.7611   23.2686 N   0  0  0  0  0  0  0  0  0  0  0  0
    8.9510    7.2320   23.4721 C   0  0  0  0  0  0  0  0  0  0  0  0
    8.9129    5.9680   22.9243 C   0  0  0  0  0  0  0  0  0  0  0  0
    7.6542    5.7339   22.3793 C   0  0  0  0  0  0  0  0  0  0  0  0
    7.0892    4.7024   21.7437 N   0  0  0  0  0  0  0  0  0  0  0  0
    7.4677    8.7281   23.5790 H   0  0  0  0  0  0  0  0  0  0  0  0
    1.8774    3.3965   12.3504 C   0  0  0  0  0  0  0  0  0  0  0  0
    1.5093    2.2142   12.9375 C   0  0  0  0  0  0  0  0  0  0  0  0
    2.0058    1.8332   14.1782 C   0  0  0  0  0  0  0  0  0  0  0  0
    2.8907    2.6195   14.8800 C   0  0  0  0  0  0  0  0  0  0  0  0
    3.2650    3.7978   14.3062 C   0  0  0  0  0  0  0  0  0  0  0  0
    2.7681    4.1948   13.0490 C   0  0  0  0  0  0  0  0  0  0  0  0
    3.2024    5.4774   12.4722 C   0  0  0  0  0  0  0  0  0  0  0  0
    4.2794    6.0474   13.0732 F   0  0  0  0  0  0  0  0  0  0  0  0
    2.1359    6.3711   12.3495 F   0  0  0  0  0  0  0  0  0  0  0  0
    3.5895    5.2421   11.1446 F   0  0  0  0  0  0  0  0  0  0  0  0
    1.4044    3.7950   11.0306 C   0  0  0  0  0  0  0  0  0  0  0  0
   -1.2671    6.5412    8.4427 C   0  0  0  0  0  0  0  0  0  0  0  0
   -0.2011    5.9894    9.2413 N   0  0  0  0  0  0  0  0  0  0  0  0
    0.3365    4.7687    8.6967 C   0  0  0  0  0  0  0  0  0  0  0  0
   -0.2456    3.5454    9.3194 C   0  0  0  0  0  0  0  0  0  0  0  0
   -0.0013    3.5278   10.7751 N   0  0  0  0  0  0  0  0  0  0  0  0
   -0.7842    4.6653   11.2626 C   0  0  0  0  0  0  0  0  0  0  0  0
   -0.4530    5.9687   10.6322 C   0  0  0  0  0  0  0  0  0  0  0  0
 33 34  1  0  0  0
 34 35  1  0  0  0
 35 36  1  0  0  0
 36 37  1  0  0  0
 37 32  1  0  0  0
 32 22  1  0  0  0
 22 23  2  0  0  0
 23 24  1  0  0  0
 24 25  2  0  0  0
 25 26  1  0  0  0
 26 27  2  0  0  0
 27 28  1  0  0  0
 28 29  1  0  0  0
 28 30  1  0  0  0
 28 31  1  0  0  0
 25  1  1  0  0  0
  1  2  2  0  0  0
  1  3  1  0  0  0
  3  5  1  0  0  0
  5  6  2  0  0  0
  6  7  1  0  0  0
  7  8  2  0  0  0
  8  9  1  0  0  0
  8 10  1  0  0  0
 10 11  2  0  0  0
 10 12  1  0  0  0
 12 13  2  0  0  0
 13 14  1  0  0  0
 14 15  2  0  0  0
 15 16  1  0  0  0
 16 17  1  0  0  0
 17 18  2  0  0  0
 18 19  1  0  0  0
 19 20  2  0  0  0
 37 38  1  0  0  0
 38 39  1  0  0  0
 39 34  1  0  0  0
 27 22  1  0  0  0
 11  5  1  0  0  0
 20 12  1  0  0  0
 19 15  1  0  0  0
  3  4  1  0  0  0
 16 21  1  0  0  0
M  END
> <minimizedAffinity>
-8.59178

> <CNNscore>
0.1613909304

> <CNNaffinity>
6.2348151207

> <CNN_VS>
1.0062426329

> <CNNaffinity_variance>
0.2799321413

$$$$
[H]c1nc2c(nc1-c1c([H])c(N([H])C(=O)c3c([H])c([H])c(C([H])([H])N4C([H])([H])C([H])([H])N(C([H])([H])[H])C([H])([H])C4([H])[H])c(C(F)(F)F)c3[H])c([H])c([H])c1C([H])([H])[H])c([H])c([H])n2[H]


 39 43  0  0  0  0  0  0  0  0999 V2000
    2.9986    3.2848   14.8233 C   0  0  0  0  0  0  0  0  0  0  0  0
    4.2021    3.6568   14.7417 O   0  0  0  0  0  0  0  0  0  0  0  0
    2.5291    2.7104   16.0100 N   0  0  0  0  0  0  0  0  0  0  0  0
    1.4935    2.4041   16.0359 H   0  0  0  0  0  0  0  0  0  0  0  0
    3.3093    2.5075   17.1788 C   0  0  0  0  0  0  0  0  0  0  0  0
    3.8964    1.3283   17.5379 C   0  0  0  0  0  0  0  0  0  0  0  0
    4.6178    1.1746   18.6877 C   0  0  0  0  0  0  0  0  0  0  0  0
    4.7825    2.2468   19.5544 C   0  0  0  0  0  0  0  0  0  0  0  0
    5.6453    2.0115   20.7515 C   0  0  0  0  0  0  0  0  0  0  0  0
    4.2172    3.4368   19.2418 C   0  0  0  0  0  0  0  0  0  0  0  0
    3.4714    3.5817   18.0437 C   0  0  0  0  0  0  0  0  0  0  0  0
    4.3680    4.6399   20.0503 C   0  0  0  0  0  0  0  0  0  0  0  0
    4.2488    4.7137   21.3895 C   0  0  0  0  0  0  0  0  0  0  0  0
    4.3372    5.9214   22.0530 N   0  0  0  0  0  0  0  0  0  0  0  0
    4.5418    7.0712   21.4108 C   0  0  0  0  0  0  0  0  0  0  0  0
    4.6678    8.3689   21.7914 N   0  0  0  0  0  0  0  0  0  0  0  0
    4.8658    9.1543   20.7344 C   0  0  0  0  0  0  0  0  0  0  0  0
    4.8662    8.3246   19.6341 C   0  0  0  0  0  0  0  0  0  0  0  0
    4.6635    7.0097   20.0417 C   0  0  0  0  0  0  0  0  0  0  0  0
    4.5779    5.8375   19.4046 N   0  0  0  0  0  0  0  0  0  0  0  0
    4.6180    8.7186   22.7835 H   0  0  0  0  0  0  0  0  0  0  0  0
    0.4112    3.8861   11.4212 C   0  0  0  0  0  0  0  0  0  0  0  0
    0.4353    4.7592   12.4773 C   0  0  0  0  0  0  0  0  0  0  0  0
    1.2703    4.5562   13.5693 C   0  0  0  0  0  0  0  0  0  0  0  0
    2.1134    3.4713   13.6483 C   0  0  0  0  0  0  0  0  0  0  0  0
    2.0982    2.5953   12.6043 C   0  0  0  0  0  0  0  0  0  0  0  0
    1.2562    2.7908   11.4917 C   0  0  0  0  0  0  0  0  0  0  0  0
    1.2773    1.8162   10.3889 C   0  0  0  0  0  0  0  0  0  0  0  0
    0.0589    1.3652    9.9915 F   0  0  0  0  0  0  0  0  0  0  0  0
    2.1656    0.7696   10.6472 F   0  0  0  0  0  0  0  0  0  0  0  0
    1.8317    2.4495    9.2667 F   0  0  0  0  0  0  0  0  0  0  0  0
   -0.4885    4.0552   10.2870 C   0  0  0  0  0  0  0  0  0  0  0  0
   -3.4048    5.8572    7.1849 C   0  0  0  0  0  0  0  0  0  0  0  0
   -2.7671    5.0256    8.1750 N   0  0  0  0  0  0  0  0  0  0  0  0
   -2.4732    5.7298    9.3970 C   0  0  0  0  0  0  0  0  0  0  0  0
   -1.0677    6.2228    9.4632 C   0  0  0  0  0  0  0  0  0  0  0  0
   -0.1110    5.1039    9.3542 N   0  0  0  0  0  0  0  0  0  0  0  0
   -0.3233    4.6098    7.9922 C   0  0  0  0  0  0  0  0  0  0  0  0
   -1.7205    4.2138    7.6811 C   0  0  0  0  0  0  0  0  0  0  0  0
 33 34  1  0  0  0
 34 35  1  0  0  0
 35 36  1  0  0  0
 36 37  1  0  0  0
 37 32  1  0  0  0
 32 22  1  0  0  0
 22 23  2  0  0  0
 23 24  1  0  0  0
 24 25  2  0  0  0
 25 26  1  0  0  0
 26 27  2  0  0  0
 27 28  1  0  0  0
 28 29  1  0  0  0
 28 30  1  0  0  0
 28 31  1  0  0  0
 25  1  1  0  0  0
  1  2  2  0  0  0
  1  3  1  0  0  0
  3  5  1  0  0  0
  5  6  2  0  0  0
  6  7  1  0  0  0
  7  8  2  0  0  0
  8  9  1  0  0  0
  8 10  1  0  0  0
 10 11  2  0  0  0
 10 12  1  0  0  0
 12 13  2  0  0  0
 13 14  1  0  0  0
 14 15  2  0  0  0
 15 16  1  0  0  0
 16 17  1  0  0  0
 17 18  2  0  0  0
 18 19  1  0  0  0
 19 20  2  0  0  0
 37 38  1  0  0  0
 38 39  1  0  0  0
 39 34  1  0  0  0
 27 22  1  0  0  0
 11  5  1  0  0  0
 20 12  1  0  0  0
 19 15  1  0  0  0
  3  4  1  0  0  0
 16 21  1  0  0  0
M  END
> <minimizedAffinity>
-8.06653

> <CNNscore>
0.1517990977

> <CNNaffinity>
5.9760742188

> <CNN_VS>
0.9071626663

> <CNNaffinity_variance>
0.3764051795

$$$$
[H]c1nc2c(nc1-c1c([H])c(N([H])C(=O)c3c([H])c([H])c(C([H])([H])N4C([H])([H])C([H])([H])N(C([H])([H])[H])C([H])([H])C4([H])[H])c(C(F)(F)F)c3[H])c([H])c([H])c1C([H])([H])[H])c([H])c([H])n2[H]


 39 43  0  0  0  0  0  0  0  0999 V2000
    2.2589    3.0881   14.9989 C   0  0  0  0  0  0  0  0  0  0  0  0
    2.0129    1.8511   14.9479 O   0  0  0  0  0  0  0  0  0  0  0  0
    2.0398    3.8861   13.8703 N   0  0  0  0  0  0  0  0  0  0  0  0
    2.2658    4.9389   13.9570 H   0  0  0  0  0  0  0  0  0  0  0  0
    1.5388    3.4161   12.6277 C   0  0  0  0  0  0  0  0  0  0  0  0
    2.0952    2.4165   11.8825 C   0  0  0  0  0  0  0  0  0  0  0  0
    1.5909    2.0158   10.6778 C   0  0  0  0  0  0  0  0  0  0  0  0
    0.4604    2.6313   10.1573 C   0  0  0  0  0  0  0  0  0  0  0  0
   -0.0658    2.0834    8.8706 C   0  0  0  0  0  0  0  0  0  0  0  0
   -0.1261    3.6295   10.8595 C   0  0  0  0  0  0  0  0  0  0  0  0
    0.4085    4.0344   12.1096 C   0  0  0  0  0  0  0  0  0  0  0  0
   -1.3431    4.3092   10.4344 C   0  0  0  0  0  0  0  0  0  0  0  0
   -1.5599    4.8624    9.2260 C   0  0  0  0  0  0  0  0  0  0  0  0
   -2.7245    5.5506    8.9497 N   0  0  0  0  0  0  0  0  0  0  0  0
   -3.6897    5.7060    9.8557 C   0  0  0  0  0  0  0  0  0  0  0  0
   -4.9035    6.3154    9.8638 N   0  0  0  0  0  0  0  0  0  0  0  0
   -5.4928    6.1791   11.0502 C   0  0  0  0  0  0  0  0  0  0  0  0
   -4.6200    5.4532   11.8315 C   0  0  0  0  0  0  0  0  0  0  0  0
   -3.4796    5.1470   11.0952 C   0  0  0  0  0  0  0  0  0  0  0  0
   -2.3504    4.4810   11.3569 N   0  0  0  0  0  0  0  0  0  0  0  0
   -5.3311    6.8284    9.0496 H   0  0  0  0  0  0  0  0  0  0  0  0
    3.7341    4.8072   18.6731 C   0  0  0  0  0  0  0  0  0  0  0  0
    3.1692    5.5752   17.6886 C   0  0  0  0  0  0  0  0  0  0  0  0
    2.6987    5.0130   16.5081 C   0  0  0  0  0  0  0  0  0  0  0  0
    2.7758    3.6605   16.2655 C   0  0  0  0  0  0  0  0  0  0  0  0
    3.3364    2.8860   17.2369 C   0  0  0  0  0  0  0  0  0  0  0  0
    3.8164    3.4446   18.4380 C   0  0  0  0  0  0  0  0  0  0  0  0
    4.4126    2.5653   19.4567 C   0  0  0  0  0  0  0  0  0  0  0  0
    3.7496    2.5196   20.6417 F   0  0  0  0  0  0  0  0  0  0  0  0
    5.7739    2.8281   19.6269 F   0  0  0  0  0  0  0  0  0  0  0  0
    4.3898    1.2542   18.9587 F   0  0  0  0  0  0  0  0  0  0  0  0
    4.2744    5.3807   19.8992 C   0  0  0  0  0  0  0  0  0  0  0  0
    5.7283    9.2924   21.8894 C   0  0  0  0  0  0  0  0  0  0  0  0
    4.9302    8.2221   21.3453 N   0  0  0  0  0  0  0  0  0  0  0  0
    5.2124    6.9455   21.9504 C   0  0  0  0  0  0  0  0  0  0  0  0
    6.1678    6.1213   21.1560 C   0  0  0  0  0  0  0  0  0  0  0  0
    5.6417    5.8640   19.8010 N   0  0  0  0  0  0  0  0  0  0  0  0
    5.6192    7.1944   19.1894 C   0  0  0  0  0  0  0  0  0  0  0  0
    4.8356    8.2122   19.9348 C   0  0  0  0  0  0  0  0  0  0  0  0
 33 34  1  0  0  0
 34 35  1  0  0  0
 35 36  1  0  0  0
 36 37  1  0  0  0
 37 32  1  0  0  0
 32 22  1  0  0  0
 22 23  2  0  0  0
 23 24  1  0  0  0
 24 25  2  0  0  0
 25 26  1  0  0  0
 26 27  2  0  0  0
 27 28  1  0  0  0
 28 29  1  0  0  0
 28 30  1  0  0  0
 28 31  1  0  0  0
 25  1  1  0  0  0
  1  2  2  0  0  0
  1  3  1  0  0  0
  3  5  1  0  0  0
  5  6  2  0  0  0
  6  7  1  0  0  0
  7  8  2  0  0  0
  8  9  1  0  0  0
  8 10  1  0  0  0
 10 11  2  0  0  0
 10 12  1  0  0  0
 12 13  2  0  0  0
 13 14  1  0  0  0
 14 15  2  0  0  0
 15 16  1  0  0  0
 16 17  1  0  0  0
 17 18  2  0  0  0
 18 19  1  0  0  0
 19 20  2  0  0  0
 37 38  1  0  0  0
 38 39  1  0  0  0
 39 34  1  0  0  0
 27 22  1  0  0  0
 11  5  1  0  0  0
 20 12  1  0  0  0
 19 15  1  0  0  0
  3  4  1  0  0  0
 16 21  1  0  0  0
M  END
> <minimizedAffinity>
-8.22616

> <CNNscore>
0.1361485422

> <CNNaffinity>
6.2558279037

> <CNN_VS>
0.8517218232

> <CNNaffinity_variance>
0.2354464233

$$$$
[H]c1nc2c(nc1-c1c([H])c(N([H])C(=O)c3c([H])c([H])c(C([H])([H])N4C([H])([H])C([H])([H])N(C([H])([H])[H])C([H])([H])C4([H])[H])c(C(F)(F)F)c3[H])c([H])c([H])c1C([H])([H])[H])c([H])c([H])n2[H]


 39 43  0  0  0  0  0  0  0  0999 V2000
    2.7681    7.6517   11.5445 C   0  0  0  0  0  0  0  0  0  0  0  0
    1.7351    8.3568   11.3739 O   0  0  0  0  0  0  0  0  0  0  0  0
    3.5243    7.2499   10.4376 N   0  0  0  0  0  0  0  0  0  0  0  0
    4.3992    6.6456   10.6288 H   0  0  0  0  0  0  0  0  0  0  0  0
    3.2303    7.5819    9.0888 C   0  0  0  0  0  0  0  0  0  0  0  0
    2.0181    7.4138    8.4836 C   0  0  0  0  0  0  0  0  0  0  0  0
    1.7898    7.7246    7.1730 C   0  0  0  0  0  0  0  0  0  0  0  0
    2.8156    8.2383    6.3909 C   0  0  0  0  0  0  0  0  0  0  0  0
    2.4612    8.6182    4.9899 C   0  0  0  0  0  0  0  0  0  0  0  0
    4.0367    8.4213    6.9467 C   0  0  0  0  0  0  0  0  0  0  0  0
    4.2586    8.0947    8.3092 C   0  0  0  0  0  0  0  0  0  0  0  0
    5.1694    9.0003    6.2354 C   0  0  0  0  0  0  0  0  0  0  0  0
    5.6623   10.2413    6.4088 C   0  0  0  0  0  0  0  0  0  0  0  0
    6.6956   10.7192    5.6276 N   0  0  0  0  0  0  0  0  0  0  0  0
    7.2566    9.9864    4.6660 C   0  0  0  0  0  0  0  0  0  0  0  0
    8.2564   10.1903    3.7696 N   0  0  0  0  0  0  0  0  0  0  0  0
    8.4341    9.1132    3.0068 C   0  0  0  0  0  0  0  0  0  0  0  0
    7.5103    8.1838    3.4334 C   0  0  0  0  0  0  0  0  0  0  0  0
    6.7606    8.7169    4.4774 C   0  0  0  0  0  0  0  0  0  0  0  0
    5.7606    8.2592    5.2373 N   0  0  0  0  0  0  0  0  0  0  0  0
    8.8213   11.0745    3.6803 H   0  0  0  0  0  0  0  0  0  0  0  0
    3.8725    6.5990   15.5822 C   0  0  0  0  0  0  0  0  0  0  0  0
    3.7899    7.9033   15.1696 C   0  0  0  0  0  0  0  0  0  0  0  0
    3.4354    8.2324   13.8669 C   0  0  0  0  0  0  0  0  0  0  0  0
    3.1505    7.2699   12.9255 C   0  0  0  0  0  0  0  0  0  0  0  0
    3.2298    5.9688   13.3235 C   0  0  0  0  0  0  0  0  0  0  0  0
    3.5878    5.6229   14.6416 C   0  0  0  0  0  0  0  0  0  0  0  0
    3.6585    4.2029   15.0225 C   0  0  0  0  0  0  0  0  0  0  0  0
    4.6705    3.8806   15.8699 F   0  0  0  0  0  0  0  0  0  0  0  0
    3.6271    3.3697   13.9018 F   0  0  0  0  0  0  0  0  0  0  0  0
    2.4758    3.8819   15.7050 F   0  0  0  0  0  0  0  0  0  0  0  0
    4.2857    6.2298   16.9303 C   0  0  0  0  0  0  0  0  0  0  0  0
    5.1437    5.6916   21.4414 C   0  0  0  0  0  0  0  0  0  0  0  0
    5.2038    5.6629   20.0012 N   0  0  0  0  0  0  0  0  0  0  0  0
    5.1933    6.9771   19.4109 C   0  0  0  0  0  0  0  0  0  0  0  0
    3.8373    7.4051   18.9627 C   0  0  0  0  0  0  0  0  0  0  0  0
    3.2913    6.4652   17.9639 N   0  0  0  0  0  0  0  0  0  0  0  0
    3.1148    5.2274   18.7263 C   0  0  0  0  0  0  0  0  0  0  0  0
    4.3428    4.7220   19.3913 C   0  0  0  0  0  0  0  0  0  0  0  0
 33 34  1  0  0  0
 34 35  1  0  0  0
 35 36  1  0  0  0
 36 37  1  0  0  0
 37 32  1  0  0  0
 32 22  1  0  0  0
 22 23  2  0  0  0
 23 24  1  0  0  0
 24 25  2  0  0  0
 25 26  1  0  0  0
 26 27  2  0  0  0
 27 28  1  0  0  0
 28 29  1  0  0  0
 28 30  1  0  0  0
 28 31  1  0  0  0
 25  1  1  0  0  0
  1  2  2  0  0  0
  1  3  1  0  0  0
  3  5  1  0  0  0
  5  6  2  0  0  0
  6  7  1  0  0  0
  7  8  2  0  0  0
  8  9  1  0  0  0
  8 10  1  0  0  0
 10 11  2  0  0  0
 10 12  1  0  0  0
 12 13  2  0  0  0
 13 14  1  0  0  0
 14 15  2  0  0  0
 15 16  1  0  0  0
 16 17  1  0  0  0
 17 18  2  0  0  0
 18 19  1  0  0  0
 19 20  2  0  0  0
 37 38  1  0  0  0
 38 39  1  0  0  0
 39 34  1  0  0  0
 27 22  1  0  0  0
 11  5  1  0  0  0
 20 12  1  0  0  0
 19 15  1  0  0  0
  3  4  1  0  0  0
 16 21  1  0  0  0
M  END
> <minimizedAffinity>
-7.98517

> <CNNscore>
0.1195491180

> <CNNaffinity>
5.4415488243

> <CNN_VS>
0.6505323648

> <CNNaffinity_variance>
0.1475723833

$$$$
[H]c1nc2c(nc1-c1c([H])c(N([H])C(=O)c3c([H])c([H])c(C([H])([H])N4C([H])([H])C([H])([H])N(C([H])([H])[H])C([H])([H])C4([H])[H])c(C(F)(F)F)c3[H])c([H])c([H])c1C([H])([H])[H])c([H])c([H])n2[H]


 39 43  0  0  0  0  0  0  0  0999 V2000
    2.6217    5.5584   16.9349 C   0  0  0  0  0  0  0  0  0  0  0  0
    1.9392    4.4979   16.9895 O   0  0  0  0  0  0  0  0  0  0  0  0
    2.6629    6.2963   15.7464 N   0  0  0  0  0  0  0  0  0  0  0  0
    3.2609    7.1959   15.7427 H   0  0  0  0  0  0  0  0  0  0  0  0
    1.9745    5.9535   14.5528 C   0  0  0  0  0  0  0  0  0  0  0  0
    0.6733    6.2627   14.2786 C   0  0  0  0  0  0  0  0  0  0  0  0
    0.0453    5.8880   13.1247 C   0  0  0  0  0  0  0  0  0  0  0  0
    0.7327    5.1586   12.1637 C   0  0  0  0  0  0  0  0  0  0  0  0
   -0.0068    4.8529   10.9018 C   0  0  0  0  0  0  0  0  0  0  0  0
    2.0255    4.8266   12.3915 C   0  0  0  0  0  0  0  0  0  0  0  0
    2.6646    5.2234   13.5942 C   0  0  0  0  0  0  0  0  0  0  0  0
    2.8562    4.1093   11.4326 C   0  0  0  0  0  0  0  0  0  0  0  0
    3.7730    4.6582   10.6133 C   0  0  0  0  0  0  0  0  0  0  0  0
    4.4556    3.8960    9.6862 N   0  0  0  0  0  0  0  0  0  0  0  0
    4.2459    2.5867    9.5505 C   0  0  0  0  0  0  0  0  0  0  0  0
    4.7549    1.6156    8.7489 N   0  0  0  0  0  0  0  0  0  0  0  0
    4.1942    0.4382    9.0185 C   0  0  0  0  0  0  0  0  0  0  0  0
    3.2904    0.6667   10.0335 C   0  0  0  0  0  0  0  0  0  0  0  0
    3.3100    2.0140   10.3806 C   0  0  0  0  0  0  0  0  0  0  0  0
    2.6527    2.7568   11.2769 N   0  0  0  0  0  0  0  0  0  0  0  0
    5.4925    1.7612    8.0115 H   0  0  0  0  0  0  0  0  0  0  0  0
    4.7771    6.8792   20.4334 C   0  0  0  0  0  0  0  0  0  0  0  0
    4.5947    7.6912   19.3446 C   0  0  0  0  0  0  0  0  0  0  0  0
    3.9009    7.2565   18.2218 C   0  0  0  0  0  0  0  0  0  0  0  0
    3.3632    5.9921   18.1436 C   0  0  0  0  0  0  0  0  0  0  0  0
    3.5387    5.1747   19.2200 C   0  0  0  0  0  0  0  0  0  0  0  0
    4.2398    5.6044   20.3640 C   0  0  0  0  0  0  0  0  0  0  0  0
    4.4015    4.6840   21.5012 C   0  0  0  0  0  0  0  0  0  0  0  0
    3.7609    5.0538   22.6409 F   0  0  0  0  0  0  0  0  0  0  0  0
    5.7462    4.3828   21.7292 F   0  0  0  0  0  0  0  0  0  0  0  0
    3.8444    3.4493   21.1367 F   0  0  0  0  0  0  0  0  0  0  0  0
    5.5395    7.2986   21.6027 C   0  0  0  0  0  0  0  0  0  0  0  0
    9.5020    7.5120   23.9752 C   0  0  0  0  0  0  0  0  0  0  0  0
    8.1633    7.2191   23.5273 N   0  0  0  0  0  0  0  0  0  0  0  0
    8.1263    6.6172   22.2189 C   0  0  0  0  0  0  0  0  0  0  0  0
    7.8629    7.6016   21.1306 C   0  0  0  0  0  0  0  0  0  0  0  0
    6.5725    8.2870   21.3408 N   0  0  0  0  0  0  0  0  0  0  0  0
    6.7956    9.0583   22.5654 C   0  0  0  0  0  0  0  0  0  0  0  0
    7.2277    8.2575   23.7391 C   0  0  0  0  0  0  0  0  0  0  0  0
 33 34  1  0  0  0
 34 35  1  0  0  0
 35 36  1  0  0  0
 36 37  1  0  0  0
 37 32  1  0  0  0
 32 22  1  0  0  0
 22 23  2  0  0  0
 23 24  1  0  0  0
 24 25  2  0  0  0
 25 26  1  0  0  0
 26 27  2  0  0  0
 27 28  1  0  0  0
 28 29  1  0  0  0
 28 30  1  0  0  0
 28 31  1  0  0  0
 25  1  1  0  0  0
  1  2  2  0  0  0
  1  3  1  0  0  0
  3  5  1  0  0  0
  5  6  2  0  0  0
  6  7  1  0  0  0
  7  8  2  0  0  0
  8  9  1  0  0  0
  8 10  1  0  0  0
 10 11  2  0  0  0
 10 12  1  0  0  0
 12 13  2  0  0  0
 13 14  1  0  0  0
 14 15  2  0  0  0
 15 16  1  0  0  0
 16 17  1  0  0  0
 17 18  2  0  0  0
 18 19  1  0  0  0
 19 20  2  0  0  0
 37 38  1  0  0  0
 38 39  1  0  0  0
 39 34  1  0  0  0
 27 22  1  0  0  0
 11  5  1  0  0  0
 20 12  1  0  0  0
 19 15  1  0  0  0
  3  4  1  0  0  0
 16 21  1  0  0  0
M  END
> <minimizedAffinity>
-8.17493

> <CNNscore>
0.1147533804

> <CNNaffinity>
5.9845910072

> <CNN_VS>
0.6867520213

> <CNNaffinity_variance>
0.4610849917

$$$$
[H]N=C(N([H])[H])N([H])C([H])([H])C([H])([H])C([H])([H])[C@@]([H])(C(=O)N([H])[C@]([H])(C(=O)c1nc2c([H])c([H])c([H])c([H])c2s1)C([H])([H])c1c([H])c([H])c([H])c([H])c1[H])N([H])C(=O)[C@@]1([H])N(C(=O)[C@@]([H])(N([H])C(=O)OC([H])([H])c2c([H])c([H])c([H])c([H])c2[H])C([H])([H])c2c([H])c([H])c([H])c([H])c2[H])C([H])([H])C([H])([H])C1([H])[H]


 66 71  0  0  0  0  0  0  0  0999 V2000
    4.2934    5.3019   18.1246 C   0  0  0  0  0  0  0  0  0  0  0  0
    4.6864    6.2780   17.1603 N   0  0  0  0  0  0  0  0  0  0  0  0
    5.7182    7.2710   17.3290 C   0  0  0  0  0  0  0  0  0  0  0  0
    6.3499    7.3099   18.3491 O   0  0  0  0  0  0  0  0  0  0  0  0
    4.1854    6.2915   16.2424 H   0  0  0  0  0  0  0  0  0  0  0  0
    5.9505    8.2347   16.1824 C   0  0  0  0  0  0  0  0  0  0  0  0
    6.9518    9.2946   16.6347 C   0  0  0  0  0  0  0  0  0  0  0  0
    6.1200   10.2436   17.4764 C   0  0  0  0  0  0  0  0  0  0  0  0
    4.7093    9.8724   17.1641 C   0  0  0  0  0  0  0  0  0  0  0  0
    4.7581    9.0073   15.9430 N   0  0  0  0  0  0  0  0  0  0  0  0
    3.8644    9.1553   14.9199 C   0  0  0  0  0  0  0  0  0  0  0  0
    2.7817    9.8414   15.1807 O   0  0  0  0  0  0  0  0  0  0  0  0
    3.9227    8.6517   13.4975 C   0  0  0  0  0  0  0  0  0  0  0  0
    5.3107    8.6746   13.1214 N   0  0  0  0  0  0  0  0  0  0  0  0
    5.9282    8.1795   11.9585 C   0  0  0  0  0  0  0  0  0  0  0  0
    5.2643    7.5617   11.0955 O   0  0  0  0  0  0  0  0  0  0  0  0
    5.9741    9.1226   13.8204 H   0  0  0  0  0  0  0  0  0  0  0  0
    7.2702    8.3795   11.7583 O   0  0  0  0  0  0  0  0  0  0  0  0
    8.1297    7.3654   11.3012 C   0  0  0  0  0  0  0  0  0  0  0  0
    9.5527    7.6115   11.6090 C   0  0  0  0  0  0  0  0  0  0  0  0
   10.5150    7.0148   10.7726 C   0  0  0  0  0  0  0  0  0  0  0  0
   11.8399    7.1429   11.0274 C   0  0  0  0  0  0  0  0  0  0  0  0
   12.2812    7.8864   12.1444 C   0  0  0  0  0  0  0  0  0  0  0  0
   11.3534    8.4634   12.9559 C   0  0  0  0  0  0  0  0  0  0  0  0
   10.0094    8.3089   12.6649 C   0  0  0  0  0  0  0  0  0  0  0  0
    3.4013    7.1900   13.6081 C   0  0  0  0  0  0  0  0  0  0  0  0
    2.0308    6.9588   13.2790 C   0  0  0  0  0  0  0  0  0  0  0  0
    1.5871    7.3255   12.0119 C   0  0  0  0  0  0  0  0  0  0  0  0
    0.2657    7.1940   11.7022 C   0  0  0  0  0  0  0  0  0  0  0  0
   -0.6867    6.7013   12.6057 C   0  0  0  0  0  0  0  0  0  0  0  0
   -0.1993    6.3600   13.8238 C   0  0  0  0  0  0  0  0  0  0  0  0
    1.1077    6.4657   14.1933 C   0  0  0  0  0  0  0  0  0  0  0  0
    4.1253    4.0301   17.4170 C   0  0  0  0  0  0  0  0  0  0  0  0
    5.0544    3.6168   16.6140 O   0  0  0  0  0  0  0  0  0  0  0  0
    3.0384    3.1373   17.5154 N   0  0  0  0  0  0  0  0  0  0  0  0
    2.2237    3.4069   18.1145 H   0  0  0  0  0  0  0  0  0  0  0  0
    2.9864    1.8857   16.8585 C   0  0  0  0  0  0  0  0  0  0  0  0
    3.2095    0.7595   17.7715 C   0  0  0  0  0  0  0  0  0  0  0  0
    3.0279   -0.4123   17.4262 O   0  0  0  0  0  0  0  0  0  0  0  0
    3.6613    1.0734   19.1665 C   0  0  0  0  0  0  0  0  0  0  0  0
    4.7102    1.7432   19.5459 N   0  0  0  0  0  0  0  0  0  0  0  0
    4.9465    1.9405   20.8286 C   0  0  0  0  0  0  0  0  0  0  0  0
    6.0196    2.6397   21.3474 C   0  0  0  0  0  0  0  0  0  0  0  0
    6.1702    2.7919   22.7099 C   0  0  0  0  0  0  0  0  0  0  0  0
    5.2715    2.2607   23.6060 C   0  0  0  0  0  0  0  0  0  0  0  0
    4.2057    1.5639   23.0874 C   0  0  0  0  0  0  0  0  0  0  0  0
    4.0413    1.4027   21.7044 C   0  0  0  0  0  0  0  0  0  0  0  0
    2.9234    0.6611   20.6415 S   0  0  0  0  0  0  0  0  0  0  0  0
    3.6462    1.7404   15.5270 C   0  0  0  0  0  0  0  0  0  0  0  0
    2.8815    2.2664   14.3793 C   0  0  0  0  0  0  0  0  0  0  0  0
    1.5775    2.0088   14.0694 C   0  0  0  0  0  0  0  0  0  0  0  0
    0.9132    2.5364   12.9792 C   0  0  0  0  0  0  0  0  0  0  0  0
    1.5887    3.4036   12.0988 C   0  0  0  0  0  0  0  0  0  0  0  0
    2.9054    3.6789   12.3914 C   0  0  0  0  0  0  0  0  0  0  0  0
    3.5184    3.1343   13.4788 C   0  0  0  0  0  0  0  0  0  0  0  0
    3.1639    5.5959   19.0357 C   0  0  0  0  0  0  0  0  0  0  0  0
    3.4783    5.2195   20.4973 C   0  0  0  0  0  0  0  0  0  0  0  0
    4.7759    5.9420   20.8263 C   0  0  0  0  0  0  0  0  0  0  0  0
    4.5696    6.9527   21.8251 N   0  0  0  0  0  0  0  0  0  0  0  0
    4.2565    6.6388   22.7883 H   0  0  0  0  0  0  0  0  0  0  0  0
    4.2651    8.9114   20.3729 N   0  0  0  0  0  0  0  0  0  0  0  0
    4.7709    8.3612   21.5632 C   0  0  0  0  0  0  0  0  0  0  0  0
    5.4048    9.1048   22.3950 N   0  0  0  0  0  0  0  0  0  0  0  0
    3.4064    8.5274   19.8904 H   0  0  0  0  0  0  0  0  0  0  0  0
    4.7387    9.7521   19.9155 H   0  0  0  0  0  0  0  0  0  0  0  0
    5.7734    8.6593   23.2794 H   0  0  0  0  0  0  0  0  0  0  0  0
 61 62  1  0  0  0
 62 63  2  0  0  0
 62 59  1  0  0  0
 59 58  1  0  0  0
 58 57  1  0  0  0
 57 56  1  0  0  0
 56  1  1  0  0  0
  1  2  1  0  0  0
  2  3  1  0  0  0
  3  4  2  0  0  0
  3  6  1  0  0  0
  6  7  1  0  0  0
  7  8  1  0  0  0
  8  9  1  0  0  0
  9 10  1  0  0  0
 10 11  1  0  0  0
 11 12  2  0  0  0
 11 13  1  0  0  0
 13 26  1  0  0  0
 26 27  1  0  0  0
 27 28  2  0  0  0
 28 29  1  0  0  0
 29 30  2  0  0  0
 30 31  1  0  0  0
 31 32  2  0  0  0
 13 14  1  0  0  0
 14 15  1  0  0  0
 15 16  2  0  0  0
 15 18  1  0  0  0
 18 19  1  0  0  0
 19 20  1  0  0  0
 20 21  2  0  0  0
 21 22  1  0  0  0
 22 23  2  0  0  0
 23 24  1  0  0  0
 24 25  2  0  0  0
  1 33  1  0  0  0
 33 34  2  0  0  0
 33 35  1  0  0  0
 35 37  1  0  0  0
 37 49  1  0  0  0
 49 50  1  0  0  0
 50 51  2  0  0  0
 51 52  1  0  0  0
 52 53  2  0  0  0
 53 54  1  0  0  0
 54 55  2  0  0  0
 37 38  1  0  0  0
 38 39  2  0  0  0
 38 40  1  0  0  0
 40 41  2  0  0  0
 41 42  1  0  0  0
 42 43  2  0  0  0
 43 44  1  0  0  0
 44 45  2  0  0  0
 45 46  1  0  0  0
 46 47  2  0  0  0
 47 48  1  0  0  0
 10  6  1  0  0  0
 32 27  1  0  0  0
 25 20  1  0  0  0
 55 50  1  0  0  0
 48 40  1  0  0  0
 47 42  1  0  0  0
 61 64  1  0  0  0
 61 65  1  0  0  0
 63 66  1  0  0  0
 59 60  1  0  0  0
  2  5  1  0  0  0
 14 17  1  0  0  0
 35 36  1  0  0  0
M  END
> <minimizedAffinity>
-10.08164

> <CNNscore>
0.5883896351

> <CNNaffinity>
8.0671739578

> <CNN_VS>
4.7466416359

> <CNNaffinity_variance>
0.5579982996

$$$$
[H]N=C(N([H])[H])N([H])C([H])([H])C([H])([H])C([H])([H])[C@@]([H])(C(=O)N([H])[C@]([H])(C(=O)c1nc2c([H])c([H])c([H])c([H])c2s1)C([H])([H])c1c([H])c([H])c([H])c([H])c1[H])N([H])C(=O)[C@@]1([H])N(C(=O)[C@@]([H])(N([H])C(=O)OC([H])([H])c2c([H])c([H])c([H])c([H])c2[H])C([H])([H])c2c([H])c([H])c([H])c([H])c2[H])C([H])([H])C([H])([H])C1([H])[H]


 66 71  0  0  0  0  0  0  0  0999 V2000
    4.6981    5.7240   18.4486 C   0  0  0  0  0  0  0  0  0  0  0  0
    5.0139    6.6898   17.4463 N   0  0  0  0  0  0  0  0  0  0  0  0
    6.1226    7.6112   17.4741 C   0  0  0  0  0  0  0  0  0  0  0  0
    6.8940    7.5913   18.3937 O   0  0  0  0  0  0  0  0  0  0  0  0
    4.3895    6.7518   16.6096 H   0  0  0  0  0  0  0  0  0  0  0  0
    6.2529    8.5782   16.3143 C   0  0  0  0  0  0  0  0  0  0  0  0
    7.2411    9.6743   16.7051 C   0  0  0  0  0  0  0  0  0  0  0  0
    6.4274   10.5966   17.5927 C   0  0  0  0  0  0  0  0  0  0  0  0
    5.0148   10.1750   17.3648 C   0  0  0  0  0  0  0  0  0  0  0  0
    5.0220    9.3076   16.1444 N   0  0  0  0  0  0  0  0  0  0  0  0
    4.0650    9.4204   15.1755 C   0  0  0  0  0  0  0  0  0  0  0  0
    2.9760   10.0692   15.4985 O   0  0  0  0  0  0  0  0  0  0  0  0
    4.0572    8.9140   13.7529 C   0  0  0  0  0  0  0  0  0  0  0  0
    5.4227    8.9605   13.3040 N   0  0  0  0  0  0  0  0  0  0  0  0
    5.9962    8.4282   12.1351 C   0  0  0  0  0  0  0  0  0  0  0  0
    5.3099    7.7491   11.3382 O   0  0  0  0  0  0  0  0  0  0  0  0
    6.1058    9.4621   13.9453 H   0  0  0  0  0  0  0  0  0  0  0  0
    7.3190    8.6588   11.8556 O   0  0  0  0  0  0  0  0  0  0  0  0
    8.3294    8.5605   12.8280 C   0  0  0  0  0  0  0  0  0  0  0  0
    9.6392    8.1522   12.2821 C   0  0  0  0  0  0  0  0  0  0  0  0
    9.6434    7.3183   11.1481 C   0  0  0  0  0  0  0  0  0  0  0  0
   10.8041    6.8510   10.6271 C   0  0  0  0  0  0  0  0  0  0  0  0
   12.0397    7.1987   11.2166 C   0  0  0  0  0  0  0  0  0  0  0  0
   12.0391    8.0036   12.3140 C   0  0  0  0  0  0  0  0  0  0  0  0
   10.8340    8.4595   12.8188 C   0  0  0  0  0  0  0  0  0  0  0  0
    3.5686    7.4435   13.8937 C   0  0  0  0  0  0  0  0  0  0  0  0
    2.2543    7.1440   13.4217 C   0  0  0  0  0  0  0  0  0  0  0  0
    1.8503    7.6907   12.2073 C   0  0  0  0  0  0  0  0  0  0  0  0
    0.5725    7.4898   11.7757 C   0  0  0  0  0  0  0  0  0  0  0  0
   -0.3728    6.7503   12.5008 C   0  0  0  0  0  0  0  0  0  0  0  0
    0.0748    6.2416   13.6749 C   0  0  0  0  0  0  0  0  0  0  0  0
    1.3374    6.4048   14.1596 C   0  0  0  0  0  0  0  0  0  0  0  0
    4.8101    4.3999   17.8316 C   0  0  0  0  0  0  0  0  0  0  0  0
    5.9029    4.0697   17.2188 O   0  0  0  0  0  0  0  0  0  0  0  0
    3.8431    3.3736   17.8350 N   0  0  0  0  0  0  0  0  0  0  0  0
    2.9138    3.5650   18.2767 H   0  0  0  0  0  0  0  0  0  0  0  0
    4.0578    2.0886   17.2841 C   0  0  0  0  0  0  0  0  0  0  0  0
    2.9474    1.6465   16.4338 C   0  0  0  0  0  0  0  0  0  0  0  0
    2.1425    0.7841   16.7996 O   0  0  0  0  0  0  0  0  0  0  0  0
    2.8179    2.2719   15.0770 C   0  0  0  0  0  0  0  0  0  0  0  0
    3.6818    3.0060   14.4386 N   0  0  0  0  0  0  0  0  0  0  0  0
    3.4055    3.4627   13.2323 C   0  0  0  0  0  0  0  0  0  0  0  0
    4.2446    4.2420   12.4589 C   0  0  0  0  0  0  0  0  0  0  0  0
    3.8581    4.6635   11.2039 C   0  0  0  0  0  0  0  0  0  0  0  0
    2.6340    4.3337   10.6694 C   0  0  0  0  0  0  0  0  0  0  0  0
    1.8002    3.5599   11.4417 C   0  0  0  0  0  0  0  0  0  0  0  0
    2.1817    3.1247   12.7187 C   0  0  0  0  0  0  0  0  0  0  0  0
    1.5184    2.1829   13.9845 S   0  0  0  0  0  0  0  0  0  0  0  0
    4.6355    1.0184   18.1502 C   0  0  0  0  0  0  0  0  0  0  0  0
    4.4174    1.1888   19.6000 C   0  0  0  0  0  0  0  0  0  0  0  0
    5.1791    1.9153   20.4689 C   0  0  0  0  0  0  0  0  0  0  0  0
    4.9206    2.0408   21.8200 C   0  0  0  0  0  0  0  0  0  0  0  0
    3.8058    1.3907   22.3840 C   0  0  0  0  0  0  0  0  0  0  0  0
    3.0218    0.6521   21.5267 C   0  0  0  0  0  0  0  0  0  0  0  0
    3.3170    0.5576   20.2005 C   0  0  0  0  0  0  0  0  0  0  0  0
    3.4545    5.8771   19.2375 C   0  0  0  0  0  0  0  0  0  0  0  0
    3.6074    5.3502   20.6783 C   0  0  0  0  0  0  0  0  0  0  0  0
    4.8528    6.0322   21.2238 C   0  0  0  0  0  0  0  0  0  0  0  0
    4.5113    7.1638   22.0391 N   0  0  0  0  0  0  0  0  0  0  0  0
    3.9830    6.9819   22.9403 H   0  0  0  0  0  0  0  0  0  0  0  0
    5.7190    9.2505   22.5132 N   0  0  0  0  0  0  0  0  0  0  0  0
    4.8582    8.5205   21.6758 C   0  0  0  0  0  0  0  0  0  0  0  0
    4.3885    9.0609   20.6110 N   0  0  0  0  0  0  0  0  0  0  0  0
    6.4608    8.7870   23.1070 H   0  0  0  0  0  0  0  0  0  0  0  0
    5.6517   10.3147   22.5712 H   0  0  0  0  0  0  0  0  0  0  0  0
    3.7428    8.4850   20.0044 H   0  0  0  0  0  0  0  0  0  0  0  0
 61 62  1  0  0  0
 62 63  2  0  0  0
 62 59  1  0  0  0
 59 58  1  0  0  0
 58 57  1  0  0  0
 57 56  1  0  0  0
 56  1  1  0  0  0
  1  2  1  0  0  0
  2  3  1  0  0  0
  3  4  2  0  0  0
  3  6  1  0  0  0
  6  7  1  0  0  0
  7  8  1  0  0  0
  8  9  1  0  0  0
  9 10  1  0  0  0
 10 11  1  0  0  0
 11 12  2  0  0  0
 11 13  1  0  0  0
 13 26  1  0  0  0
 26 27  1  0  0  0
 27 28  2  0  0  0
 28 29  1  0  0  0
 29 30  2  0  0  0
 30 31  1  0  0  0
 31 32  2  0  0  0
 13 14  1  0  0  0
 14 15  1  0  0  0
 15 16  2  0  0  0
 15 18  1  0  0  0
 18 19  1  0  0  0
 19 20  1  0  0  0
 20 21  2  0  0  0
 21 22  1  0  0  0
 22 23  2  0  0  0
 23 24  1  0  0  0
 24 25  2  0  0  0
  1 33  1  0  0  0
 33 34  2  0  0  0
 33 35  1  0  0  0
 35 37  1  0  0  0
 37 49  1  0  0  0
 49 50  1  0  0  0
 50 51  2  0  0  0
 51 52  1  0  0  0
 52 53  2  0  0  0
 53 54  1  0  0  0
 54 55  2  0  0  0
 37 38  1  0  0  0
 38 39  2  0  0  0
 38 40  1  0  0  0
 40 41  2  0  0  0
 41 42  1  0  0  0
 42 43  2  0  0  0
 43 44  1  0  0  0
 44 45  2  0  0  0
 45 46  1  0  0  0
 46 47  2  0  0  0
 47 48  1  0  0  0
 10  6  1  0  0  0
 32 27  1  0  0  0
 25 20  1  0  0  0
 55 50  1  0  0  0
 48 40  1  0  0  0
 47 42  1  0  0  0
 61 64  1  0  0  0
 61 65  1  0  0  0
 63 66  1  0  0  0
 59 60  1  0  0  0
  2  5  1  0  0  0
 14 17  1  0  0  0
 35 36  1  0  0  0
M  END
> <minimizedAffinity>
-9.79460

> <CNNscore>
0.3784812689

> <CNNaffinity>
7.7009325027

> <CNN_VS>
2.9146587849

> <CNNaffinity_variance>
0.7128276825

$$$$
[H]N=C(N([H])[H])N([H])C([H])([H])C([H])([H])C([H])([H])[C@@]([H])(C(=O)N([H])[C@]([H])(C(=O)c1nc2c([H])c([H])c([H])c([H])c2s1)C([H])([H])c1c([H])c([H])c([H])c([H])c1[H])N([H])C(=O)[C@@]1([H])N(C(=O)[C@@]([H])(N([H])C(=O)OC([H])([H])c2c([H])c([H])c([H])c([H])c2[H])C([H])([H])c2c([H])c([H])c([H])c([H])c2[H])C([H])([H])C([H])([H])C1([H])[H]


 66 71  0  0  0  0  0  0  0  0999 V2000
    0.7564    6.1125   13.5855 C   0  0  0  0  0  0  0  0  0  0  0  0
    1.8468    5.2499   13.9079 N   0  0  0  0  0  0  0  0  0  0  0  0
    2.2247    4.8167   15.2302 C   0  0  0  0  0  0  0  0  0  0  0  0
    1.5827    5.1691   16.1814 O   0  0  0  0  0  0  0  0  0  0  0  0
    2.4406    4.8944   13.1238 H   0  0  0  0  0  0  0  0  0  0  0  0
    3.4423    3.9218   15.3478 C   0  0  0  0  0  0  0  0  0  0  0  0
    3.8531    3.4747   13.9471 C   0  0  0  0  0  0  0  0  0  0  0  0
    2.8707    2.3670   13.6173 C   0  0  0  0  0  0  0  0  0  0  0  0
    2.2338    2.0383   14.9256 C   0  0  0  0  0  0  0  0  0  0  0  0
    3.0781    2.6805   15.9823 N   0  0  0  0  0  0  0  0  0  0  0  0
    3.3986    2.0307   17.1409 C   0  0  0  0  0  0  0  0  0  0  0  0
    2.6853    0.9756   17.4390 O   0  0  0  0  0  0  0  0  0  0  0  0
    4.4729    2.3309   18.1588 C   0  0  0  0  0  0  0  0  0  0  0  0
    4.1950    3.6513   18.6565 N   0  0  0  0  0  0  0  0  0  0  0  0
    4.8197    4.8723   18.3441 C   0  0  0  0  0  0  0  0  0  0  0  0
    5.8082    4.9068   17.5767 O   0  0  0  0  0  0  0  0  0  0  0  0
    3.4098    3.7235   19.3690 H   0  0  0  0  0  0  0  0  0  0  0  0
    4.3406    6.0420   18.8765 O   0  0  0  0  0  0  0  0  0  0  0  0
    4.4428    6.3526   20.2436 C   0  0  0  0  0  0  0  0  0  0  0  0
    5.8282    6.3309   20.7541 C   0  0  0  0  0  0  0  0  0  0  0  0
    6.1672    5.3282   21.6821 C   0  0  0  0  0  0  0  0  0  0  0  0
    7.4003    5.2810   22.2426 C   0  0  0  0  0  0  0  0  0  0  0  0
    8.3752    6.2437   21.8994 C   0  0  0  0  0  0  0  0  0  0  0  0
    8.0503    7.2154   21.0036 C   0  0  0  0  0  0  0  0  0  0  0  0
    6.7805    7.2325   20.4539 C   0  0  0  0  0  0  0  0  0  0  0  0
    4.2366    1.2601   19.2626 C   0  0  0  0  0  0  0  0  0  0  0  0
    4.6764    1.5764   20.5841 C   0  0  0  0  0  0  0  0  0  0  0  0
    6.0374    1.4933   20.8627 C   0  0  0  0  0  0  0  0  0  0  0  0
    6.4734    1.7074   22.1368 C   0  0  0  0  0  0  0  0  0  0  0  0
    5.6111    2.0117   23.1998 C   0  0  0  0  0  0  0  0  0  0  0  0
    4.2975    2.0798   22.8715 C   0  0  0  0  0  0  0  0  0  0  0  0
    3.7999    1.8784   21.6194 C   0  0  0  0  0  0  0  0  0  0  0  0
   -0.0244    5.4569   12.5333 C   0  0  0  0  0  0  0  0  0  0  0  0
   -0.6005    4.3221   12.7767 O   0  0  0  0  0  0  0  0  0  0  0  0
   -0.2634    5.9326   11.2276 N   0  0  0  0  0  0  0  0  0  0  0  0
    0.1934    6.8261   10.9305 H   0  0  0  0  0  0  0  0  0  0  0  0
   -1.0978    5.2773   10.2921 C   0  0  0  0  0  0  0  0  0  0  0  0
   -0.3509    4.3884    9.3956 C   0  0  0  0  0  0  0  0  0  0  0  0
   -0.9101    3.7051    8.5319 O   0  0  0  0  0  0  0  0  0  0  0  0
    1.1375    4.3195    9.5649 C   0  0  0  0  0  0  0  0  0  0  0  0
    2.0012    5.2921    9.5346 N   0  0  0  0  0  0  0  0  0  0  0  0
    3.2841    5.0497    9.7225 C   0  0  0  0  0  0  0  0  0  0  0  0
    4.2879    5.9995    9.7198 C   0  0  0  0  0  0  0  0  0  0  0  0
    5.6017    5.6380    9.9324 C   0  0  0  0  0  0  0  0  0  0  0  0
    5.9713    4.3313   10.1533 C   0  0  0  0  0  0  0  0  0  0  0  0
    4.9710    3.3879   10.1536 C   0  0  0  0  0  0  0  0  0  0  0  0
    3.6317    3.7428    9.9392 C   0  0  0  0  0  0  0  0  0  0  0  0
    2.1122    2.9589    9.8627 S   0  0  0  0  0  0  0  0  0  0  0  0
   -2.1854    6.0534    9.6258 C   0  0  0  0  0  0  0  0  0  0  0  0
   -3.5548    5.7487   10.0846 C   0  0  0  0  0  0  0  0  0  0  0  0
   -4.7251    6.1880    9.5366 C   0  0  0  0  0  0  0  0  0  0  0  0
   -5.9814    5.8638   10.0104 C   0  0  0  0  0  0  0  0  0  0  0  0
   -6.1121    5.0260   11.1349 C   0  0  0  0  0  0  0  0  0  0  0  0
   -4.9450    4.5696   11.7047 C   0  0  0  0  0  0  0  0  0  0  0  0
   -3.7279    4.9169   11.2017 C   0  0  0  0  0  0  0  0  0  0  0  0
    1.0228    7.5381   13.2871 C   0  0  0  0  0  0  0  0  0  0  0  0
    2.4658    7.7735   12.7979 C   0  0  0  0  0  0  0  0  0  0  0  0
    3.0339    8.8377   13.7245 C   0  0  0  0  0  0  0  0  0  0  0  0
    2.8232    8.4939   15.1026 N   0  0  0  0  0  0  0  0  0  0  0  0
    1.8364    8.5643   15.4840 H   0  0  0  0  0  0  0  0  0  0  0  0
    3.8924    8.4780   17.3149 N   0  0  0  0  0  0  0  0  0  0  0  0
    3.8961    8.0629   15.9721 C   0  0  0  0  0  0  0  0  0  0  0  0
    4.8444    7.3179   15.5336 N   0  0  0  0  0  0  0  0  0  0  0  0
    2.9999    8.6838   17.8427 H   0  0  0  0  0  0  0  0  0  0  0  0
    4.8074    8.5945   17.8529 H   0  0  0  0  0  0  0  0  0  0  0  0
    4.8177    7.0251   14.5187 H   0  0  0  0  0  0  0  0  0  0  0  0
 61 62  1  0  0  0
 62 63  2  0  0  0
 62 59  1  0  0  0
 59 58  1  0  0  0
 58 57  1  0  0  0
 57 56  1  0  0  0
 56  1  1  0  0  0
  1  2  1  0  0  0
  2  3  1  0  0  0
  3  4  2  0  0  0
  3  6  1  0  0  0
  6  7  1  0  0  0
  7  8  1  0  0  0
  8  9  1  0  0  0
  9 10  1  0  0  0
 10 11  1  0  0  0
 11 12  2  0  0  0
 11 13  1  0  0  0
 13 26  1  0  0  0
 26 27  1  0  0  0
 27 28  2  0  0  0
 28 29  1  0  0  0
 29 30  2  0  0  0
 30 31  1  0  0  0
 31 32  2  0  0  0
 13 14  1  0  0  0
 14 15  1  0  0  0
 15 16  2  0  0  0
 15 18  1  0  0  0
 18 19  1  0  0  0
 19 20  1  0  0  0
 20 21  2  0  0  0
 21 22  1  0  0  0
 22 23  2  0  0  0
 23 24  1  0  0  0
 24 25  2  0  0  0
  1 33  1  0  0  0
 33 34  2  0  0  0
 33 35  1  0  0  0
 35 37  1  0  0  0
 37 49  1  0  0  0
 49 50  1  0  0  0
 50 51  2  0  0  0
 51 52  1  0  0  0
 52 53  2  0  0  0
 53 54  1  0  0  0
 54 55  2  0  0  0
 37 38  1  0  0  0
 38 39  2  0  0  0
 38 40  1  0  0  0
 40 41  2  0  0  0
 41 42  1  0  0  0
 42 43  2  0  0  0
 43 44  1  0  0  0
 44 45  2  0  0  0
 45 46  1  0  0  0
 46 47  2  0  0  0
 47 48  1  0  0  0
 10  6  1  0  0  0
 32 27  1  0  0  0
 25 20  1  0  0  0
 55 50  1  0  0  0
 48 40  1  0  0  0
 47 42  1  0  0  0
 61 64  1  0  0  0
 61 65  1  0  0  0
 63 66  1  0  0  0
 59 60  1  0  0  0
  2  5  1  0  0  0
 14 17  1  0  0  0
 35 36  1  0  0  0
M  END
> <minimizedAffinity>
-8.94992

> <CNNscore>
0.3090294003

> <CNNaffinity>
7.5568375587

> <CNN_VS>
2.3352849483

> <CNNaffinity_variance>
0.7005136013

$$$$
[H]N=C(N([H])[H])N([H])C([H])([H])C([H])([H])C([H])([H])[C@@]([H])(C(=O)N([H])[C@]([H])(C(=O)c1nc2c([H])c([H])c([H])c([H])c2s1)C([H])([H])c1c([H])c([H])c([H])c([H])c1[H])N([H])C(=O)[C@@]1([H])N(C(=O)[C@@]([H])(N([H])C(=O)OC([H])([H])c2c([H])c([H])c([H])c([H])c2[H])C([H])([H])c2c([H])c([H])c([H])c([H])c2[H])C([H])([H])C([H])([H])C1([H])[H]


 66 71  0  0  0  0  0  0  0  0999 V2000
    4.7183    5.7498   17.2312 C   0  0  0  0  0  0  0  0  0  0  0  0
    4.9116    6.5680   16.0779 N   0  0  0  0  0  0  0  0  0  0  0  0
    3.9177    6.8781   15.0804 C   0  0  0  0  0  0  0  0  0  0  0  0
    2.8019    6.4501   15.1944 O   0  0  0  0  0  0  0  0  0  0  0  0
    5.8584    6.9848   15.9242 H   0  0  0  0  0  0  0  0  0  0  0  0
    4.3490    7.7452   13.9145 C   0  0  0  0  0  0  0  0  0  0  0  0
    4.8569    9.0768   14.4618 C   0  0  0  0  0  0  0  0  0  0  0  0
    3.5887    9.8476   14.7750 C   0  0  0  0  0  0  0  0  0  0  0  0
    2.5114    9.0794   14.0860 C   0  0  0  0  0  0  0  0  0  0  0  0
    3.1965    8.1384   13.1442 N   0  0  0  0  0  0  0  0  0  0  0  0
    2.7401    7.9335   11.8726 C   0  0  0  0  0  0  0  0  0  0  0  0
    1.5184    8.3252   11.6171 O   0  0  0  0  0  0  0  0  0  0  0  0
    3.4315    7.3205   10.6783 C   0  0  0  0  0  0  0  0  0  0  0  0
    4.7940    7.0922   11.0783 N   0  0  0  0  0  0  0  0  0  0  0  0
    5.9871    7.4202   10.4093 C   0  0  0  0  0  0  0  0  0  0  0  0
    5.9598    7.9343    9.2682 O   0  0  0  0  0  0  0  0  0  0  0  0
    4.9282    6.5987   12.0099 H   0  0  0  0  0  0  0  0  0  0  0  0
    7.1965    7.1839   11.0115 O   0  0  0  0  0  0  0  0  0  0  0  0
    7.8321    8.1283   11.8362 C   0  0  0  0  0  0  0  0  0  0  0  0
    9.2950    7.9484   11.9244 C   0  0  0  0  0  0  0  0  0  0  0  0
    9.9762    8.6275   12.9522 C   0  0  0  0  0  0  0  0  0  0  0  0
   11.3256    8.5621   13.0599 C   0  0  0  0  0  0  0  0  0  0  0  0
   12.0772    7.8021   12.1364 C   0  0  0  0  0  0  0  0  0  0  0  0
   11.4218    7.1455   11.1406 C   0  0  0  0  0  0  0  0  0  0  0  0
   10.0434    7.2377   11.0615 C   0  0  0  0  0  0  0  0  0  0  0  0
    2.6793    5.9738   10.4749 C   0  0  0  0  0  0  0  0  0  0  0  0
    2.7290    5.0298   11.5455 C   0  0  0  0  0  0  0  0  0  0  0  0
    1.5321    4.6534   12.1476 C   0  0  0  0  0  0  0  0  0  0  0  0
    1.5594    3.8195   13.2261 C   0  0  0  0  0  0  0  0  0  0  0  0
    2.7475    3.3121   13.7712 C   0  0  0  0  0  0  0  0  0  0  0  0
    3.8820    3.7111   13.1457 C   0  0  0  0  0  0  0  0  0  0  0  0
    3.9212    4.5395   12.0648 C   0  0  0  0  0  0  0  0  0  0  0  0
    5.3518    6.4313   18.3629 C   0  0  0  0  0  0  0  0  0  0  0  0
    6.5539    6.8980   18.2376 O   0  0  0  0  0  0  0  0  0  0  0  0
    4.7889    6.6796   19.6317 N   0  0  0  0  0  0  0  0  0  0  0  0
    3.8326    6.3060   19.8353 H   0  0  0  0  0  0  0  0  0  0  0  0
    5.4374    7.4176   20.6493 C   0  0  0  0  0  0  0  0  0  0  0  0
    5.9324    6.5657   21.7359 C   0  0  0  0  0  0  0  0  0  0  0  0
    6.7692    6.9627   22.5531 O   0  0  0  0  0  0  0  0  0  0  0  0
    5.3953    5.1684   21.8249 C   0  0  0  0  0  0  0  0  0  0  0  0
    5.8262    4.0963   21.2268 N   0  0  0  0  0  0  0  0  0  0  0  0
    5.2380    2.9345   21.4367 C   0  0  0  0  0  0  0  0  0  0  0  0
    5.6109    1.7327   20.8654 C   0  0  0  0  0  0  0  0  0  0  0  0
    4.9282    0.5706   21.1580 C   0  0  0  0  0  0  0  0  0  0  0  0
    3.8563    0.5527   22.0203 C   0  0  0  0  0  0  0  0  0  0  0  0
    3.4860    1.7500   22.5859 C   0  0  0  0  0  0  0  0  0  0  0  0
    4.1723    2.9379   22.2969 C   0  0  0  0  0  0  0  0  0  0  0  0
    4.0884    4.5879   22.7440 S   0  0  0  0  0  0  0  0  0  0  0  0
    4.8362    8.7073   21.1016 C   0  0  0  0  0  0  0  0  0  0  0  0
    4.5321    9.6758   20.0300 C   0  0  0  0  0  0  0  0  0  0  0  0
    3.4683    9.6528   19.1752 C   0  0  0  0  0  0  0  0  0  0  0  0
    3.2345   10.5938   18.1914 C   0  0  0  0  0  0  0  0  0  0  0  0
    4.1296   11.6677   18.0212 C   0  0  0  0  0  0  0  0  0  0  0  0
    5.2104   11.7124   18.8727 C   0  0  0  0  0  0  0  0  0  0  0  0
    5.3993   10.7607   19.8284 C   0  0  0  0  0  0  0  0  0  0  0  0
    5.0689    4.3126   17.1682 C   0  0  0  0  0  0  0  0  0  0  0  0
    3.8893    3.4048   17.5697 C   0  0  0  0  0  0  0  0  0  0  0  0
    4.1768    2.0620   16.9153 C   0  0  0  0  0  0  0  0  0  0  0  0
    3.9165    0.9767   17.8188 N   0  0  0  0  0  0  0  0  0  0  0  0
    4.6652    0.7356   18.5300 H   0  0  0  0  0  0  0  0  0  0  0  0
    2.4094   -0.6702   18.8455 N   0  0  0  0  0  0  0  0  0  0  0  0
    2.6873    0.2146   17.7894 C   0  0  0  0  0  0  0  0  0  0  0  0
    1.8590    0.3322   16.8164 N   0  0  0  0  0  0  0  0  0  0  0  0
    2.7641   -0.5096   19.8284 H   0  0  0  0  0  0  0  0  0  0  0  0
    1.8165   -1.5436   18.6846 H   0  0  0  0  0  0  0  0  0  0  0  0
    2.0990    1.0049   16.0378 H   0  0  0  0  0  0  0  0  0  0  0  0
 61 62  1  0  0  0
 62 63  2  0  0  0
 62 59  1  0  0  0
 59 58  1  0  0  0
 58 57  1  0  0  0
 57 56  1  0  0  0
 56  1  1  0  0  0
  1  2  1  0  0  0
  2  3  1  0  0  0
  3  4  2  0  0  0
  3  6  1  0  0  0
  6  7  1  0  0  0
  7  8  1  0  0  0
  8  9  1  0  0  0
  9 10  1  0  0  0
 10 11  1  0  0  0
 11 12  2  0  0  0
 11 13  1  0  0  0
 13 26  1  0  0  0
 26 27  1  0  0  0
 27 28  2  0  0  0
 28 29  1  0  0  0
 29 30  2  0  0  0
 30 31  1  0  0  0
 31 32  2  0  0  0
 13 14  1  0  0  0
 14 15  1  0  0  0
 15 16  2  0  0  0
 15 18  1  0  0  0
 18 19  1  0  0  0
 19 20  1  0  0  0
 20 21  2  0  0  0
 21 22  1  0  0  0
 22 23  2  0  0  0
 23 24  1  0  0  0
 24 25  2  0  0  0
  1 33  1  0  0  0
 33 34  2  0  0  0
 33 35  1  0  0  0
 35 37  1  0  0  0
 37 49  1  0  0  0
 49 50  1  0  0  0
 50 51  2  0  0  0
 51 52  1  0  0  0
 52 53  2  0  0  0
 53 54  1  0  0  0
 54 55  2  0  0  0
 37 38  1  0  0  0
 38 39  2  0  0  0
 38 40  1  0  0  0
 40 41  2  0  0  0
 41 42  1  0  0  0
 42 43  2  0  0  0
 43 44  1  0  0  0
 44 45  2  0  0  0
 45 46  1  0  0  0
 46 47  2  0  0  0
 47 48  1  0  0  0
 10  6  1  0  0  0
 32 27  1  0  0  0
 25 20  1  0  0  0
 55 50  1  0  0  0
 48 40  1  0  0  0
 47 42  1  0  0  0
 61 64  1  0  0  0
 61 65  1  0  0  0
 63 66  1  0  0  0
 59 60  1  0  0  0
  2  5  1  0  0  0
 14 17  1  0  0  0
 35 36  1  0  0  0
M  END
> <minimizedAffinity>
-10.20378

> <CNNscore>
0.2046158910

> <CNNaffinity>
7.1374015808

> <CNN_VS>
1.4604257345

> <CNNaffinity_variance>
1.1874896288

$$$$
[H]N=C(N([H])[H])N([H])C([H])([H])C([H])([H])C([H])([H])[C@@]([H])(C(=O)N([H])[C@]([H])(C(=O)c1nc2c([H])c([H])c([H])c([H])c2s1)C([H])([H])c1c([H])c([H])c([H])c([H])c1[H])N([H])C(=O)[C@@]1([H])N(C(=O)[C@@]([H])(N([H])C(=O)OC([H])([H])c2c([H])c([H])c([H])c([H])c2[H])C([H])([H])c2c([H])c([H])c([H])c([H])c2[H])C([H])([H])C([H])([H])C1([H])[H]


 66 71  0  0  0  0  0  0  0  0999 V2000
    4.6745    4.9259   17.1639 C   0  0  0  0  0  0  0  0  0  0  0  0
    4.5004    5.4380   15.8431 N   0  0  0  0  0  0  0  0  0  0  0  0
    3.6052    4.9155   14.8408 C   0  0  0  0  0  0  0  0  0  0  0  0
    2.9035    3.9757   15.0970 O   0  0  0  0  0  0  0  0  0  0  0  0
    5.0720    6.2660   15.5578 H   0  0  0  0  0  0  0  0  0  0  0  0
    3.6029    5.5966   13.4869 C   0  0  0  0  0  0  0  0  0  0  0  0
    3.7253    7.1031   13.7013 C   0  0  0  0  0  0  0  0  0  0  0  0
    2.3241    7.5281   14.0975 C   0  0  0  0  0  0  0  0  0  0  0  0
    1.4715    6.3542   13.7503 C   0  0  0  0  0  0  0  0  0  0  0  0
    2.3040    5.4681   12.8765 N   0  0  0  0  0  0  0  0  0  0  0  0
    1.7910    4.8719   11.7591 C   0  0  0  0  0  0  0  0  0  0  0  0
    0.4872    4.8333   11.6602 O   0  0  0  0  0  0  0  0  0  0  0  0
    2.4968    4.2393   10.5836 C   0  0  0  0  0  0  0  0  0  0  0  0
    3.6212    5.0862   10.2888 N   0  0  0  0  0  0  0  0  0  0  0  0
    3.8283    5.9452    9.1943 C   0  0  0  0  0  0  0  0  0  0  0  0
    2.9957    6.0043    8.2613 O   0  0  0  0  0  0  0  0  0  0  0  0
    4.4187    5.0608   10.9908 H   0  0  0  0  0  0  0  0  0  0  0  0
    4.9487    6.7349    9.1467 O   0  0  0  0  0  0  0  0  0  0  0  0
    6.2373    6.2429    9.4179 C   0  0  0  0  0  0  0  0  0  0  0  0
    6.9275    6.9594   10.5090 C   0  0  0  0  0  0  0  0  0  0  0  0
    6.2315    8.0024   11.1488 C   0  0  0  0  0  0  0  0  0  0  0  0
    6.8205    8.7470   12.1161 C   0  0  0  0  0  0  0  0  0  0  0  0
    8.1531    8.4843   12.5039 C   0  0  0  0  0  0  0  0  0  0  0  0
    8.8293    7.4776   11.8862 C   0  0  0  0  0  0  0  0  0  0  0  0
    8.1955    6.7404   10.9016 C   0  0  0  0  0  0  0  0  0  0  0  0
    2.9678    2.8646   11.1397 C   0  0  0  0  0  0  0  0  0  0  0  0
    2.3540    1.6952   10.5959 C   0  0  0  0  0  0  0  0  0  0  0  0
    3.1469    0.8138    9.8669 C   0  0  0  0  0  0  0  0  0  0  0  0
    2.5688   -0.2651    9.2661 C   0  0  0  0  0  0  0  0  0  0  0  0
    1.1960   -0.5398    9.3435 C   0  0  0  0  0  0  0  0  0  0  0  0
    0.4725    0.3508   10.0655 C   0  0  0  0  0  0  0  0  0  0  0  0
    0.9902    1.4451   10.6901 C   0  0  0  0  0  0  0  0  0  0  0  0
    5.1157    6.0376   18.0101 C   0  0  0  0  0  0  0  0  0  0  0  0
    6.3601    6.3982   17.9958 O   0  0  0  0  0  0  0  0  0  0  0  0
    4.3192    6.8238   18.8679 N   0  0  0  0  0  0  0  0  0  0  0  0
    3.3064    6.5809   18.9706 H   0  0  0  0  0  0  0  0  0  0  0  0
    4.8063    7.9355   19.5943 C   0  0  0  0  0  0  0  0  0  0  0  0
    5.0139    7.6342   21.0148 C   0  0  0  0  0  0  0  0  0  0  0  0
    5.2320    8.5184   21.8491 O   0  0  0  0  0  0  0  0  0  0  0  0
    4.9655    6.1957   21.4356 C   0  0  0  0  0  0  0  0  0  0  0  0
    5.9287    5.3210   21.4397 N   0  0  0  0  0  0  0  0  0  0  0  0
    5.7100    4.0914   21.8641 C   0  0  0  0  0  0  0  0  0  0  0  0
    6.6537    3.0835   21.9210 C   0  0  0  0  0  0  0  0  0  0  0  0
    6.3195    1.8297   22.3882 C   0  0  0  0  0  0  0  0  0  0  0  0
    5.0468    1.5259   22.8134 C   0  0  0  0  0  0  0  0  0  0  0  0
    4.1091    2.5298   22.7540 C   0  0  0  0  0  0  0  0  0  0  0  0
    4.4366    3.8086   22.2816 C   0  0  0  0  0  0  0  0  0  0  0  0
    3.6483    5.3089   22.0427 S   0  0  0  0  0  0  0  0  0  0  0  0
    4.2233    9.2841   19.3286 C   0  0  0  0  0  0  0  0  0  0  0  0
    4.2364    9.7139   17.9166 C   0  0  0  0  0  0  0  0  0  0  0  0
    3.2330   10.3405   17.2358 C   0  0  0  0  0  0  0  0  0  0  0  0
    3.3065   10.7233   15.9107 C   0  0  0  0  0  0  0  0  0  0  0  0
    4.4777   10.4686   15.1712 C   0  0  0  0  0  0  0  0  0  0  0  0
    5.5043    9.8378   15.8370 C   0  0  0  0  0  0  0  0  0  0  0  0
    5.3852    9.4789   17.1454 C   0  0  0  0  0  0  0  0  0  0  0  0
    5.4856    3.7039   17.3672 C   0  0  0  0  0  0  0  0  0  0  0  0
    5.0295    2.8977   18.5997 C   0  0  0  0  0  0  0  0  0  0  0  0
    3.6743    2.3198   18.2209 C   0  0  0  0  0  0  0  0  0  0  0  0
    3.5917    0.9257   18.5546 N   0  0  0  0  0  0  0  0  0  0  0  0
    4.3014    0.5392   19.2411 H   0  0  0  0  0  0  0  0  0  0  0  0
    2.2648    0.1665   16.6308 N   0  0  0  0  0  0  0  0  0  0  0  0
    2.5890    0.0469   17.9931 C   0  0  0  0  0  0  0  0  0  0  0  0
    1.9944   -0.8279   18.7195 N   0  0  0  0  0  0  0  0  0  0  0  0
    2.9611    0.5015   15.9092 H   0  0  0  0  0  0  0  0  0  0  0  0
    1.2897   -0.0872   16.2772 H   0  0  0  0  0  0  0  0  0  0  0  0
    2.2605   -0.8905   19.7402 H   0  0  0  0  0  0  0  0  0  0  0  0
 61 62  1  0  0  0
 62 63  2  0  0  0
 62 59  1  0  0  0
 59 58  1  0  0  0
 58 57  1  0  0  0
 57 56  1  0  0  0
 56  1  1  0  0  0
  1  2  1  0  0  0
  2  3  1  0  0  0
  3  4  2  0  0  0
  3  6  1  0  0  0
  6  7  1  0  0  0
  7  8  1  0  0  0
  8  9  1  0  0  0
  9 10  1  0  0  0
 10 11  1  0  0  0
 11 12  2  0  0  0
 11 13  1  0  0  0
 13 26  1  0  0  0
 26 27  1  0  0  0
 27 28  2  0  0  0
 28 29  1  0  0  0
 29 30  2  0  0  0
 30 31  1  0  0  0
 31 32  2  0  0  0
 13 14  1  0  0  0
 14 15  1  0  0  0
 15 16  2  0  0  0
 15 18  1  0  0  0
 18 19  1  0  0  0
 19 20  1  0  0  0
 20 21  2  0  0  0
 21 22  1  0  0  0
 22 23  2  0  0  0
 23 24  1  0  0  0
 24 25  2  0  0  0
  1 33  1  0  0  0
 33 34  2  0  0  0
 33 35  1  0  0  0
 35 37  1  0  0  0
 37 49  1  0  0  0
 49 50  1  0  0  0
 50 51  2  0  0  0
 51 52  1  0  0  0
 52 53  2  0  0  0
 53 54  1  0  0  0
 54 55  2  0  0  0
 37 38  1  0  0  0
 38 39  2  0  0  0
 38 40  1  0  0  0
 40 41  2  0  0  0
 41 42  1  0  0  0
 42 43  2  0  0  0
 43 44  1  0  0  0
 44 45  2  0  0  0
 45 46  1  0  0  0
 46 47  2  0  0  0
 47 48  1  0  0  0
 10  6  1  0  0  0
 32 27  1  0  0  0
 25 20  1  0  0  0
 55 50  1  0  0  0
 48 40  1  0  0  0
 47 42  1  0  0  0
 61 64  1  0  0  0
 61 65  1  0  0  0
 63 66  1  0  0  0
 59 60  1  0  0  0
  2  5  1  0  0  0
 14 17  1  0  0  0
 35 36  1  0  0  0
M  END
> <minimizedAffinity>
-8.71988

> <CNNscore>
0.2028713524

> <CNNaffinity>
7.1560387611

> <CNN_VS>
1.4517552853

> <CNNaffinity_variance>
1.2217347622

$$$$
[H]N=C(N([H])[H])N([H])C([H])([H])C([H])([H])C([H])([H])[C@@]([H])(C(=O)N([H])[C@]([H])(C(=O)c1nc2c([H])c([H])c([H])c([H])c2s1)C([H])([H])c1c([H])c([H])c([H])c([H])c1[H])N([H])C(=O)[C@@]1([H])N(C(=O)[C@@]([H])(N([H])C(=O)OC([H])([H])c2c([H])c([H])c([H])c([H])c2[H])C([H])([H])c2c([H])c([H])c([H])c([H])c2[H])C([H])([H])C([H])([H])C1([H])[H]


 66 71  0  0  0  0  0  0  0  0999 V2000
    3.0558    4.6122   15.7180 C   0  0  0  0  0  0  0  0  0  0  0  0
    2.7610    5.3086   14.5075 N   0  0  0  0  0  0  0  0  0  0  0  0
    1.5365    6.0078   14.2066 C   0  0  0  0  0  0  0  0  0  0  0  0
    0.6591    6.0567   15.0245 O   0  0  0  0  0  0  0  0  0  0  0  0
    3.4884    5.3174   13.7561 H   0  0  0  0  0  0  0  0  0  0  0  0
    1.4222    6.6545   12.8406 C   0  0  0  0  0  0  0  0  0  0  0  0
   -0.0394    7.0234   12.5991 C   0  0  0  0  0  0  0  0  0  0  0  0
   -0.6857    5.7078   12.2087 C   0  0  0  0  0  0  0  0  0  0  0  0
    0.4653    4.8027   11.9235 C   0  0  0  0  0  0  0  0  0  0  0  0
    1.6759    5.6767   11.8132 N   0  0  0  0  0  0  0  0  0  0  0  0
    2.6118    5.4899   10.8353 C   0  0  0  0  0  0  0  0  0  0  0  0
    2.5881    4.3402   10.2118 O   0  0  0  0  0  0  0  0  0  0  0  0
    3.6938    6.4169   10.3351 C   0  0  0  0  0  0  0  0  0  0  0  0
    4.5555    5.6165    9.5073 N   0  0  0  0  0  0  0  0  0  0  0  0
    5.7967    5.0308    9.8157 C   0  0  0  0  0  0  0  0  0  0  0  0
    6.3381    5.2276   10.9271 O   0  0  0  0  0  0  0  0  0  0  0  0
    4.2165    5.4427    8.5152 H   0  0  0  0  0  0  0  0  0  0  0  0
    6.4219    4.2280    8.8960 O   0  0  0  0  0  0  0  0  0  0  0  0
    5.7162    3.4000    8.0058 C   0  0  0  0  0  0  0  0  0  0  0  0
    5.5921    2.0031    8.4679 C   0  0  0  0  0  0  0  0  0  0  0  0
    4.3295    1.5732    8.9178 C   0  0  0  0  0  0  0  0  0  0  0  0
    4.1512    0.3252    9.4152 C   0  0  0  0  0  0  0  0  0  0  0  0
    5.2383   -0.5738    9.4882 C   0  0  0  0  0  0  0  0  0  0  0  0
    6.4608   -0.1608    9.0555 C   0  0  0  0  0  0  0  0  0  0  0  0
    6.6046    1.1216    8.5558 C   0  0  0  0  0  0  0  0  0  0  0  0
    2.9139    7.4580    9.4814 C   0  0  0  0  0  0  0  0  0  0  0  0
    3.6039    8.0460    8.3778 C   0  0  0  0  0  0  0  0  0  0  0  0
    4.6843    8.8812    8.6462 C   0  0  0  0  0  0  0  0  0  0  0  0
    5.3065    9.5217    7.6156 C   0  0  0  0  0  0  0  0  0  0  0  0
    4.9106    9.3828    6.2777 C   0  0  0  0  0  0  0  0  0  0  0  0
    3.8541    8.5580    6.0747 C   0  0  0  0  0  0  0  0  0  0  0  0
    3.1921    7.8891    7.0598 C   0  0  0  0  0  0  0  0  0  0  0  0
    3.9725    5.4513   16.4939 C   0  0  0  0  0  0  0  0  0  0  0  0
    5.2426    5.1960   16.4780 O   0  0  0  0  0  0  0  0  0  0  0  0
    3.6412    6.5736   17.2807 N   0  0  0  0  0  0  0  0  0  0  0  0
    2.6321    6.8325   17.3810 H   0  0  0  0  0  0  0  0  0  0  0  0
    4.5968    7.3833   17.9381 C   0  0  0  0  0  0  0  0  0  0  0  0
    4.3556    7.4816   19.3816 C   0  0  0  0  0  0  0  0  0  0  0  0
    3.9432    8.5190   19.9098 O   0  0  0  0  0  0  0  0  0  0  0  0
    4.6393    6.2702   20.2188 C   0  0  0  0  0  0  0  0  0  0  0  0
    4.1249    5.9423   21.3680 N   0  0  0  0  0  0  0  0  0  0  0  0
    4.4805    4.8189   21.9607 C   0  0  0  0  0  0  0  0  0  0  0  0
    3.9978    4.3650   23.1735 C   0  0  0  0  0  0  0  0  0  0  0  0
    4.4343    3.1690   23.7035 C   0  0  0  0  0  0  0  0  0  0  0  0
    5.3602    2.3813   23.0592 C   0  0  0  0  0  0  0  0  0  0  0  0
    5.8404    2.8359   21.8537 C   0  0  0  0  0  0  0  0  0  0  0  0
    5.4041    4.0497   21.3042 C   0  0  0  0  0  0  0  0  0  0  0  0
    5.6950    4.9775   19.8957 S   0  0  0  0  0  0  0  0  0  0  0  0
    5.0256    8.6611   17.2958 C   0  0  0  0  0  0  0  0  0  0  0  0
    4.6122    8.8343   15.8895 C   0  0  0  0  0  0  0  0  0  0  0  0
    3.4615    9.4092   15.4329 C   0  0  0  0  0  0  0  0  0  0  0  0
    3.1313    9.5466   14.0988 C   0  0  0  0  0  0  0  0  0  0  0  0
    4.0118    9.0745   13.1062 C   0  0  0  0  0  0  0  0  0  0  0  0
    5.1798    8.4910   13.5427 C   0  0  0  0  0  0  0  0  0  0  0  0
    5.4620    8.3776   14.8702 C   0  0  0  0  0  0  0  0  0  0  0  0
    3.4983    3.2006   15.6537 C   0  0  0  0  0  0  0  0  0  0  0  0
    2.3904    2.2637   15.1324 C   0  0  0  0  0  0  0  0  0  0  0  0
    2.7268    0.8925   15.6985 C   0  0  0  0  0  0  0  0  0  0  0  0
    1.9669    0.6192   16.8858 N   0  0  0  0  0  0  0  0  0  0  0  0
    0.9134    0.7278   16.8339 H   0  0  0  0  0  0  0  0  0  0  0  0
    3.6416    0.9719   18.6490 N   0  0  0  0  0  0  0  0  0  0  0  0
    2.5823    0.2085   18.1289 C   0  0  0  0  0  0  0  0  0  0  0  0
    2.1793   -0.8381   18.7526 N   0  0  0  0  0  0  0  0  0  0  0  0
    3.7304    2.0110   18.4759 H   0  0  0  0  0  0  0  0  0  0  0  0
    4.3986    0.5176   19.2497 H   0  0  0  0  0  0  0  0  0  0  0  0
    1.3819   -1.3903   18.3335 H   0  0  0  0  0  0  0  0  0  0  0  0
 61 62  1  0  0  0
 62 63  2  0  0  0
 62 59  1  0  0  0
 59 58  1  0  0  0
 58 57  1  0  0  0
 57 56  1  0  0  0
 56  1  1  0  0  0
  1  2  1  0  0  0
  2  3  1  0  0  0
  3  4  2  0  0  0
  3  6  1  0  0  0
  6  7  1  0  0  0
  7  8  1  0  0  0
  8  9  1  0  0  0
  9 10  1  0  0  0
 10 11  1  0  0  0
 11 12  2  0  0  0
 11 13  1  0  0  0
 13 26  1  0  0  0
 26 27  1  0  0  0
 27 28  2  0  0  0
 28 29  1  0  0  0
 29 30  2  0  0  0
 30 31  1  0  0  0
 31 32  2  0  0  0
 13 14  1  0  0  0
 14 15  1  0  0  0
 15 16  2  0  0  0
 15 18  1  0  0  0
 18 19  1  0  0  0
 19 20  1  0  0  0
 20 21  2  0  0  0
 21 22  1  0  0  0
 22 23  2  0  0  0
 23 24  1  0  0  0
 24 25  2  0  0  0
  1 33  1  0  0  0
 33 34  2  0  0  0
 33 35  1  0  0  0
 35 37  1  0  0  0
 37 49  1  0  0  0
 49 50  1  0  0  0
 50 51  2  0  0  0
 51 52  1  0  0  0
 52 53  2  0  0  0
 53 54  1  0  0  0
 54 55  2  0  0  0
 37 38  1  0  0  0
 38 39  2  0  0  0
 38 40  1  0  0  0
 40 41  2  0  0  0
 41 42  1  0  0  0
 42 43  2  0  0  0
 43 44  1  0  0  0
 44 45  2  0  0  0
 45 46  1  0  0  0
 46 47  2  0  0  0
 47 48  1  0  0  0
 10  6  1  0  0  0
 32 27  1  0  0  0
 25 20  1  0  0  0
 55 50  1  0  0  0
 48 40  1  0  0  0
 47 42  1  0  0  0
 61 64  1  0  0  0
 61 65  1  0  0  0
 63 66  1  0  0  0
 59 60  1  0  0  0
  2  5  1  0  0  0
 14 17  1  0  0  0
 35 36  1  0  0  0
M  END
> <minimizedAffinity>
-8.36086

> <CNNscore>
0.1857739687

> <CNNaffinity>
7.2540307045

> <CNN_VS>
1.3476101160

> <CNNaffinity_variance>
0.7111423612

$$$$
[H]N=C(N([H])[H])N([H])C([H])([H])C([H])([H])C([H])([H])[C@@]([H])(C(=O)N([H])[C@]([H])(C(=O)c1nc2c([H])c([H])c([H])c([H])c2s1)C([H])([H])c1c([H])c([H])c([H])c([H])c1[H])N([H])C(=O)[C@@]1([H])N(C(=O)[C@@]([H])(N([H])C(=O)OC([H])([H])c2c([H])c([H])c([H])c([H])c2[H])C([H])([H])c2c([H])c([H])c([H])c([H])c2[H])C([H])([H])C([H])([H])C1([H])[H]


 66 71  0  0  0  0  0  0  0  0999 V2000
    4.0728    4.6772   16.6865 C   0  0  0  0  0  0  0  0  0  0  0  0
    3.6078    5.5033   15.6195 N   0  0  0  0  0  0  0  0  0  0  0  0
    2.2295    5.7498   15.2751 C   0  0  0  0  0  0  0  0  0  0  0  0
    1.3520    5.2547   15.9278 O   0  0  0  0  0  0  0  0  0  0  0  0
    4.3205    5.9768   15.0183 H   0  0  0  0  0  0  0  0  0  0  0  0
    1.9599    6.6392   14.0778 C   0  0  0  0  0  0  0  0  0  0  0  0
    0.4496    6.7428   13.8805 C   0  0  0  0  0  0  0  0  0  0  0  0
    0.0827    5.4388   13.1981 C   0  0  0  0  0  0  0  0  0  0  0  0
    1.3909    4.8734   12.7571 C   0  0  0  0  0  0  0  0  0  0  0  0
    2.3924    5.9805   12.8715 N   0  0  0  0  0  0  0  0  0  0  0  0
    3.3294    6.2064   11.9029 C   0  0  0  0  0  0  0  0  0  0  0  0
    3.5331    5.2392   11.0461 O   0  0  0  0  0  0  0  0  0  0  0  0
    4.1873    7.4220   11.6445 C   0  0  0  0  0  0  0  0  0  0  0  0
    4.1418    7.6496   10.2252 N   0  0  0  0  0  0  0  0  0  0  0  0
    3.0878    8.1408    9.4338 C   0  0  0  0  0  0  0  0  0  0  0  0
    1.9697    8.3879    9.9397 O   0  0  0  0  0  0  0  0  0  0  0  0
    5.0261    7.4082    9.6874 H   0  0  0  0  0  0  0  0  0  0  0  0
    3.2831    8.3612    8.0942 O   0  0  0  0  0  0  0  0  0  0  0  0
    3.7760    9.5764    7.5879 C   0  0  0  0  0  0  0  0  0  0  0  0
    4.7164    9.4110    6.4616 C   0  0  0  0  0  0  0  0  0  0  0  0
    5.8813   10.2011    6.4614 C   0  0  0  0  0  0  0  0  0  0  0  0
    6.7609   10.1513    5.4314 C   0  0  0  0  0  0  0  0  0  0  0  0
    6.5226    9.2959    4.3329 C   0  0  0  0  0  0  0  0  0  0  0  0
    5.3964    8.5317    4.3292 C   0  0  0  0  0  0  0  0  0  0  0  0
    4.5206    8.6111    5.3977 C   0  0  0  0  0  0  0  0  0  0  0  0
    3.4502    8.5565   12.4129 C   0  0  0  0  0  0  0  0  0  0  0  0
    4.0166    8.9796   13.6539 C   0  0  0  0  0  0  0  0  0  0  0  0
    3.3499    9.9609   14.3814 C   0  0  0  0  0  0  0  0  0  0  0  0
    3.9125   10.4427   15.5263 C   0  0  0  0  0  0  0  0  0  0  0  0
    5.1470    9.9961   16.0190 C   0  0  0  0  0  0  0  0  0  0  0  0
    5.7515    9.0406   15.2711 C   0  0  0  0  0  0  0  0  0  0  0  0
    5.2413    8.5178   14.1212 C   0  0  0  0  0  0  0  0  0  0  0  0
    4.7338    5.5500   17.6601 C   0  0  0  0  0  0  0  0  0  0  0  0
    5.8636    6.1070   17.3567 O   0  0  0  0  0  0  0  0  0  0  0  0
    4.2684    5.9007   18.9441 N   0  0  0  0  0  0  0  0  0  0  0  0
    3.3797    5.4682   19.2882 H   0  0  0  0  0  0  0  0  0  0  0  0
    4.9279    6.8165   19.7968 C   0  0  0  0  0  0  0  0  0  0  0  0
    5.3853    6.1964   21.0450 C   0  0  0  0  0  0  0  0  0  0  0  0
    6.1209    6.7878   21.8416 O   0  0  0  0  0  0  0  0  0  0  0  0
    4.9381    4.7937   21.3300 C   0  0  0  0  0  0  0  0  0  0  0  0
    5.1924    3.7106   20.6556 N   0  0  0  0  0  0  0  0  0  0  0  0
    4.7276    2.5461   21.0655 C   0  0  0  0  0  0  0  0  0  0  0  0
    4.9383    1.3332   20.4378 C   0  0  0  0  0  0  0  0  0  0  0  0
    4.4090    0.1696   20.9553 C   0  0  0  0  0  0  0  0  0  0  0  0
    3.6545    0.1610   22.1058 C   0  0  0  0  0  0  0  0  0  0  0  0
    3.4446    1.3693   22.7275 C   0  0  0  0  0  0  0  0  0  0  0  0
    3.9778    2.5589   22.2115 C   0  0  0  0  0  0  0  0  0  0  0  0
    3.9921    4.2207   22.6210 S   0  0  0  0  0  0  0  0  0  0  0  0
    4.3611    8.1880   19.9610 C   0  0  0  0  0  0  0  0  0  0  0  0
    5.2832    9.2972   19.6480 C   0  0  0  0  0  0  0  0  0  0  0  0
    6.5876    9.2003   19.2579 C   0  0  0  0  0  0  0  0  0  0  0  0
    7.4018   10.2794   18.9740 C   0  0  0  0  0  0  0  0  0  0  0  0
    6.8941   11.5885   19.0823 C   0  0  0  0  0  0  0  0  0  0  0  0
    5.5800   11.7116   19.4737 C   0  0  0  0  0  0  0  0  0  0  0  0
    4.8156   10.6171   19.7433 C   0  0  0  0  0  0  0  0  0  0  0  0
    4.8720    3.4704   16.3744 C   0  0  0  0  0  0  0  0  0  0  0  0
    4.2407    2.1864   16.9486 C   0  0  0  0  0  0  0  0  0  0  0  0
    2.7429    2.3479   16.7377 C   0  0  0  0  0  0  0  0  0  0  0  0
    2.2491    1.4064   15.7725 N   0  0  0  0  0  0  0  0  0  0  0  0
    1.9825    0.4396   16.1171 H   0  0  0  0  0  0  0  0  0  0  0  0
    0.8559    1.5536   13.7538 N   0  0  0  0  0  0  0  0  0  0  0  0
    2.1071    1.7290   14.3695 C   0  0  0  0  0  0  0  0  0  0  0  0
    3.1027    2.1637   13.6866 N   0  0  0  0  0  0  0  0  0  0  0  0
   -0.0545    1.6398   14.2843 H   0  0  0  0  0  0  0  0  0  0  0  0
    0.7865    1.3296   12.7121 H   0  0  0  0  0  0  0  0  0  0  0  0
    4.0297    2.2826   14.1795 H   0  0  0  0  0  0  0  0  0  0  0  0
 61 62  1  0  0  0
 62 63  2  0  0  0
 62 59  1  0  0  0
 59 58  1  0  0  0
 58 57  1  0  0  0
 57 56  1  0  0  0
 56  1  1  0  0  0
  1  2  1  0  0  0
  2  3  1  0  0  0
  3  4  2  0  0  0
  3  6  1  0  0  0
  6  7  1  0  0  0
  7  8  1  0  0  0
  8  9  1  0  0  0
  9 10  1  0  0  0
 10 11  1  0  0  0
 11 12  2  0  0  0
 11 13  1  0  0  0
 13 26  1  0  0  0
 26 27  1  0  0  0
 27 28  2  0  0  0
 28 29  1  0  0  0
 29 30  2  0  0  0
 30 31  1  0  0  0
 31 32  2  0  0  0
 13 14  1  0  0  0
 14 15  1  0  0  0
 15 16  2  0  0  0
 15 18  1  0  0  0
 18 19  1  0  0  0
 19 20  1  0  0  0
 20 21  2  0  0  0
 21 22  1  0  0  0
 22 23  2  0  0  0
 23 24  1  0  0  0
 24 25  2  0  0  0
  1 33  1  0  0  0
 33 34  2  0  0  0
 33 35  1  0  0  0
 35 37  1  0  0  0
 37 49  1  0  0  0
 49 50  1  0  0  0
 50 51  2  0  0  0
 51 52  1  0  0  0
 52 53  2  0  0  0
 53 54  1  0  0  0
 54 55  2  0  0  0
 37 38  1  0  0  0
 38 39  2  0  0  0
 38 40  1  0  0  0
 40 41  2  0  0  0
 41 42  1  0  0  0
 42 43  2  0  0  0
 43 44  1  0  0  0
 44 45  2  0  0  0
 45 46  1  0  0  0
 46 47  2  0  0  0
 47 48  1  0  0  0
 10  6  1  0  0  0
 32 27  1  0  0  0
 25 20  1  0  0  0
 55 50  1  0  0  0
 48 40  1  0  0  0
 47 42  1  0  0  0
 61 64  1  0  0  0
 61 65  1  0  0  0
 63 66  1  0  0  0
 59 60  1  0  0  0
  2  5  1  0  0  0
 14 17  1  0  0  0
 35 36  1  0  0  0
M  END
> <minimizedAffinity>
-9.02777

> <CNNscore>
0.1523692906

> <CNNaffinity>
7.2459664345

> <CNN_VS>
1.1040627956

> <CNNaffinity_variance>
0.7322978973

$$$$
[H]N=C(N([H])[H])N([H])C([H])([H])C([H])([H])C([H])([H])[C@@]([H])(C(=O)N([H])[C@]([H])(C(=O)c1nc2c([H])c([H])c([H])c([H])c2s1)C([H])([H])c1c([H])c([H])c([H])c([H])c1[H])N([H])C(=O)[C@@]1([H])N(C(=O)[C@@]([H])(N([H])C(=O)OC([H])([H])c2c([H])c([H])c([H])c([H])c2[H])C([H])([H])c2c([H])c([H])c([H])c([H])c2[H])C([H])([H])C([H])([H])C1([H])[H]


 66 71  0  0  0  0  0  0  0  0999 V2000
    4.7129    8.7009   14.6159 C   0  0  0  0  0  0  0  0  0  0  0  0
    4.4093    8.6677   16.0101 N   0  0  0  0  0  0  0  0  0  0  0  0
    3.6812    9.6722   16.7448 C   0  0  0  0  0  0  0  0  0  0  0  0
    3.2504   10.6363   16.1737 O   0  0  0  0  0  0  0  0  0  0  0  0
    4.7437    7.8477   16.5664 H   0  0  0  0  0  0  0  0  0  0  0  0
    3.4990    9.4504   18.2330 C   0  0  0  0  0  0  0  0  0  0  0  0
    3.1114   10.7788   18.8778 C   0  0  0  0  0  0  0  0  0  0  0  0
    4.4266   11.5266   18.9865 C   0  0  0  0  0  0  0  0  0  0  0  0
    5.4643   10.4841   18.7381 C   0  0  0  0  0  0  0  0  0  0  0  0
    4.7713    9.1611   18.8443 N   0  0  0  0  0  0  0  0  0  0  0  0
    5.3357    8.1035   19.5002 C   0  0  0  0  0  0  0  0  0  0  0  0
    6.6187    8.1802   19.7431 O   0  0  0  0  0  0  0  0  0  0  0  0
    4.7073    6.8295   20.0122 C   0  0  0  0  0  0  0  0  0  0  0  0
    4.9798    5.8227   19.0220 N   0  0  0  0  0  0  0  0  0  0  0  0
    4.3336    5.5786   17.7967 C   0  0  0  0  0  0  0  0  0  0  0  0
    3.3283    6.2444   17.4601 O   0  0  0  0  0  0  0  0  0  0  0  0
    5.7794    5.1583   19.2427 H   0  0  0  0  0  0  0  0  0  0  0  0
    4.8098    4.6073   16.9535 O   0  0  0  0  0  0  0  0  0  0  0  0
    5.5124    3.4798   17.4131 C   0  0  0  0  0  0  0  0  0  0  0  0
    4.6424    2.4309   17.9817 C   0  0  0  0  0  0  0  0  0  0  0  0
    4.6672    2.2467   19.3770 C   0  0  0  0  0  0  0  0  0  0  0  0
    3.9443    1.2633   19.9663 C   0  0  0  0  0  0  0  0  0  0  0  0
    3.1447    0.4013   19.1835 C   0  0  0  0  0  0  0  0  0  0  0  0
    3.1197    0.5757   17.8340 C   0  0  0  0  0  0  0  0  0  0  0  0
    3.8727    1.5894   17.2681 C   0  0  0  0  0  0  0  0  0  0  0  0
    5.4889    6.5418   21.3265 C   0  0  0  0  0  0  0  0  0  0  0  0
    5.2570    5.2841   21.9623 C   0  0  0  0  0  0  0  0  0  0  0  0
    4.0062    5.0525   22.5269 C   0  0  0  0  0  0  0  0  0  0  0  0
    3.7863    3.8949   23.2131 C   0  0  0  0  0  0  0  0  0  0  0  0
    4.7680    2.9085   23.3842 C   0  0  0  0  0  0  0  0  0  0  0  0
    5.9661    3.1863   22.8139 C   0  0  0  0  0  0  0  0  0  0  0  0
    6.2476    4.3215   22.1154 C   0  0  0  0  0  0  0  0  0  0  0  0
    3.9575    7.6202   13.9772 C   0  0  0  0  0  0  0  0  0  0  0  0
    3.0535    7.9062   13.0943 O   0  0  0  0  0  0  0  0  0  0  0  0
    4.1065    6.2344   14.1910 N   0  0  0  0  0  0  0  0  0  0  0  0
    4.7900    5.9117   14.9150 H   0  0  0  0  0  0  0  0  0  0  0  0
    3.3921    5.2465   13.4738 C   0  0  0  0  0  0  0  0  0  0  0  0
    2.2532    4.7138   14.2293 C   0  0  0  0  0  0  0  0  0  0  0  0
    2.4017    3.9855   15.2156 O   0  0  0  0  0  0  0  0  0  0  0  0
    0.8758    5.0732   13.7577 C   0  0  0  0  0  0  0  0  0  0  0  0
    0.0517    5.9472   14.2576 N   0  0  0  0  0  0  0  0  0  0  0  0
   -1.1257    6.1487   13.6980 C   0  0  0  0  0  0  0  0  0  0  0  0
   -2.0762    7.0519   14.1344 C   0  0  0  0  0  0  0  0  0  0  0  0
   -3.2775    7.1876   13.4706 C   0  0  0  0  0  0  0  0  0  0  0  0
   -3.5835    6.4391   12.3575 C   0  0  0  0  0  0  0  0  0  0  0  0
   -2.6369    5.5399   11.9265 C   0  0  0  0  0  0  0  0  0  0  0  0
   -1.4119    5.3930   12.5923 C   0  0  0  0  0  0  0  0  0  0  0  0
    0.0117    4.4569   12.4297 S   0  0  0  0  0  0  0  0  0  0  0  0
    4.1545    4.2206   12.7022 C   0  0  0  0  0  0  0  0  0  0  0  0
    3.4787    3.7014   11.4971 C   0  0  0  0  0  0  0  0  0  0  0  0
    3.2081    4.3821   10.3454 C   0  0  0  0  0  0  0  0  0  0  0  0
    2.5738    3.8382    9.2455 C   0  0  0  0  0  0  0  0  0  0  0  0
    2.1586    2.4927    9.2696 C   0  0  0  0  0  0  0  0  0  0  0  0
    2.4214    1.7852   10.4210 C   0  0  0  0  0  0  0  0  0  0  0  0
    3.0500    2.3650   11.4809 C   0  0  0  0  0  0  0  0  0  0  0  0
    6.1283    8.7347   14.1823 C   0  0  0  0  0  0  0  0  0  0  0  0
    6.2692    8.9532   12.6626 C   0  0  0  0  0  0  0  0  0  0  0  0
    7.7406    8.7151   12.3588 C   0  0  0  0  0  0  0  0  0  0  0  0
    7.9041    7.8385   11.2334 N   0  0  0  0  0  0  0  0  0  0  0  0
    7.1380    7.8275   10.5004 H   0  0  0  0  0  0  0  0  0  0  0  0
    9.3473    6.4614    9.7986 N   0  0  0  0  0  0  0  0  0  0  0  0
    9.0601    6.9840   11.0712 C   0  0  0  0  0  0  0  0  0  0  0  0
    9.8153    6.6965   12.0680 N   0  0  0  0  0  0  0  0  0  0  0  0
    9.0863    6.9649    8.9064 H   0  0  0  0  0  0  0  0  0  0  0  0
    9.8515    5.5260    9.6934 H   0  0  0  0  0  0  0  0  0  0  0  0
    9.5703    7.1047   13.0113 H   0  0  0  0  0  0  0  0  0  0  0  0
 61 62  1  0  0  0
 62 63  2  0  0  0
 62 59  1  0  0  0
 59 58  1  0  0  0
 58 57  1  0  0  0
 57 56  1  0  0  0
 56  1  1  0  0  0
  1  2  1  0  0  0
  2  3  1  0  0  0
  3  4  2  0  0  0
  3  6  1  0  0  0
  6  7  1  0  0  0
  7  8  1  0  0  0
  8  9  1  0  0  0
  9 10  1  0  0  0
 10 11  1  0  0  0
 11 12  2  0  0  0
 11 13  1  0  0  0
 13 26  1  0  0  0
 26 27  1  0  0  0
 27 28  2  0  0  0
 28 29  1  0  0  0
 29 30  2  0  0  0
 30 31  1  0  0  0
 31 32  2  0  0  0
 13 14  1  0  0  0
 14 15  1  0  0  0
 15 16  2  0  0  0
 15 18  1  0  0  0
 18 19  1  0  0  0
 19 20  1  0  0  0
 20 21  2  0  0  0
 21 22  1  0  0  0
 22 23  2  0  0  0
 23 24  1  0  0  0
 24 25  2  0  0  0
  1 33  1  0  0  0
 33 34  2  0  0  0
 33 35  1  0  0  0
 35 37  1  0  0  0
 37 49  1  0  0  0
 49 50  1  0  0  0
 50 51  2  0  0  0
 51 52  1  0  0  0
 52 53  2  0  0  0
 53 54  1  0  0  0
 54 55  2  0  0  0
 37 38  1  0  0  0
 38 39  2  0  0  0
 38 40  1  0  0  0
 40 41  2  0  0  0
 41 42  1  0  0  0
 42 43  2  0  0  0
 43 44  1  0  0  0
 44 45  2  0  0  0
 45 46  1  0  0  0
 46 47  2  0  0  0
 47 48  1  0  0  0
 10  6  1  0  0  0
 32 27  1  0  0  0
 25 20  1  0  0  0
 55 50  1  0  0  0
 48 40  1  0  0  0
 47 42  1  0  0  0
 61 64  1  0  0  0
 61 65  1  0  0  0
 63 66  1  0  0  0
 59 60  1  0  0  0
  2  5  1  0  0  0
 14 17  1  0  0  0
 35 36  1  0  0  0
M  END
> <minimizedAffinity>
-9.53641

> <CNNscore>
0.1518417299

> <CNNaffinity>
7.5623779297

> <CNN_VS>
1.1482845545

> <CNNaffinity_variance>
0.5955063105

$$$$
[H]N=C(N([H])[H])N([H])C([H])([H])C([H])([H])C([H])([H])[C@@]([H])(C(=O)N([H])[C@]([H])(C(=O)c1nc2c([H])c([H])c([H])c([H])c2s1)C([H])([H])c1c([H])c([H])c([H])c([H])c1[H])N([H])C(=O)[C@@]1([H])N(C(=O)[C@@]([H])(N([H])C(=O)OC([H])([H])c2c([H])c([H])c([H])c([H])c2[H])C([H])([H])c2c([H])c([H])c([H])c([H])c2[H])C([H])([H])C([H])([H])C1([H])[H]


 66 71  0  0  0  0  0  0  0  0999 V2000
    3.8320    6.1407   17.4914 C   0  0  0  0  0  0  0  0  0  0  0  0
    4.2914    6.8739   16.3564 N   0  0  0  0  0  0  0  0  0  0  0  0
    3.7073    6.8526   15.0383 C   0  0  0  0  0  0  0  0  0  0  0  0
    2.7295    6.1886   14.8280 O   0  0  0  0  0  0  0  0  0  0  0  0
    5.1327    7.4842   16.4732 H   0  0  0  0  0  0  0  0  0  0  0  0
    4.3787    7.6875   13.9662 C   0  0  0  0  0  0  0  0  0  0  0  0
    4.6592    9.0755   14.5365 C   0  0  0  0  0  0  0  0  0  0  0  0
    3.3149    9.7747   14.4666 C   0  0  0  0  0  0  0  0  0  0  0  0
    2.4924    8.9031   13.5783 C   0  0  0  0  0  0  0  0  0  0  0  0
    3.4445    7.9642   12.9046 N   0  0  0  0  0  0  0  0  0  0  0  0
    3.3418    7.6663   11.5750 C   0  0  0  0  0  0  0  0  0  0  0  0
    2.2085    7.9625   10.9927 O   0  0  0  0  0  0  0  0  0  0  0  0
    4.3480    7.0421   10.6379 C   0  0  0  0  0  0  0  0  0  0  0  0
    3.6707    6.8688    9.3811 N   0  0  0  0  0  0  0  0  0  0  0  0
    3.4400    5.6914    8.6469 C   0  0  0  0  0  0  0  0  0  0  0  0
    3.9042    4.5952    9.0340 O   0  0  0  0  0  0  0  0  0  0  0  0
    3.2921    7.7542    8.9314 H   0  0  0  0  0  0  0  0  0  0  0  0
    2.6925    5.7369    7.4978 O   0  0  0  0  0  0  0  0  0  0  0  0
    1.3183    6.0329    7.4965 C   0  0  0  0  0  0  0  0  0  0  0  0
    0.9932    7.3340    6.8786 C   0  0  0  0  0  0  0  0  0  0  0  0
    2.0292    8.0210    6.2182 C   0  0  0  0  0  0  0  0  0  0  0  0
    1.8241    9.2482    5.6808 C   0  0  0  0  0  0  0  0  0  0  0  0
    0.5553    9.8622    5.7727 C   0  0  0  0  0  0  0  0  0  0  0  0
   -0.4481    9.2014    6.4119 C   0  0  0  0  0  0  0  0  0  0  0  0
   -0.2003    7.9508    6.9498 C   0  0  0  0  0  0  0  0  0  0  0  0
    5.4596    8.1250   10.5251 C   0  0  0  0  0  0  0  0  0  0  0  0
    6.7575    7.7817   11.0124 C   0  0  0  0  0  0  0  0  0  0  0  0
    7.3511    8.6199   11.9516 C   0  0  0  0  0  0  0  0  0  0  0  0
    8.6231    8.3613   12.3692 C   0  0  0  0  0  0  0  0  0  0  0  0
    9.3788    7.2791   11.8960 C   0  0  0  0  0  0  0  0  0  0  0  0
    8.7517    6.4967   10.9838 C   0  0  0  0  0  0  0  0  0  0  0  0
    7.4840    6.7004   10.5283 C   0  0  0  0  0  0  0  0  0  0  0  0
    4.7363    6.4433   18.6037 C   0  0  0  0  0  0  0  0  0  0  0  0
    5.8782    7.0071   18.3651 O   0  0  0  0  0  0  0  0  0  0  0  0
    4.5078    6.2100   19.9754 N   0  0  0  0  0  0  0  0  0  0  0  0
    3.6251    5.7242   20.2588 H   0  0  0  0  0  0  0  0  0  0  0  0
    5.3995    6.6051   20.9999 C   0  0  0  0  0  0  0  0  0  0  0  0
    5.9904    5.4628   21.7052 C   0  0  0  0  0  0  0  0  0  0  0  0
    7.0745    5.5418   22.2917 O   0  0  0  0  0  0  0  0  0  0  0  0
    5.2359    4.1669   21.6862 C   0  0  0  0  0  0  0  0  0  0  0  0
    5.0879    3.3312   20.7000 N   0  0  0  0  0  0  0  0  0  0  0  0
    4.3989    2.2189   20.8673 C   0  0  0  0  0  0  0  0  0  0  0  0
    4.1820    1.2573   19.8988 C   0  0  0  0  0  0  0  0  0  0  0  0
    3.4483    0.1242   20.1814 C   0  0  0  0  0  0  0  0  0  0  0  0
    2.9031   -0.0993   21.4247 C   0  0  0  0  0  0  0  0  0  0  0  0
    3.1186    0.8598   22.3860 C   0  0  0  0  0  0  0  0  0  0  0  0
    3.8631    2.0155   22.1112 C   0  0  0  0  0  0  0  0  0  0  0  0
    4.3800    3.4159   22.9485 S   0  0  0  0  0  0  0  0  0  0  0  0
    5.0240    7.7486   21.8835 C   0  0  0  0  0  0  0  0  0  0  0  0
    5.3030    9.0909   21.3369 C   0  0  0  0  0  0  0  0  0  0  0  0
    4.6509    9.7169   20.3142 C   0  0  0  0  0  0  0  0  0  0  0  0
    4.9567   10.9808   19.8483 C   0  0  0  0  0  0  0  0  0  0  0  0
    6.0068   11.7105   20.4383 C   0  0  0  0  0  0  0  0  0  0  0  0
    6.6792   11.0997   21.4727 C   0  0  0  0  0  0  0  0  0  0  0  0
    6.3413    9.8507   21.8977 C   0  0  0  0  0  0  0  0  0  0  0  0
    3.5642    4.6905   17.3585 C   0  0  0  0  0  0  0  0  0  0  0  0
    4.8157    3.9023   16.9233 C   0  0  0  0  0  0  0  0  0  0  0  0
    4.2896    2.7467   16.0855 C   0  0  0  0  0  0  0  0  0  0  0  0
    3.4265    1.8964   16.8560 N   0  0  0  0  0  0  0  0  0  0  0  0
    3.5574    1.8827   17.9082 H   0  0  0  0  0  0  0  0  0  0  0  0
    1.8205    1.4850   15.0424 N   0  0  0  0  0  0  0  0  0  0  0  0
    2.4027    1.0713   16.2528 C   0  0  0  0  0  0  0  0  0  0  0  0
    2.0202   -0.0203   16.8085 N   0  0  0  0  0  0  0  0  0  0  0  0
    2.3426    2.0683   14.3319 H   0  0  0  0  0  0  0  0  0  0  0  0
    0.8173    1.2128   14.7978 H   0  0  0  0  0  0  0  0  0  0  0  0
    2.4772   -0.3015   17.7187 H   0  0  0  0  0  0  0  0  0  0  0  0
 61 62  1  0  0  0
 62 63  2  0  0  0
 62 59  1  0  0  0
 59 58  1  0  0  0
 58 57  1  0  0  0
 57 56  1  0  0  0
 56  1  1  0  0  0
  1  2  1  0  0  0
  2  3  1  0  0  0
  3  4  2  0  0  0
  3  6  1  0  0  0
  6  7  1  0  0  0
  7  8  1  0  0  0
  8  9  1  0  0  0
  9 10  1  0  0  0
 10 11  1  0  0  0
 11 12  2  0  0  0
 11 13  1  0  0  0
 13 26  1  0  0  0
 26 27  1  0  0  0
 27 28  2  0  0  0
 28 29  1  0  0  0
 29 30  2  0  0  0
 30 31  1  0  0  0
 31 32  2  0  0  0
 13 14  1  0  0  0
 14 15  1  0  0  0
 15 16  2  0  0  0
 15 18  1  0  0  0
 18 19  1  0  0  0
 19 20  1  0  0  0
 20 21  2  0  0  0
 21 22  1  0  0  0
 22 23  2  0  0  0
 23 24  1  0  0  0
 24 25  2  0  0  0
  1 33  1  0  0  0
 33 34  2  0  0  0
 33 35  1  0  0  0
 35 37  1  0  0  0
 37 49  1  0  0  0
 49 50  1  0  0  0
 50 51  2  0  0  0
 51 52  1  0  0  0
 52 53  2  0  0  0
 53 54  1  0  0  0
 54 55  2  0  0  0
 37 38  1  0  0  0
 38 39  2  0  0  0
 38 40  1  0  0  0
 40 41  2  0  0  0
 41 42  1  0  0  0
 42 43  2  0  0  0
 43 44  1  0  0  0
 44 45  2  0  0  0
 45 46  1  0  0  0
 46 47  2  0  0  0
 47 48  1  0  0  0
 10  6  1  0  0  0
 32 27  1  0  0  0
 25 20  1  0  0  0
 55 50  1  0  0  0
 48 40  1  0  0  0
 47 42  1  0  0  0
 61 64  1  0  0  0
 61 65  1  0  0  0
 63 66  1  0  0  0
 59 60  1  0  0  0
  2  5  1  0  0  0
 14 17  1  0  0  0
 35 36  1  0  0  0
M  END
> <minimizedAffinity>
-9.02277

> <CNNscore>
0.1463527381

> <CNNaffinity>
7.2466721535

> <CNN_VS>
1.0605703592

> <CNNaffinity_variance>
0.3289636374

$$$$
[H]O[C@@]1([H])[C@]([H])(O[H])[C@@]([H])(C([H])([H])OP(=O)(O[H])OP(=O)(O[H])OP(=O)(O[H])OC([H])([H])[C@@]2([H])O[C@]([H])(O[H])[C@]2([H])O[H])O[C@@]1([H])n1c([H])c([H])c(=O)n([H])c1=O


 44 46  0  0  0  0  0  0  0  0999 V2000
    7.4627    7.0307   22.2918 P   0  0  0  0  0  0  0  0  0  0  0  0
    6.7011    7.2732   23.7377 O   0  0  0  0  0  0  0  0  0  0  0  0
    8.8998    6.8796   22.3494 O   0  0  0  0  0  0  0  0  0  0  0  0
    5.9115    7.8975   23.6793 H   0  0  0  0  0  0  0  0  0  0  0  0
    7.0823    8.3706   21.2177 O   0  0  0  0  0  0  0  0  0  0  0  0
    5.7034    9.1400   21.6772 P   0  0  0  0  0  0  0  0  0  0  0  0
    4.4944    7.9349   21.8664 O   0  0  0  0  0  0  0  0  0  0  0  0
    5.7924    9.8417   22.9930 O   0  0  0  0  0  0  0  0  0  0  0  0
    4.9205    7.0929   22.1330 H   0  0  0  0  0  0  0  0  0  0  0  0
    5.1563   10.1996   20.5088 O   0  0  0  0  0  0  0  0  0  0  0  0
    4.6137    9.2832   19.1576 P   0  0  0  0  0  0  0  0  0  0  0  0
    2.9346    8.9361   19.4256 O   0  0  0  0  0  0  0  0  0  0  0  0
    4.7756    9.9782   17.9000 O   0  0  0  0  0  0  0  0  0  0  0  0
    2.7591    8.8925   20.4113 H   0  0  0  0  0  0  0  0  0  0  0  0
    5.3474    7.7843   19.2684 O   0  0  0  0  0  0  0  0  0  0  0  0
    5.7107    7.2652   17.9955 C   0  0  0  0  0  0  0  0  0  0  0  0
    4.5452    4.1029   16.4862 O   0  0  0  0  0  0  0  0  0  0  0  0
    4.4114    5.4894   16.7441 C   0  0  0  0  0  0  0  0  0  0  0  0
    5.0399    5.8512   18.0443 C   0  0  0  0  0  0  0  0  0  0  0  0
    3.8072    5.9346   18.6551 O   0  0  0  0  0  0  0  0  0  0  0  0
    3.1256    5.8487   17.4639 C   0  0  0  0  0  0  0  0  0  0  0  0
    2.1467    4.8679   17.4462 O   0  0  0  0  0  0  0  0  0  0  0  0
    3.8269    3.7498   15.9283 H   0  0  0  0  0  0  0  0  0  0  0  0
    2.5234    3.9650   17.6126 H   0  0  0  0  0  0  0  0  0  0  0  0
    6.7413    5.7167   21.3764 O   0  0  0  0  0  0  0  0  0  0  0  0
    6.9181    4.6115   22.2302 C   0  0  0  0  0  0  0  0  0  0  0  0
    5.6285    3.9023   22.4371 C   0  0  0  0  0  0  0  0  0  0  0  0
    4.6820    3.7248   21.5246 O   0  0  0  0  0  0  0  0  0  0  0  0
    4.1129    2.4915   21.7652 C   0  0  0  0  0  0  0  0  0  0  0  0
    5.4600    1.6563   22.0295 C   0  0  0  0  0  0  0  0  0  0  0  0
    6.2028    1.7175   20.8487 O   0  0  0  0  0  0  0  0  0  0  0  0
    6.0691    2.5456   23.0271 C   0  0  0  0  0  0  0  0  0  0  0  0
    5.5183    2.3161   24.2654 O   0  0  0  0  0  0  0  0  0  0  0  0
    6.3606    2.6303   20.5619 H   0  0  0  0  0  0  0  0  0  0  0  0
    4.9291    3.0039   24.6132 H   0  0  0  0  0  0  0  0  0  0  0  0
    3.5931    1.7766   20.6092 N   0  0  0  0  0  0  0  0  0  0  0  0
    3.9460    2.1037   19.3811 C   0  0  0  0  0  0  0  0  0  0  0  0
    3.6662    1.2038   18.3428 C   0  0  0  0  0  0  0  0  0  0  0  0
    3.0225   -0.0041   18.6286 C   0  0  0  0  0  0  0  0  0  0  0  0
    2.7815   -0.8101   17.6964 O   0  0  0  0  0  0  0  0  0  0  0  0
    2.6969   -0.2447   19.8964 N   0  0  0  0  0  0  0  0  0  0  0  0
    2.9749    0.6338   20.9122 C   0  0  0  0  0  0  0  0  0  0  0  0
    2.6367    0.3467   22.0819 O   0  0  0  0  0  0  0  0  0  0  0  0
    2.2089   -1.1584   20.0754 H   0  0  0  0  0  0  0  0  0  0  0  0
 17 18  1  0  0  0
 18 19  1  0  0  0
 19 16  1  0  0  0
 16 15  1  0  0  0
 15 11  1  0  0  0
 11 12  1  0  0  0
 11 13  2  0  0  0
 11 10  1  0  0  0
 10  6  1  0  0  0
  6  7  1  0  0  0
  6  8  2  0  0  0
  6  5  1  0  0  0
  5  1  1  0  0  0
  1  2  1  0  0  0
  1  3  2  0  0  0
  1 25  1  0  0  0
 25 26  1  0  0  0
 26 27  1  0  0  0
 27 28  1  0  0  0
 28 29  1  0  0  0
 29 30  1  0  0  0
 30 31  1  0  0  0
 30 32  1  0  0  0
 32 33  1  0  0  0
 29 36  1  0  0  0
 36 37  1  0  0  0
 37 38  2  0  0  0
 38 39  1  0  0  0
 39 40  2  0  0  0
 39 41  1  0  0  0
 41 42  1  0  0  0
 42 43  2  0  0  0
 19 20  1  0  0  0
 20 21  1  0  0  0
 21 22  1  0  0  0
 21 18  1  0  0  0
 32 27  1  0  0  0
 42 36  1  0  0  0
 17 23  1  0  0  0
 12 14  1  0  0  0
  7  9  1  0  0  0
  2  4  1  0  0  0
 31 34  1  0  0  0
 33 35  1  0  0  0
 41 44  1  0  0  0
 22 24  1  0  0  0
M  END
> <minimizedAffinity>
-8.80872

> <CNNscore>
0.6783134937

> <CNNaffinity>
5.1468820572

> <CNN_VS>
3.4911994934

> <CNNaffinity_variance>
0.4938489795

$$$$
[H]O[C@@]1([H])[C@]([H])(O[H])[C@@]([H])(C([H])([H])OP(=O)(O[H])OP(=O)(O[H])OP(=O)(O[H])OC([H])([H])[C@@]2([H])O[C@]([H])(O[H])[C@]2([H])O[H])O[C@@]1([H])n1c([H])c([H])c(=O)n([H])c1=O


 44 46  0  0  0  0  0  0  0  0999 V2000
    5.9211    5.4608   20.6192 P   0  0  0  0  0  0  0  0  0  0  0  0
    4.7345    6.4635   21.1814 O   0  0  0  0  0  0  0  0  0  0  0  0
    5.5593    4.0681   20.4759 O   0  0  0  0  0  0  0  0  0  0  0  0
    5.0764    7.1978   21.7820 H   0  0  0  0  0  0  0  0  0  0  0  0
    7.3126    5.5716   21.6893 O   0  0  0  0  0  0  0  0  0  0  0  0
    7.4158    7.0538   22.3941 P   0  0  0  0  0  0  0  0  0  0  0  0
    6.2115    7.1137   23.6173 O   0  0  0  0  0  0  0  0  0  0  0  0
    8.7134    7.3255   23.0826 O   0  0  0  0  0  0  0  0  0  0  0  0
    6.0616    6.2087   23.9636 H   0  0  0  0  0  0  0  0  0  0  0  0
    7.0793    8.2855   21.3185 O   0  0  0  0  0  0  0  0  0  0  0  0
    6.1527    9.4817   22.1373 P   0  0  0  0  0  0  0  0  0  0  0  0
    4.5315    8.8730   22.2508 O   0  0  0  0  0  0  0  0  0  0  0  0
    6.6567    9.7822   23.4589 O   0  0  0  0  0  0  0  0  0  0  0  0
    4.3518    8.2641   21.4753 H   0  0  0  0  0  0  0  0  0  0  0  0
    6.0128   10.7796   21.0917 O   0  0  0  0  0  0  0  0  0  0  0  0
    5.9536   10.3729   19.7306 C   0  0  0  0  0  0  0  0  0  0  0  0
    2.4225    9.4141   19.2321 O   0  0  0  0  0  0  0  0  0  0  0  0
    3.7716    9.4840   18.8054 C   0  0  0  0  0  0  0  0  0  0  0  0
    4.4539   10.6699   19.3925 C   0  0  0  0  0  0  0  0  0  0  0  0
    4.3657   11.3533   18.1989 O   0  0  0  0  0  0  0  0  0  0  0  0
    3.9550   10.2403   17.5035 C   0  0  0  0  0  0  0  0  0  0  0  0
    2.7975   10.4339   16.7665 O   0  0  0  0  0  0  0  0  0  0  0  0
    1.8433    8.9667   18.5870 H   0  0  0  0  0  0  0  0  0  0  0  0
    2.0320   10.6968   17.3406 H   0  0  0  0  0  0  0  0  0  0  0  0
    6.6499    6.0634   19.1391 O   0  0  0  0  0  0  0  0  0  0  0  0
    5.5866    6.7571   18.5310 C   0  0  0  0  0  0  0  0  0  0  0  0
    5.1640    6.0706   17.2824 C   0  0  0  0  0  0  0  0  0  0  0  0
    5.3910    4.7996   16.9771 O   0  0  0  0  0  0  0  0  0  0  0  0
    4.2975    4.3521   16.2651 C   0  0  0  0  0  0  0  0  0  0  0  0
    3.1416    5.0046   17.1707 C   0  0  0  0  0  0  0  0  0  0  0  0
    3.2634    4.4355   18.4400 O   0  0  0  0  0  0  0  0  0  0  0  0
    3.6536    6.3805   17.2098 C   0  0  0  0  0  0  0  0  0  0  0  0
    3.3162    7.0446   16.0546 O   0  0  0  0  0  0  0  0  0  0  0  0
    4.1542    4.5454   18.8070 H   0  0  0  0  0  0  0  0  0  0  0  0
    4.0377    7.2295   15.4331 H   0  0  0  0  0  0  0  0  0  0  0  0
    3.9628    2.9426   16.4020 N   0  0  0  0  0  0  0  0  0  0  0  0
    4.4577    2.2088   17.3800 C   0  0  0  0  0  0  0  0  0  0  0  0
    3.8717    0.9624   17.6433 C   0  0  0  0  0  0  0  0  0  0  0  0
    2.7914    0.5282   16.8691 C   0  0  0  0  0  0  0  0  0  0  0  0
    2.2651   -0.5851   17.1142 O   0  0  0  0  0  0  0  0  0  0  0  0
    2.3652    1.3329   15.8985 N   0  0  0  0  0  0  0  0  0  0  0  0
    2.9358    2.5538   15.6443 C   0  0  0  0  0  0  0  0  0  0  0  0
    2.4882    3.2586   14.7127 O   0  0  0  0  0  0  0  0  0  0  0  0
    1.5560    0.9734   15.3319 H   0  0  0  0  0  0  0  0  0  0  0  0
 17 18  1  0  0  0
 18 19  1  0  0  0
 19 16  1  0  0  0
 16 15  1  0  0  0
 15 11  1  0  0  0
 11 12  1  0  0  0
 11 13  2  0  0  0
 11 10  1  0  0  0
 10  6  1  0  0  0
  6  7  1  0  0  0
  6  8  2  0  0  0
  6  5  1  0  0  0
  5  1  1  0  0  0
  1  2  1  0  0  0
  1  3  2  0  0  0
  1 25  1  0  0  0
 25 26  1  0  0  0
 26 27  1  0  0  0
 27 28  1  0  0  0
 28 29  1  0  0  0
 29 30  1  0  0  0
 30 31  1  0  0  0
 30 32  1  0  0  0
 32 33  1  0  0  0
 29 36  1  0  0  0
 36 37  1  0  0  0
 37 38  2  0  0  0
 38 39  1  0  0  0
 39 40  2  0  0  0
 39 41  1  0  0  0
 41 42  1  0  0  0
 42 43  2  0  0  0
 19 20  1  0  0  0
 20 21  1  0  0  0
 21 22  1  0  0  0
 21 18  1  0  0  0
 32 27  1  0  0  0
 42 36  1  0  0  0
 17 23  1  0  0  0
 12 14  1  0  0  0
  7  9  1  0  0  0
  2  4  1  0  0  0
 31 34  1  0  0  0
 33 35  1  0  0  0
 41 44  1  0  0  0
 22 24  1  0  0  0
M  END
> <minimizedAffinity>
-8.67363

> <CNNscore>
0.5263170600

> <CNNaffinity>
4.8580188751

> <CNN_VS>
2.5568583012

> <CNNaffinity_variance>
0.5694010258

$$$$
[H]O[C@@]1([H])[C@]([H])(O[H])[C@@]([H])(C([H])([H])OP(=O)(O[H])OP(=O)(O[H])OP(=O)(O[H])OC([H])([H])[C@@]2([H])O[C@]([H])(O[H])[C@]2([H])O[H])O[C@@]1([H])n1c([H])c([H])c(=O)n([H])c1=O


 44 46  0  0  0  0  0  0  0  0999 V2000
    4.4696    9.5827   19.3296 P   0  0  0  0  0  0  0  0  0  0  0  0
    3.1034    8.6769   19.5355 O   0  0  0  0  0  0  0  0  0  0  0  0
    4.2902   11.0173   19.3598 O   0  0  0  0  0  0  0  0  0  0  0  0
    3.0948    7.8283   18.9911 H   0  0  0  0  0  0  0  0  0  0  0  0
    5.2174    9.1431   17.7995 O   0  0  0  0  0  0  0  0  0  0  0  0
    6.1998   10.3383   17.2421 P   0  0  0  0  0  0  0  0  0  0  0  0
    6.9504   11.0519   18.6122 O   0  0  0  0  0  0  0  0  0  0  0  0
    7.3127    9.8687   16.3631 O   0  0  0  0  0  0  0  0  0  0  0  0
    7.0400   10.3758   19.3168 H   0  0  0  0  0  0  0  0  0  0  0  0
    5.3437   11.5467   16.4712 O   0  0  0  0  0  0  0  0  0  0  0  0
    4.0936   10.8165   15.5417 P   0  0  0  0  0  0  0  0  0  0  0  0
    2.9406   10.1710   16.6666 O   0  0  0  0  0  0  0  0  0  0  0  0
    3.4382   11.7436   14.6463 O   0  0  0  0  0  0  0  0  0  0  0  0
    3.4106    9.9235   17.5165 H   0  0  0  0  0  0  0  0  0  0  0  0
    4.7559    9.4541   14.8326 O   0  0  0  0  0  0  0  0  0  0  0  0
    3.8082    8.7358   14.0532 C   0  0  0  0  0  0  0  0  0  0  0  0
    4.2860    5.1387   13.3682 O   0  0  0  0  0  0  0  0  0  0  0  0
    3.4642    6.2740   13.5752 C   0  0  0  0  0  0  0  0  0  0  0  0
    4.1358    7.2610   14.4647 C   0  0  0  0  0  0  0  0  0  0  0  0
    3.3502    6.8835   15.5324 O   0  0  0  0  0  0  0  0  0  0  0  0
    2.5132    6.1257   14.7474 C   0  0  0  0  0  0  0  0  0  0  0  0
    2.3374    4.8287   15.2030 O   0  0  0  0  0  0  0  0  0  0  0  0
    3.7743    4.3279   13.1876 H   0  0  0  0  0  0  0  0  0  0  0  0
    3.1954    4.3322   15.2485 H   0  0  0  0  0  0  0  0  0  0  0  0
    5.7548    9.0995   20.4251 O   0  0  0  0  0  0  0  0  0  0  0  0
    5.8410    7.7114   20.2075 C   0  0  0  0  0  0  0  0  0  0  0  0
    5.1454    6.9705   21.2920 C   0  0  0  0  0  0  0  0  0  0  0  0
    4.2384    6.0166   21.1261 O   0  0  0  0  0  0  0  0  0  0  0  0
    4.4159    5.1063   22.1473 C   0  0  0  0  0  0  0  0  0  0  0  0
    6.0202    5.0211   22.1128 C   0  0  0  0  0  0  0  0  0  0  0  0
    6.3644    4.5321   20.8510 O   0  0  0  0  0  0  0  0  0  0  0  0
    6.3105    6.4598   22.1663 C   0  0  0  0  0  0  0  0  0  0  0  0
    6.2234    6.9128   23.4612 O   0  0  0  0  0  0  0  0  0  0  0  0
    5.9875    5.0670   20.1354 H   0  0  0  0  0  0  0  0  0  0  0  0
    5.4623    7.4753   23.6745 H   0  0  0  0  0  0  0  0  0  0  0  0
    4.0812    3.7214   21.8515 N   0  0  0  0  0  0  0  0  0  0  0  0
    4.0958    3.2577   20.6168 C   0  0  0  0  0  0  0  0  0  0  0  0
    4.0696    1.8691   20.4236 C   0  0  0  0  0  0  0  0  0  0  0  0
    4.0244    1.0170   21.5312 C   0  0  0  0  0  0  0  0  0  0  0  0
    4.0093   -0.2258   21.3529 O   0  0  0  0  0  0  0  0  0  0  0  0
    4.0045    1.5758   22.7389 N   0  0  0  0  0  0  0  0  0  0  0  0
    4.0347    2.9338   22.9274 C   0  0  0  0  0  0  0  0  0  0  0  0
    4.0090    3.3928   24.0909 O   0  0  0  0  0  0  0  0  0  0  0  0
    3.9642    0.9071   23.5491 H   0  0  0  0  0  0  0  0  0  0  0  0
 17 18  1  0  0  0
 18 19  1  0  0  0
 19 16  1  0  0  0
 16 15  1  0  0  0
 15 11  1  0  0  0
 11 12  1  0  0  0
 11 13  2  0  0  0
 11 10  1  0  0  0
 10  6  1  0  0  0
  6  7  1  0  0  0
  6  8  2  0  0  0
  6  5  1  0  0  0
  5  1  1  0  0  0
  1  2  1  0  0  0
  1  3  2  0  0  0
  1 25  1  0  0  0
 25 26  1  0  0  0
 26 27  1  0  0  0
 27 28  1  0  0  0
 28 29  1  0  0  0
 29 30  1  0  0  0
 30 31  1  0  0  0
 30 32  1  0  0  0
 32 33  1  0  0  0
 29 36  1  0  0  0
 36 37  1  0  0  0
 37 38  2  0  0  0
 38 39  1  0  0  0
 39 40  2  0  0  0
 39 41  1  0  0  0
 41 42  1  0  0  0
 42 43  2  0  0  0
 19 20  1  0  0  0
 20 21  1  0  0  0
 21 22  1  0  0  0
 21 18  1  0  0  0
 32 27  1  0  0  0
 42 36  1  0  0  0
 17 23  1  0  0  0
 12 14  1  0  0  0
  7  9  1  0  0  0
  2  4  1  0  0  0
 31 34  1  0  0  0
 33 35  1  0  0  0
 41 44  1  0  0  0
 22 24  1  0  0  0
M  END
> <minimizedAffinity>
-8.00578

> <CNNscore>
0.3697779179

> <CNNaffinity>
4.9191679955

> <CNN_VS>
1.8189996481

> <CNNaffinity_variance>
0.4775362015

$$$$
[H]O[C@@]1([H])[C@]([H])(O[H])[C@@]([H])(C([H])([H])OP(=O)(O[H])OP(=O)(O[H])OP(=O)(O[H])OC([H])([H])[C@@]2([H])O[C@]([H])(O[H])[C@]2([H])O[H])O[C@@]1([H])n1c([H])c([H])c(=O)n([H])c1=O


 44 46  0  0  0  0  0  0  0  0999 V2000
    4.5007   10.0622   19.0433 P   0  0  0  0  0  0  0  0  0  0  0  0
    2.9296    9.5636   18.9310 O   0  0  0  0  0  0  0  0  0  0  0  0
    4.7402   11.2225   19.8725 O   0  0  0  0  0  0  0  0  0  0  0  0
    2.6842    9.2012   18.0226 H   0  0  0  0  0  0  0  0  0  0  0  0
    5.1086   10.3932   17.4263 O   0  0  0  0  0  0  0  0  0  0  0  0
    3.9757   11.1391   16.4964 P   0  0  0  0  0  0  0  0  0  0  0  0
    3.0057   12.0875   17.5497 O   0  0  0  0  0  0  0  0  0  0  0  0
    4.5294   12.0875   15.4837 O   0  0  0  0  0  0  0  0  0  0  0  0
    3.5489   12.3738   18.3143 H   0  0  0  0  0  0  0  0  0  0  0  0
    2.9583   10.0467   15.7489 O   0  0  0  0  0  0  0  0  0  0  0  0
    3.9214    8.9136   14.8838 P   0  0  0  0  0  0  0  0  0  0  0  0
    5.4420    9.6859   14.5630 O   0  0  0  0  0  0  0  0  0  0  0  0
    4.1407    7.6838   15.6120 O   0  0  0  0  0  0  0  0  0  0  0  0
    5.3021   10.6759   14.4940 H   0  0  0  0  0  0  0  0  0  0  0  0
    3.2327    8.7568   13.3677 O   0  0  0  0  0  0  0  0  0  0  0  0
    2.7127    7.4527   13.1428 C   0  0  0  0  0  0  0  0  0  0  0  0
   -0.5288    6.5898   11.5984 O   0  0  0  0  0  0  0  0  0  0  0  0
    0.8878    6.5917   11.6144 C   0  0  0  0  0  0  0  0  0  0  0  0
    1.4095    7.7825   12.3398 C   0  0  0  0  0  0  0  0  0  0  0  0
    1.7313    8.4058   11.1535 O   0  0  0  0  0  0  0  0  0  0  0  0
    1.5046    7.2729   10.4078 C   0  0  0  0  0  0  0  0  0  0  0  0
    0.6456    7.4672    9.3377 O   0  0  0  0  0  0  0  0  0  0  0  0
   -0.8987    6.1294   10.8219 H   0  0  0  0  0  0  0  0  0  0  0  0
   -0.2471    7.7853    9.6320 H   0  0  0  0  0  0  0  0  0  0  0  0
    5.5802    8.7512   19.4917 O   0  0  0  0  0  0  0  0  0  0  0  0
    4.9937    7.6380   18.8605 C   0  0  0  0  0  0  0  0  0  0  0  0
    4.2097    6.8388   19.8379 C   0  0  0  0  0  0  0  0  0  0  0  0
    3.7514    5.6082   19.6485 O   0  0  0  0  0  0  0  0  0  0  0  0
    3.8127    4.9610   20.8651 C   0  0  0  0  0  0  0  0  0  0  0  0
    5.2692    5.4595   21.3258 C   0  0  0  0  0  0  0  0  0  0  0  0
    6.1728    4.9733   20.3786 O   0  0  0  0  0  0  0  0  0  0  0  0
    5.0780    6.8999   21.1126 C   0  0  0  0  0  0  0  0  0  0  0  0
    4.4008    7.4502   22.1746 O   0  0  0  0  0  0  0  0  0  0  0  0
    5.9372    5.2402   19.4766 H   0  0  0  0  0  0  0  0  0  0  0  0
    3.4834    7.7207   22.0118 H   0  0  0  0  0  0  0  0  0  0  0  0
    4.0357    3.5235   20.8283 N   0  0  0  0  0  0  0  0  0  0  0  0
    4.3745    2.9072   19.7124 C   0  0  0  0  0  0  0  0  0  0  0  0
    4.8709    1.5984   19.7954 C   0  0  0  0  0  0  0  0  0  0  0  0
    4.9899    0.9813   21.0445 C   0  0  0  0  0  0  0  0  0  0  0  0
    5.4426   -0.1878   21.1141 O   0  0  0  0  0  0  0  0  0  0  0  0
    4.6156    1.6781   22.1149 N   0  0  0  0  0  0  0  0  0  0  0  0
    4.1344    2.9597   22.0335 C   0  0  0  0  0  0  0  0  0  0  0  0
    3.7962    3.5560   23.0799 O   0  0  0  0  0  0  0  0  0  0  0  0
    4.7121    1.1825   23.0369 H   0  0  0  0  0  0  0  0  0  0  0  0
 17 18  1  0  0  0
 18 19  1  0  0  0
 19 16  1  0  0  0
 16 15  1  0  0  0
 15 11  1  0  0  0
 11 12  1  0  0  0
 11 13  2  0  0  0
 11 10  1  0  0  0
 10  6  1  0  0  0
  6  7  1  0  0  0
  6  8  2  0  0  0
  6  5  1  0  0  0
  5  1  1  0  0  0
  1  2  1  0  0  0
  1  3  2  0  0  0
  1 25  1  0  0  0
 25 26  1  0  0  0
 26 27  1  0  0  0
 27 28  1  0  0  0
 28 29  1  0  0  0
 29 30  1  0  0  0
 30 31  1  0  0  0
 30 32  1  0  0  0
 32 33  1  0  0  0
 29 36  1  0  0  0
 36 37  1  0  0  0
 37 38  2  0  0  0
 38 39  1  0  0  0
 39 40  2  0  0  0
 39 41  1  0  0  0
 41 42  1  0  0  0
 42 43  2  0  0  0
 19 20  1  0  0  0
 20 21  1  0  0  0
 21 22  1  0  0  0
 21 18  1  0  0  0
 32 27  1  0  0  0
 42 36  1  0  0  0
 17 23  1  0  0  0
 12 14  1  0  0  0
  7  9  1  0  0  0
  2  4  1  0  0  0
 31 34  1  0  0  0
 33 35  1  0  0  0
 41 44  1  0  0  0
 22 24  1  0  0  0
M  END
> <minimizedAffinity>
-7.77678

> <CNNscore>
0.3375490606

> <CNNaffinity>
4.8427915573

> <CNN_VS>
1.6346797943

> <CNNaffinity_variance>
0.4956393242

$$$$
[H]O[C@@]1([H])[C@]([H])(O[H])[C@@]([H])(C([H])([H])OP(=O)(O[H])OP(=O)(O[H])OP(=O)(O[H])OC([H])([H])[C@@]2([H])O[C@]([H])(O[H])[C@]2([H])O[H])O[C@@]1([H])n1c([H])c([H])c(=O)n([H])c1=O


 44 46  0  0  0  0  0  0  0  0999 V2000
    4.6170    8.0253   15.7449 P   0  0  0  0  0  0  0  0  0  0  0  0
    5.3533    6.7410   16.4783 O   0  0  0  0  0  0  0  0  0  0  0  0
    5.4473    8.8121   14.8602 O   0  0  0  0  0  0  0  0  0  0  0  0
    5.0305    6.5726   17.4186 H   0  0  0  0  0  0  0  0  0  0  0  0
    3.9564    9.0848   16.9838 O   0  0  0  0  0  0  0  0  0  0  0  0
    4.2833    8.5240   18.4948 P   0  0  0  0  0  0  0  0  0  0  0  0
    5.9831    8.2971   18.5900 O   0  0  0  0  0  0  0  0  0  0  0  0
    3.9334    9.4691   19.5975 O   0  0  0  0  0  0  0  0  0  0  0  0
    6.4257    8.9399   17.9963 H   0  0  0  0  0  0  0  0  0  0  0  0
    3.5768    7.0384   18.7799 O   0  0  0  0  0  0  0  0  0  0  0  0
    4.5692    6.1696   19.8846 P   0  0  0  0  0  0  0  0  0  0  0  0
    5.8120    5.4010   18.9485 O   0  0  0  0  0  0  0  0  0  0  0  0
    5.1679    7.0148   20.8936 O   0  0  0  0  0  0  0  0  0  0  0  0
    5.4630    5.2102   18.0286 H   0  0  0  0  0  0  0  0  0  0  0  0
    3.6529    4.8889   20.4482 O   0  0  0  0  0  0  0  0  0  0  0  0
    4.2826    3.6341   20.2238 C   0  0  0  0  0  0  0  0  0  0  0  0
    6.5598    1.8311   22.5042 O   0  0  0  0  0  0  0  0  0  0  0  0
    5.2776    2.0781   21.9548 C   0  0  0  0  0  0  0  0  0  0  0  0
    5.1499    3.4962   21.5202 C   0  0  0  0  0  0  0  0  0  0  0  0
    4.3919    3.8029   22.6297 O   0  0  0  0  0  0  0  0  0  0  0  0
    4.2451    2.4837   22.9891 C   0  0  0  0  0  0  0  0  0  0  0  0
    4.5925    2.2178   24.3041 O   0  0  0  0  0  0  0  0  0  0  0  0
    6.5574    1.1136   23.1652 H   0  0  0  0  0  0  0  0  0  0  0  0
    5.5389    2.4498   24.4917 H   0  0  0  0  0  0  0  0  0  0  0  0
    3.1260    7.5619   14.9403 O   0  0  0  0  0  0  0  0  0  0  0  0
    3.5251    7.4401   13.5959 C   0  0  0  0  0  0  0  0  0  0  0  0
    3.2892    6.0568   13.1064 C   0  0  0  0  0  0  0  0  0  0  0  0
    3.8809    4.9589   13.5587 O   0  0  0  0  0  0  0  0  0  0  0  0
    2.9517    3.9414   13.4940 C   0  0  0  0  0  0  0  0  0  0  0  0
    1.6833    4.7416   14.0710 C   0  0  0  0  0  0  0  0  0  0  0  0
    2.0145    5.1251   15.3721 O   0  0  0  0  0  0  0  0  0  0  0  0
    1.7544    5.9153   13.1911 C   0  0  0  0  0  0  0  0  0  0  0  0
    1.1928    5.6269   11.9701 O   0  0  0  0  0  0  0  0  0  0  0  0
    2.8417    5.6301   15.4059 H   0  0  0  0  0  0  0  0  0  0  0  0
    1.8029    5.5393   11.2210 H   0  0  0  0  0  0  0  0  0  0  0  0
    3.0654    2.8901   14.4936 N   0  0  0  0  0  0  0  0  0  0  0  0
    3.8161    3.0392   15.5679 C   0  0  0  0  0  0  0  0  0  0  0  0
    3.6493    2.1396   16.6305 C   0  0  0  0  0  0  0  0  0  0  0  0
    2.7051    1.1136   16.5268 C   0  0  0  0  0  0  0  0  0  0  0  0
    2.5539    0.3156   17.4844 O   0  0  0  0  0  0  0  0  0  0  0  0
    1.9989    1.0366   15.4014 N   0  0  0  0  0  0  0  0  0  0  0  0
    2.1594    1.9194   14.3642 C   0  0  0  0  0  0  0  0  0  0  0  0
    1.4652    1.7866   13.3320 O   0  0  0  0  0  0  0  0  0  0  0  0
    1.3028    0.2503   15.3539 H   0  0  0  0  0  0  0  0  0  0  0  0
 17 18  1  0  0  0
 18 19  1  0  0  0
 19 16  1  0  0  0
 16 15  1  0  0  0
 15 11  1  0  0  0
 11 12  1  0  0  0
 11 13  2  0  0  0
 11 10  1  0  0  0
 10  6  1  0  0  0
  6  7  1  0  0  0
  6  8  2  0  0  0
  6  5  1  0  0  0
  5  1  1  0  0  0
  1  2  1  0  0  0
  1  3  2  0  0  0
  1 25  1  0  0  0
 25 26  1  0  0  0
 26 27  1  0  0  0
 27 28  1  0  0  0
 28 29  1  0  0  0
 29 30  1  0  0  0
 30 31  1  0  0  0
 30 32  1  0  0  0
 32 33  1  0  0  0
 29 36  1  0  0  0
 36 37  1  0  0  0
 37 38  2  0  0  0
 38 39  1  0  0  0
 39 40  2  0  0  0
 39 41  1  0  0  0
 41 42  1  0  0  0
 42 43  2  0  0  0
 19 20  1  0  0  0
 20 21  1  0  0  0
 21 22  1  0  0  0
 21 18  1  0  0  0
 32 27  1  0  0  0
 42 36  1  0  0  0
 17 23  1  0  0  0
 12 14  1  0  0  0
  7  9  1  0  0  0
  2  4  1  0  0  0
 31 34  1  0  0  0
 33 35  1  0  0  0
 41 44  1  0  0  0
 22 24  1  0  0  0
M  END
> <minimizedAffinity>
-7.43390

> <CNNscore>
0.2888301015

> <CNNaffinity>
4.6689467430

> <CNN_VS>
1.3485323191

> <CNNaffinity_variance>
0.3935821652

$$$$
[H]O[C@@]1([H])[C@]([H])(O[H])[C@@]([H])(C([H])([H])OP(=O)(O[H])OP(=O)(O[H])OP(=O)(O[H])OC([H])([H])[C@@]2([H])O[C@]([H])(O[H])[C@]2([H])O[H])O[C@@]1([H])n1c([H])c([H])c(=O)n([H])c1=O


 44 46  0  0  0  0  0  0  0  0999 V2000
    4.2723   10.1453   19.1662 P   0  0  0  0  0  0  0  0  0  0  0  0
    2.9534    9.1518   19.2187 O   0  0  0  0  0  0  0  0  0  0  0  0
    3.9963   11.5617   19.0732 O   0  0  0  0  0  0  0  0  0  0  0  0
    3.0870    8.2762   18.7369 H   0  0  0  0  0  0  0  0  0  0  0  0
    5.2803    9.6796   17.8020 O   0  0  0  0  0  0  0  0  0  0  0  0
    4.5784   10.0778   16.3690 P   0  0  0  0  0  0  0  0  0  0  0  0
    2.8792   10.0532   16.6176 O   0  0  0  0  0  0  0  0  0  0  0  0
    4.9014   11.4517   15.8795 O   0  0  0  0  0  0  0  0  0  0  0  0
    2.6887   10.2837   17.5515 H   0  0  0  0  0  0  0  0  0  0  0  0
    4.9122    8.9604   15.1743 O   0  0  0  0  0  0  0  0  0  0  0  0
    3.7988    7.6575   15.3248 P   0  0  0  0  0  0  0  0  0  0  0  0
    4.4122    6.3558   14.3548 O   0  0  0  0  0  0  0  0  0  0  0  0
    3.6283    7.2128   16.6901 O   0  0  0  0  0  0  0  0  0  0  0  0
    4.9429    6.7328   13.5928 H   0  0  0  0  0  0  0  0  0  0  0  0
    2.4056    8.1216   14.5240 O   0  0  0  0  0  0  0  0  0  0  0  0
    2.1141    7.2806   13.4153 C   0  0  0  0  0  0  0  0  0  0  0  0
    1.7624    8.5124    9.9518 O   0  0  0  0  0  0  0  0  0  0  0  0
    2.2279    7.5717   10.9033 C   0  0  0  0  0  0  0  0  0  0  0  0
    2.4745    8.2240   12.2187 C   0  0  0  0  0  0  0  0  0  0  0  0
    3.8360    8.2161   12.0051 O   0  0  0  0  0  0  0  0  0  0  0  0
    3.7353    7.4043   10.8997 C   0  0  0  0  0  0  0  0  0  0  0  0
    4.3805    7.9002    9.7779 O   0  0  0  0  0  0  0  0  0  0  0  0
    1.9956    8.2721    9.0355 H   0  0  0  0  0  0  0  0  0  0  0  0
    4.0209    8.7835    9.5035 H   0  0  0  0  0  0  0  0  0  0  0  0
    5.3968    9.8215   20.4761 O   0  0  0  0  0  0  0  0  0  0  0  0
    4.7956    8.7343   21.1380 C   0  0  0  0  0  0  0  0  0  0  0  0
    5.5666    7.4869   20.8960 C   0  0  0  0  0  0  0  0  0  0  0  0
    5.7603    6.5087   21.7710 O   0  0  0  0  0  0  0  0  0  0  0  0
    5.7752    5.3263   21.0607 C   0  0  0  0  0  0  0  0  0  0  0  0
    4.5229    5.6136   20.0956 C   0  0  0  0  0  0  0  0  0  0  0  0
    3.4093    5.7631   20.9247 O   0  0  0  0  0  0  0  0  0  0  0  0
    4.9344    6.9337   19.6009 C   0  0  0  0  0  0  0  0  0  0  0  0
    5.8579    6.7950   18.5923 O   0  0  0  0  0  0  0  0  0  0  0  0
    3.5445    6.4451   21.6005 H   0  0  0  0  0  0  0  0  0  0  0  0
    6.7718    7.0432   18.8027 H   0  0  0  0  0  0  0  0  0  0  0  0
    5.2941    4.1420   21.7560 N   0  0  0  0  0  0  0  0  0  0  0  0
    4.8234    4.2090   22.9863 C   0  0  0  0  0  0  0  0  0  0  0  0
    4.0996    3.1168   23.4859 C   0  0  0  0  0  0  0  0  0  0  0  0
    3.8994    1.9922   22.6795 C   0  0  0  0  0  0  0  0  0  0  0  0
    3.2436    1.0202   23.1287 O   0  0  0  0  0  0  0  0  0  0  0  0
    4.4184    2.0114   21.4542 N   0  0  0  0  0  0  0  0  0  0  0  0
    5.1224    3.0817   20.9646 C   0  0  0  0  0  0  0  0  0  0  0  0
    5.5873    3.0317   19.8043 O   0  0  0  0  0  0  0  0  0  0  0  0
    4.2549    1.1481   20.8772 H   0  0  0  0  0  0  0  0  0  0  0  0
 17 18  1  0  0  0
 18 19  1  0  0  0
 19 16  1  0  0  0
 16 15  1  0  0  0
 15 11  1  0  0  0
 11 12  1  0  0  0
 11 13  2  0  0  0
 11 10  1  0  0  0
 10  6  1  0  0  0
  6  7  1  0  0  0
  6  8  2  0  0  0
  6  5  1  0  0  0
  5  1  1  0  0  0
  1  2  1  0  0  0
  1  3  2  0  0  0
  1 25  1  0  0  0
 25 26  1  0  0  0
 26 27  1  0  0  0
 27 28  1  0  0  0
 28 29  1  0  0  0
 29 30  1  0  0  0
 30 31  1  0  0  0
 30 32  1  0  0  0
 32 33  1  0  0  0
 29 36  1  0  0  0
 36 37  1  0  0  0
 37 38  2  0  0  0
 38 39  1  0  0  0
 39 40  2  0  0  0
 39 41  1  0  0  0
 41 42  1  0  0  0
 42 43  2  0  0  0
 19 20  1  0  0  0
 20 21  1  0  0  0
 21 22  1  0  0  0
 21 18  1  0  0  0
 32 27  1  0  0  0
 42 36  1  0  0  0
 17 23  1  0  0  0
 12 14  1  0  0  0
  7  9  1  0  0  0
  2  4  1  0  0  0
 31 34  1  0  0  0
 33 35  1  0  0  0
 41 44  1  0  0  0
 22 24  1  0  0  0
M  END
> <minimizedAffinity>
-7.89446

> <CNNscore>
0.2779138088

> <CNNaffinity>
4.6907138824

> <CNN_VS>
1.3036141396

> <CNNaffinity_variance>
0.4868830144

$$$$
[H]O[C@@]1([H])[C@]([H])(O[H])[C@@]([H])(C([H])([H])OP(=O)(O[H])OP(=O)(O[H])OP(=O)(O[H])OC([H])([H])[C@@]2([H])O[C@]([H])(O[H])[C@]2([H])O[H])O[C@@]1([H])n1c([H])c([H])c(=O)n([H])c1=O


 44 46  0  0  0  0  0  0  0  0999 V2000
    4.3840    9.5956   19.1652 P   0  0  0  0  0  0  0  0  0  0  0  0
    3.1984    8.4486   19.0744 O   0  0  0  0  0  0  0  0  0  0  0  0
    3.9378   10.9525   19.3904 O   0  0  0  0  0  0  0  0  0  0  0  0
    3.3951    7.7151   18.4110 H   0  0  0  0  0  0  0  0  0  0  0  0
    5.3287    9.5546   17.6821 O   0  0  0  0  0  0  0  0  0  0  0  0
    4.3655    9.4183   16.3562 P   0  0  0  0  0  0  0  0  0  0  0  0
    2.9060   10.2529   16.7071 O   0  0  0  0  0  0  0  0  0  0  0  0
    4.9148   10.0542   15.1211 O   0  0  0  0  0  0  0  0  0  0  0  0
    3.0974   10.9838   17.3322 H   0  0  0  0  0  0  0  0  0  0  0  0
    3.9549    7.8315   16.0387 O   0  0  0  0  0  0  0  0  0  0  0  0
    3.0190    7.7924   14.5957 P   0  0  0  0  0  0  0  0  0  0  0  0
    1.8733    6.5011   14.7728 O   0  0  0  0  0  0  0  0  0  0  0  0
    2.3226    9.0332   14.3384 O   0  0  0  0  0  0  0  0  0  0  0  0
    2.2599    5.7956   15.3705 H   0  0  0  0  0  0  0  0  0  0  0  0
    4.0335    7.2536   13.3799 O   0  0  0  0  0  0  0  0  0  0  0  0
    3.6026    7.6726   12.0914 C   0  0  0  0  0  0  0  0  0  0  0  0
    6.7343    5.9662   11.1336 O   0  0  0  0  0  0  0  0  0  0  0  0
    5.9175    7.1197   11.2294 C   0  0  0  0  0  0  0  0  0  0  0  0
    4.4751    6.7560   11.1692 C   0  0  0  0  0  0  0  0  0  0  0  0
    4.3877    7.1825    9.8615 O   0  0  0  0  0  0  0  0  0  0  0  0
    5.6308    7.7699    9.8894 C   0  0  0  0  0  0  0  0  0  0  0  0
    6.4620    7.3751    8.8531 O   0  0  0  0  0  0  0  0  0  0  0  0
    7.6082    6.1517   10.7418 H   0  0  0  0  0  0  0  0  0  0  0  0
    6.6211    6.3955    8.8581 H   0  0  0  0  0  0  0  0  0  0  0  0
    5.6383    9.1607   20.3153 O   0  0  0  0  0  0  0  0  0  0  0  0
    4.9162    8.4937   21.3229 C   0  0  0  0  0  0  0  0  0  0  0  0
    5.5713    7.2045   21.6659 C   0  0  0  0  0  0  0  0  0  0  0  0
    4.9695    6.1346   22.1692 O   0  0  0  0  0  0  0  0  0  0  0  0
    5.6003    5.0279   21.6399 C   0  0  0  0  0  0  0  0  0  0  0  0
    5.7140    5.5259   20.1163 C   0  0  0  0  0  0  0  0  0  0  0  0
    4.4069    5.7064   19.6593 O   0  0  0  0  0  0  0  0  0  0  0  0
    6.3211    6.8395   20.3669 C   0  0  0  0  0  0  0  0  0  0  0  0
    7.6739    6.7051   20.5703 O   0  0  0  0  0  0  0  0  0  0  0  0
    3.8994    6.3058   20.2281 H   0  0  0  0  0  0  0  0  0  0  0  0
    7.9928    6.8414   21.4763 H   0  0  0  0  0  0  0  0  0  0  0  0
    4.7841    3.8371   21.4579 N   0  0  0  0  0  0  0  0  0  0  0  0
    4.9060    3.0751   20.3882 C   0  0  0  0  0  0  0  0  0  0  0  0
    4.3291    1.7971   20.4082 C   0  0  0  0  0  0  0  0  0  0  0  0
    3.6414    1.3660   21.5467 C   0  0  0  0  0  0  0  0  0  0  0  0
    3.1337    0.2177   21.5625 O   0  0  0  0  0  0  0  0  0  0  0  0
    3.5629    2.2069   22.5753 N   0  0  0  0  0  0  0  0  0  0  0  0
    4.1312    3.4549   22.5569 C   0  0  0  0  0  0  0  0  0  0  0  0
    4.0155    4.1969   23.5574 O   0  0  0  0  0  0  0  0  0  0  0  0
    3.0339    1.8539   23.4123 H   0  0  0  0  0  0  0  0  0  0  0  0
 17 18  1  0  0  0
 18 19  1  0  0  0
 19 16  1  0  0  0
 16 15  1  0  0  0
 15 11  1  0  0  0
 11 12  1  0  0  0
 11 13  2  0  0  0
 11 10  1  0  0  0
 10  6  1  0  0  0
  6  7  1  0  0  0
  6  8  2  0  0  0
  6  5  1  0  0  0
  5  1  1  0  0  0
  1  2  1  0  0  0
  1  3  2  0  0  0
  1 25  1  0  0  0
 25 26  1  0  0  0
 26 27  1  0  0  0
 27 28  1  0  0  0
 28 29  1  0  0  0
 29 30  1  0  0  0
 30 31  1  0  0  0
 30 32  1  0  0  0
 32 33  1  0  0  0
 29 36  1  0  0  0
 36 37  1  0  0  0
 37 38  2  0  0  0
 38 39  1  0  0  0
 39 40  2  0  0  0
 39 41  1  0  0  0
 41 42  1  0  0  0
 42 43  2  0  0  0
 19 20  1  0  0  0
 20 21  1  0  0  0
 21 22  1  0  0  0
 21 18  1  0  0  0
 32 27  1  0  0  0
 42 36  1  0  0  0
 17 23  1  0  0  0
 12 14  1  0  0  0
  7  9  1  0  0  0
  2  4  1  0  0  0
 31 34  1  0  0  0
 33 35  1  0  0  0
 41 44  1  0  0  0
 22 24  1  0  0  0
M  END
> <minimizedAffinity>
-8.07875

> <CNNscore>
0.2412588894

> <CNNaffinity>
4.7965984344

> <CNN_VS>
1.1572220325

> <CNNaffinity_variance>
0.8037082553

$$$$
[H]O[C@@]1([H])[C@]([H])(O[H])[C@@]([H])(C([H])([H])OP(=O)(O[H])OP(=O)(O[H])OP(=O)(O[H])OC([H])([H])[C@@]2([H])O[C@]([H])(O[H])[C@]2([H])O[H])O[C@@]1([H])n1c([H])c([H])c(=O)n([H])c1=O


 44 46  0  0  0  0  0  0  0  0999 V2000
    4.5990    4.9639   20.2781 P   0  0  0  0  0  0  0  0  0  0  0  0
    3.5399    6.2269   20.3898 O   0  0  0  0  0  0  0  0  0  0  0  0
    4.4557    3.9258   21.2746 O   0  0  0  0  0  0  0  0  0  0  0  0
    3.9427    7.1161   20.1373 H   0  0  0  0  0  0  0  0  0  0  0  0
    6.2407    5.5908   20.3535 O   0  0  0  0  0  0  0  0  0  0  0  0
    6.7709    5.7098   21.9056 P   0  0  0  0  0  0  0  0  0  0  0  0
    5.4010    6.0648   22.8790 O   0  0  0  0  0  0  0  0  0  0  0  0
    7.3537    4.4516   22.4613 O   0  0  0  0  0  0  0  0  0  0  0  0
    4.6034    5.6729   22.4645 H   0  0  0  0  0  0  0  0  0  0  0  0
    7.8500    6.9678   22.1060 O   0  0  0  0  0  0  0  0  0  0  0  0
    6.9578    8.4348   22.2150 P   0  0  0  0  0  0  0  0  0  0  0  0
    6.3441    8.5322   23.8353 O   0  0  0  0  0  0  0  0  0  0  0  0
    7.7544    9.6053   21.9217 O   0  0  0  0  0  0  0  0  0  0  0  0
    6.2067    7.6062   24.1932 H   0  0  0  0  0  0  0  0  0  0  0  0
    5.5825    8.2303   21.2855 O   0  0  0  0  0  0  0  0  0  0  0  0
    4.9151    9.4596   21.0304 C   0  0  0  0  0  0  0  0  0  0  0  0
    5.2311   11.0202   17.6984 O   0  0  0  0  0  0  0  0  0  0  0  0
    4.5390   10.7967   18.9142 C   0  0  0  0  0  0  0  0  0  0  0  0
    4.8547    9.4505   19.4657 C   0  0  0  0  0  0  0  0  0  0  0  0
    3.6396    8.9557   19.0434 O   0  0  0  0  0  0  0  0  0  0  0  0
    3.1568   10.2026   18.7221 C   0  0  0  0  0  0  0  0  0  0  0  0
    2.6497   10.2942   17.4356 O   0  0  0  0  0  0  0  0  0  0  0  0
    4.7633   11.6356   17.1033 H   0  0  0  0  0  0  0  0  0  0  0  0
    3.3353   10.0804   16.7507 H   0  0  0  0  0  0  0  0  0  0  0  0
    4.6321    4.2691   18.6652 O   0  0  0  0  0  0  0  0  0  0  0  0
    3.2984    3.8601   18.4773 C   0  0  0  0  0  0  0  0  0  0  0  0
    2.7136    4.5246   17.2834 C   0  0  0  0  0  0  0  0  0  0  0  0
    2.8038    5.8148   16.9876 O   0  0  0  0  0  0  0  0  0  0  0  0
    2.8823    5.9112   15.6137 C   0  0  0  0  0  0  0  0  0  0  0  0
    3.9257    4.7176   15.3515 C   0  0  0  0  0  0  0  0  0  0  0  0
    5.1044    5.0686   16.0128 O   0  0  0  0  0  0  0  0  0  0  0  0
    3.2414    3.6657   16.1145 C   0  0  0  0  0  0  0  0  0  0  0  0
    2.2220    3.1255   15.3673 O   0  0  0  0  0  0  0  0  0  0  0  0
    4.9554    5.2560   16.9525 H   0  0  0  0  0  0  0  0  0  0  0  0
    1.3180    3.3438   15.6435 H   0  0  0  0  0  0  0  0  0  0  0  0
    3.6404    7.0333   15.0812 N   0  0  0  0  0  0  0  0  0  0  0  0
    4.4795    7.7175   15.8348 C   0  0  0  0  0  0  0  0  0  0  0  0
    5.3969    8.5726   15.2075 C   0  0  0  0  0  0  0  0  0  0  0  0
    5.3986    8.6832   13.8137 C   0  0  0  0  0  0  0  0  0  0  0  0
    6.2275    9.4441   13.2565 O   0  0  0  0  0  0  0  0  0  0  0  0
    4.5098    7.9602   13.1365 N   0  0  0  0  0  0  0  0  0  0  0  0
    3.6157    7.1207   13.7502 C   0  0  0  0  0  0  0  0  0  0  0  0
    2.8037    6.4729   13.0530 O   0  0  0  0  0  0  0  0  0  0  0  0
    4.5340    8.0717   12.0915 H   0  0  0  0  0  0  0  0  0  0  0  0
 17 18  1  0  0  0
 18 19  1  0  0  0
 19 16  1  0  0  0
 16 15  1  0  0  0
 15 11  1  0  0  0
 11 12  1  0  0  0
 11 13  2  0  0  0
 11 10  1  0  0  0
 10  6  1  0  0  0
  6  7  1  0  0  0
  6  8  2  0  0  0
  6  5  1  0  0  0
  5  1  1  0  0  0
  1  2  1  0  0  0
  1  3  2  0  0  0
  1 25  1  0  0  0
 25 26  1  0  0  0
 26 27  1  0  0  0
 27 28  1  0  0  0
 28 29  1  0  0  0
 29 30  1  0  0  0
 30 31  1  0  0  0
 30 32  1  0  0  0
 32 33  1  0  0  0
 29 36  1  0  0  0
 36 37  1  0  0  0
 37 38  2  0  0  0
 38 39  1  0  0  0
 39 40  2  0  0  0
 39 41  1  0  0  0
 41 42  1  0  0  0
 42 43  2  0  0  0
 19 20  1  0  0  0
 20 21  1  0  0  0
 21 22  1  0  0  0
 21 18  1  0  0  0
 32 27  1  0  0  0
 42 36  1  0  0  0
 17 23  1  0  0  0
 12 14  1  0  0  0
  7  9  1  0  0  0
  2  4  1  0  0  0
 31 34  1  0  0  0
 33 35  1  0  0  0
 41 44  1  0  0  0
 22 24  1  0  0  0
M  END
> <minimizedAffinity>
-7.53853

> <CNNscore>
0.1962561458

> <CNNaffinity>
4.1205410957

> <CNN_VS>
0.8086814880

> <CNNaffinity_variance>
0.7436254621

$$$$
[H]O[C@@]1([H])[C@]([H])(O[H])[C@@]([H])(C([H])([H])OP(=O)(O[H])OP(=O)(O[H])OP(=O)(O[H])OC([H])([H])[C@@]2([H])O[C@]([H])(O[H])[C@]2([H])O[H])O[C@@]1([H])n1c([H])c([H])c(=O)n([H])c1=O


 44 46  0  0  0  0  0  0  0  0999 V2000
    4.0850   10.3730   18.4317 P   0  0  0  0  0  0  0  0  0  0  0  0
    2.4487   10.2734   18.6366 O   0  0  0  0  0  0  0  0  0  0  0  0
    4.8429   10.8121   19.5823 O   0  0  0  0  0  0  0  0  0  0  0  0
    1.9219   10.5279   17.8154 H   0  0  0  0  0  0  0  0  0  0  0  0
    4.4244   11.4577   17.0893 O   0  0  0  0  0  0  0  0  0  0  0  0
    4.0447   10.7686   15.6453 P   0  0  0  0  0  0  0  0  0  0  0  0
    2.8109    9.6130   15.9487 O   0  0  0  0  0  0  0  0  0  0  0  0
    3.4818   11.7137   14.6346 O   0  0  0  0  0  0  0  0  0  0  0  0
    2.2796    9.9065   16.7189 H   0  0  0  0  0  0  0  0  0  0  0  0
    5.3358    9.9407   14.9856 O   0  0  0  0  0  0  0  0  0  0  0  0
    4.7226    8.7668   13.8876 P   0  0  0  0  0  0  0  0  0  0  0  0
    3.2181    9.3823   13.2801 O   0  0  0  0  0  0  0  0  0  0  0  0
    5.6212    8.4963   12.7874 O   0  0  0  0  0  0  0  0  0  0  0  0
    2.7987    9.9731   13.9725 H   0  0  0  0  0  0  0  0  0  0  0  0
    4.2650    7.4448   14.8043 O   0  0  0  0  0  0  0  0  0  0  0  0
    3.0245    6.8956   14.3787 C   0  0  0  0  0  0  0  0  0  0  0  0
    4.8949    4.4278   12.3667 O   0  0  0  0  0  0  0  0  0  0  0  0
    3.8259    5.3391   12.5504 C   0  0  0  0  0  0  0  0  0  0  0  0
    3.4566    5.4419   13.9890 C   0  0  0  0  0  0  0  0  0  0  0  0
    2.3423    4.6548   13.7937 O   0  0  0  0  0  0  0  0  0  0  0  0
    2.4571    4.6980   12.4240 C   0  0  0  0  0  0  0  0  0  0  0  0
    2.4441    3.4510   11.8196 O   0  0  0  0  0  0  0  0  0  0  0  0
    4.8856    4.0045   11.4877 H   0  0  0  0  0  0  0  0  0  0  0  0
    3.1872    2.8762   12.1394 H   0  0  0  0  0  0  0  0  0  0  0  0
    4.7612    8.8894   17.7783 O   0  0  0  0  0  0  0  0  0  0  0  0
    5.4608    8.3578   18.8781 C   0  0  0  0  0  0  0  0  0  0  0  0
    4.5412    7.5905   19.7582 C   0  0  0  0  0  0  0  0  0  0  0  0
    4.0816    6.3676   19.5273 O   0  0  0  0  0  0  0  0  0  0  0  0
    3.9737    5.7374   20.7497 C   0  0  0  0  0  0  0  0  0  0  0  0
    5.3720    6.2108   21.3846 C   0  0  0  0  0  0  0  0  0  0  0  0
    6.3760    5.6909   20.5651 O   0  0  0  0  0  0  0  0  0  0  0  0
    5.2432    7.6517   21.1316 C   0  0  0  0  0  0  0  0  0  0  0  0
    4.4506    8.2325   22.0928 O   0  0  0  0  0  0  0  0  0  0  0  0
    6.2623    5.9494   19.6375 H   0  0  0  0  0  0  0  0  0  0  0  0
    3.5677    8.5205   21.8122 H   0  0  0  0  0  0  0  0  0  0  0  0
    4.1657    4.2950   20.7587 N   0  0  0  0  0  0  0  0  0  0  0  0
    4.5981    3.6509   19.6919 C   0  0  0  0  0  0  0  0  0  0  0  0
    5.0533    2.3334   19.8450 C   0  0  0  0  0  0  0  0  0  0  0  0
    5.0344    1.7373   21.1097 C   0  0  0  0  0  0  0  0  0  0  0  0
    5.4507    0.5602   21.2428 O   0  0  0  0  0  0  0  0  0  0  0  0
    4.5731    2.4618   22.1263 N   0  0  0  0  0  0  0  0  0  0  0  0
    4.1322    3.7518   21.9768 C   0  0  0  0  0  0  0  0  0  0  0  0
    3.7068    4.3747   22.9747 O   0  0  0  0  0  0  0  0  0  0  0  0
    4.5668    1.9815   23.0614 H   0  0  0  0  0  0  0  0  0  0  0  0
 17 18  1  0  0  0
 18 19  1  0  0  0
 19 16  1  0  0  0
 16 15  1  0  0  0
 15 11  1  0  0  0
 11 12  1  0  0  0
 11 13  2  0  0  0
 11 10  1  0  0  0
 10  6  1  0  0  0
  6  7  1  0  0  0
  6  8  2  0  0  0
  6  5  1  0  0  0
  5  1  1  0  0  0
  1  2  1  0  0  0
  1  3  2  0  0  0
  1 25  1  0  0  0
 25 26  1  0  0  0
 26 27  1  0  0  0
 27 28  1  0  0  0
 28 29  1  0  0  0
 29 30  1  0  0  0
 30 31  1  0  0  0
 30 32  1  0  0  0
 32 33  1  0  0  0
 29 36  1  0  0  0
 36 37  1  0  0  0
 37 38  2  0  0  0
 38 39  1  0  0  0
 39 40  2  0  0  0
 39 41  1  0  0  0
 41 42  1  0  0  0
 42 43  2  0  0  0
 19 20  1  0  0  0
 20 21  1  0  0  0
 21 22  1  0  0  0
 21 18  1  0  0  0
 32 27  1  0  0  0
 42 36  1  0  0  0
 17 23  1  0  0  0
 12 14  1  0  0  0
  7  9  1  0  0  0
  2  4  1  0  0  0
 31 34  1  0  0  0
 33 35  1  0  0  0
 41 44  1  0  0  0
 22 24  1  0  0  0
M  END
> <minimizedAffinity>
-8.03216

> <CNNscore>
0.1961551756

> <CNNaffinity>
4.7411718369

> <CNN_VS>
0.9300053716

> <CNNaffinity_variance>
0.7779527903

$$$$
