[H]c1nc(Oc2c([H])c([H])c([H])c(F)c2F)c(-n2nc3c([H])c([H])c([H])c(Oc4c([H])c([H])c5nc([H])c([H])c([H])c5c4[H])c3c([H])c2=O)c([H])c1[H]


 37 42  0  0  0  0  0  0  0  0999 V2000
    4.2688    6.6547   17.8625 N   0  0  0  0  0  0  0  0  0  0  0  0
    4.8974    6.8515   16.6917 C   0  0  0  0  0  0  0  0  0  0  0  0
    5.6887    7.8040   16.5513 O   0  0  0  0  0  0  0  0  0  0  0  0
    4.6878    6.0092   15.6117 C   0  0  0  0  0  0  0  0  0  0  0  0
    3.8101    4.9551   15.7723 C   0  0  0  0  0  0  0  0  0  0  0  0
    3.1818    4.7788   16.9811 C   0  0  0  0  0  0  0  0  0  0  0  0
    2.3019    3.7360   17.1683 C   0  0  0  0  0  0  0  0  0  0  0  0
    2.0729    2.8838   16.1175 C   0  0  0  0  0  0  0  0  0  0  0  0
    2.7038    3.0509   14.8848 C   0  0  0  0  0  0  0  0  0  0  0  0
    3.5877    4.0863   14.6738 C   0  0  0  0  0  0  0  0  0  0  0  0
    3.4376    5.6470   17.9964 N   0  0  0  0  0  0  0  0  0  0  0  0
    5.1650    6.9876   20.0800 C   0  0  0  0  0  0  0  0  0  0  0  0
    4.4728    7.5099   18.9796 C   0  0  0  0  0  0  0  0  0  0  0  0
    4.0112    8.8110   18.9944 C   0  0  0  0  0  0  0  0  0  0  0  0
    4.2392    9.5890   20.1033 C   0  0  0  0  0  0  0  0  0  0  0  0
    4.9176    9.0655   21.1729 C   0  0  0  0  0  0  0  0  0  0  0  0
    5.3518    7.7999   21.1260 N   0  0  0  0  0  0  0  0  0  0  0  0
    5.6094    5.6802   20.0247 O   0  0  0  0  0  0  0  0  0  0  0  0
    4.6988    5.0307   22.1082 C   0  0  0  0  0  0  0  0  0  0  0  0
    5.0665    4.7003   20.8231 C   0  0  0  0  0  0  0  0  0  0  0  0
    4.8648    3.4036   20.4195 C   0  0  0  0  0  0  0  0  0  0  0  0
    5.1902    3.0004   19.1736 F   0  0  0  0  0  0  0  0  0  0  0  0
    4.3073    2.4815   21.3011 C   0  0  0  0  0  0  0  0  0  0  0  0
    4.1099    1.2068   20.9024 F   0  0  0  0  0  0  0  0  0  0  0  0
    3.9461    2.8321   22.5833 C   0  0  0  0  0  0  0  0  0  0  0  0
    4.1506    4.1313   22.9802 C   0  0  0  0  0  0  0  0  0  0  0  0
    4.2343    4.3436   13.5730 O   0  0  0  0  0  0  0  0  0  0  0  0
    4.2765    4.8126   12.3570 C   0  0  0  0  0  0  0  0  0  0  0  0
    5.0528    4.3537   11.3204 C   0  0  0  0  0  0  0  0  0  0  0  0
    4.9896    4.9544   10.0824 C   0  0  0  0  0  0  0  0  0  0  0  0
    4.1539    6.0246    9.8461 C   0  0  0  0  0  0  0  0  0  0  0  0
    3.3575    6.5171   10.8586 C   0  0  0  0  0  0  0  0  0  0  0  0
    2.5085    7.6032   10.6210 C   0  0  0  0  0  0  0  0  0  0  0  0
    2.4714    8.1747    9.3802 C   0  0  0  0  0  0  0  0  0  0  0  0
    3.2818    7.6587    8.3843 C   0  0  0  0  0  0  0  0  0  0  0  0
    4.0875    6.6157    8.6387 N   0  0  0  0  0  0  0  0  0  0  0  0
    3.4343    5.9099   12.0752 C   0  0  0  0  0  0  0  0  0  0  0  0
 19 20  2  0  0  0
 20 18  1  0  0  0
 18 12  1  0  0  0
 12 13  1  0  0  0
 13  1  1  0  0  0
  1  2  1  0  0  0
  2  3  2  0  0  0
  2  4  1  0  0  0
  4  5  2  0  0  0
  5  6  1  0  0  0
  6  7  1  0  0  0
  7  8  2  0  0  0
  8  9  1  0  0  0
  9 10  2  0  0  0
 10 27  1  0  0  0
 27 28  1  0  0  0
 28 29  2  0  0  0
 29 30  1  0  0  0
 30 31  2  0  0  0
 31 32  1  0  0  0
 32 33  1  0  0  0
 33 34  2  0  0  0
 34 35  1  0  0  0
 35 36  2  0  0  0
 32 37  2  0  0  0
  6 11  2  0  0  0
 13 14  2  0  0  0
 14 15  1  0  0  0
 15 16  2  0  0  0
 16 17  1  0  0  0
 20 21  1  0  0  0
 21 22  1  0  0  0
 21 23  2  0  0  0
 23 24  1  0  0  0
 23 25  1  0  0  0
 25 26  2  0  0  0
 26 19  1  0  0  0
 17 12  2  0  0  0
 11  1  1  0  0  0
 10  5  1  0  0  0
 37 28  1  0  0  0
 36 31  1  0  0  0
M  END
> <minimizedAffinity>
-8.48253

> <CNNscore>
0.1740306765

> <CNNaffinity>
6.3801393509

> <CNN_VS>
1.1103399992

> <CNNaffinity_variance>
0.4707864821

$$$$
[H]c1nc(Oc2c([H])c([H])c([H])c(F)c2F)c(-n2nc3c([H])c([H])c([H])c(Oc4c([H])c([H])c5nc([H])c([H])c([H])c5c4[H])c3c([H])c2=O)c([H])c1[H]


 37 42  0  0  0  0  0  0  0  0999 V2000
    5.0368    4.8334   17.6934 N   0  0  0  0  0  0  0  0  0  0  0  0
    4.3066    5.3019   16.6678 C   0  0  0  0  0  0  0  0  0  0  0  0
    4.3277    6.5139   16.3785 O   0  0  0  0  0  0  0  0  0  0  0  0
    3.5132    4.4600   15.9053 C   0  0  0  0  0  0  0  0  0  0  0  0
    3.4933    3.1177   16.2298 C   0  0  0  0  0  0  0  0  0  0  0  0
    4.2504    2.6674   17.2839 C   0  0  0  0  0  0  0  0  0  0  0  0
    4.2489    1.3342   17.6289 C   0  0  0  0  0  0  0  0  0  0  0  0
    3.4732    0.4743   16.8928 C   0  0  0  0  0  0  0  0  0  0  0  0
    2.6996    0.9178   15.8202 C   0  0  0  0  0  0  0  0  0  0  0  0
    2.6849    2.2464   15.4563 C   0  0  0  0  0  0  0  0  0  0  0  0
    5.0051    3.5539   17.9871 N   0  0  0  0  0  0  0  0  0  0  0  0
    5.5113    5.8458   19.8338 C   0  0  0  0  0  0  0  0  0  0  0  0
    5.8554    5.6840   18.4854 C   0  0  0  0  0  0  0  0  0  0  0  0
    6.9537    6.3342   17.9587 C   0  0  0  0  0  0  0  0  0  0  0  0
    7.7065    7.1435   18.7744 C   0  0  0  0  0  0  0  0  0  0  0  0
    7.3587    7.2930   20.0916 C   0  0  0  0  0  0  0  0  0  0  0  0
    6.2875    6.6481   20.5705 N   0  0  0  0  0  0  0  0  0  0  0  0
    4.4040    5.1777   20.3207 O   0  0  0  0  0  0  0  0  0  0  0  0
    3.6965    4.7592   22.5379 C   0  0  0  0  0  0  0  0  0  0  0  0
    4.4708    4.4041   21.4563 C   0  0  0  0  0  0  0  0  0  0  0  0
    5.2650    3.2913   21.5831 C   0  0  0  0  0  0  0  0  0  0  0  0
    6.0475    2.8712   20.5672 F   0  0  0  0  0  0  0  0  0  0  0  0
    5.2645    2.5709   22.7744 C   0  0  0  0  0  0  0  0  0  0  0  0
    6.0462    1.4770   22.8973 F   0  0  0  0  0  0  0  0  0  0  0  0
    4.4822    2.9429   23.8455 C   0  0  0  0  0  0  0  0  0  0  0  0
    3.6900    4.0572   23.7113 C   0  0  0  0  0  0  0  0  0  0  0  0
    2.0068    2.7769   14.4792 O   0  0  0  0  0  0  0  0  0  0  0  0
    1.6629    2.8242   13.2223 C   0  0  0  0  0  0  0  0  0  0  0  0
    0.6761    3.6003   12.6638 C   0  0  0  0  0  0  0  0  0  0  0  0
    0.4255    3.5429   11.3105 C   0  0  0  0  0  0  0  0  0  0  0  0
    1.1492    2.7132   10.4814 C   0  0  0  0  0  0  0  0  0  0  0  0
    2.1487    1.9172   11.0004 C   0  0  0  0  0  0  0  0  0  0  0  0
    2.8845    1.0744   10.1607 C   0  0  0  0  0  0  0  0  0  0  0  0
    2.6086    1.0430    8.8227 C   0  0  0  0  0  0  0  0  0  0  0  0
    1.6001    1.8530    8.3309 C   0  0  0  0  0  0  0  0  0  0  0  0
    0.9091    2.6527    9.1583 N   0  0  0  0  0  0  0  0  0  0  0  0
    2.3813    1.9881   12.3404 C   0  0  0  0  0  0  0  0  0  0  0  0
 19 20  2  0  0  0
 20 18  1  0  0  0
 18 12  1  0  0  0
 12 13  1  0  0  0
 13  1  1  0  0  0
  1  2  1  0  0  0
  2  3  2  0  0  0
  2  4  1  0  0  0
  4  5  2  0  0  0
  5  6  1  0  0  0
  6  7  1  0  0  0
  7  8  2  0  0  0
  8  9  1  0  0  0
  9 10  2  0  0  0
 10 27  1  0  0  0
 27 28  1  0  0  0
 28 29  2  0  0  0
 29 30  1  0  0  0
 30 31  2  0  0  0
 31 32  1  0  0  0
 32 33  1  0  0  0
 33 34  2  0  0  0
 34 35  1  0  0  0
 35 36  2  0  0  0
 32 37  2  0  0  0
  6 11  2  0  0  0
 13 14  2  0  0  0
 14 15  1  0  0  0
 15 16  2  0  0  0
 16 17  1  0  0  0
 20 21  1  0  0  0
 21 22  1  0  0  0
 21 23  2  0  0  0
 23 24  1  0  0  0
 23 25  1  0  0  0
 25 26  2  0  0  0
 26 19  1  0  0  0
 17 12  2  0  0  0
 11  1  1  0  0  0
 10  5  1  0  0  0
 37 28  1  0  0  0
 36 31  1  0  0  0
M  END
> <minimizedAffinity>
-9.85021

> <CNNscore>
0.1298296303

> <CNNaffinity>
6.5261216164

> <CNN_VS>
0.8472839594

> <CNNaffinity_variance>
0.4695830345

$$$$
[H]c1nc(Oc2c([H])c([H])c([H])c(F)c2F)c(-n2nc3c([H])c([H])c([H])c(Oc4c([H])c([H])c5nc([H])c([H])c([H])c5c4[H])c3c([H])c2=O)c([H])c1[H]


 37 42  0  0  0  0  0  0  0  0999 V2000
    5.2587    6.0215   21.3315 N   0  0  0  0  0  0  0  0  0  0  0  0
    5.3718    5.5742   20.0698 C   0  0  0  0  0  0  0  0  0  0  0  0
    5.8037    6.3212   19.1706 O   0  0  0  0  0  0  0  0  0  0  0  0
    5.0149    4.2791   19.7305 C   0  0  0  0  0  0  0  0  0  0  0  0
    4.5369    3.4552   20.7305 C   0  0  0  0  0  0  0  0  0  0  0  0
    4.4322    3.9401   22.0115 C   0  0  0  0  0  0  0  0  0  0  0  0
    3.9587    3.1399   23.0274 C   0  0  0  0  0  0  0  0  0  0  0  0
    3.5968    1.8517   22.7236 C   0  0  0  0  0  0  0  0  0  0  0  0
    3.6978    1.3462   21.4275 C   0  0  0  0  0  0  0  0  0  0  0  0
    4.1685    2.1275   20.3951 C   0  0  0  0  0  0  0  0  0  0  0  0
    4.8020    5.2234   22.2690 N   0  0  0  0  0  0  0  0  0  0  0  0
    6.7247    7.5103   22.5419 C   0  0  0  0  0  0  0  0  0  0  0  0
    5.6202    7.3472   21.6956 C   0  0  0  0  0  0  0  0  0  0  0  0
    4.9178    8.4448   21.2395 C   0  0  0  0  0  0  0  0  0  0  0  0
    5.3156    9.7014   21.6262 C   0  0  0  0  0  0  0  0  0  0  0  0
    6.3978    9.8468   22.4545 C   0  0  0  0  0  0  0  0  0  0  0  0
    7.0569    8.7614   22.8788 N   0  0  0  0  0  0  0  0  0  0  0  0
    7.3995    6.3854   22.9764 O   0  0  0  0  0  0  0  0  0  0  0  0
    9.5618    5.9123   23.8086 C   0  0  0  0  0  0  0  0  0  0  0  0
    8.7448    6.2171   22.7431 C   0  0  0  0  0  0  0  0  0  0  0  0
    9.3314    6.3332   21.5072 C   0  0  0  0  0  0  0  0  0  0  0  0
    8.6002    6.6215   20.4104 F   0  0  0  0  0  0  0  0  0  0  0  0
   10.7039    6.1441   21.3704 C   0  0  0  0  0  0  0  0  0  0  0  0
   11.2790    6.2589   20.1542 F   0  0  0  0  0  0  0  0  0  0  0  0
   11.5043    5.8397   22.4493 C   0  0  0  0  0  0  0  0  0  0  0  0
   10.9104    5.7248   23.6828 C   0  0  0  0  0  0  0  0  0  0  0  0
    4.3073    1.7693   19.1507 O   0  0  0  0  0  0  0  0  0  0  0  0
    3.8437    1.6548   17.9373 C   0  0  0  0  0  0  0  0  0  0  0  0
    3.1118    0.6098   17.4272 C   0  0  0  0  0  0  0  0  0  0  0  0
    2.6881    0.6291   16.1166 C   0  0  0  0  0  0  0  0  0  0  0  0
    2.9818    1.6868   15.2831 C   0  0  0  0  0  0  0  0  0  0  0  0
    3.7140    2.7562   15.7544 C   0  0  0  0  0  0  0  0  0  0  0  0
    4.0132    3.8307   14.9103 C   0  0  0  0  0  0  0  0  0  0  0  0
    3.5766    3.8164   13.6154 C   0  0  0  0  0  0  0  0  0  0  0  0
    2.8440    2.7298   13.1711 C   0  0  0  0  0  0  0  0  0  0  0  0
    2.5706    1.7115   14.0017 N   0  0  0  0  0  0  0  0  0  0  0  0
    4.1238    2.7186   17.0526 C   0  0  0  0  0  0  0  0  0  0  0  0
 19 20  2  0  0  0
 20 18  1  0  0  0
 18 12  1  0  0  0
 12 13  1  0  0  0
 13  1  1  0  0  0
  1  2  1  0  0  0
  2  3  2  0  0  0
  2  4  1  0  0  0
  4  5  2  0  0  0
  5  6  1  0  0  0
  6  7  1  0  0  0
  7  8  2  0  0  0
  8  9  1  0  0  0
  9 10  2  0  0  0
 10 27  1  0  0  0
 27 28  1  0  0  0
 28 29  2  0  0  0
 29 30  1  0  0  0
 30 31  2  0  0  0
 31 32  1  0  0  0
 32 33  1  0  0  0
 33 34  2  0  0  0
 34 35  1  0  0  0
 35 36  2  0  0  0
 32 37  2  0  0  0
  6 11  2  0  0  0
 13 14  2  0  0  0
 14 15  1  0  0  0
 15 16  2  0  0  0
 16 17  1  0  0  0
 20 21  1  0  0  0
 21 22  1  0  0  0
 21 23  2  0  0  0
 23 24  1  0  0  0
 23 25  1  0  0  0
 25 26  2  0  0  0
 26 19  1  0  0  0
 17 12  2  0  0  0
 11  1  1  0  0  0
 10  5  1  0  0  0
 37 28  1  0  0  0
 36 31  1  0  0  0
M  END
> <minimizedAffinity>
-11.27898

> <CNNscore>
0.1207292527

> <CNNaffinity>
6.8243074417

> <CNN_VS>
0.8238935471

> <CNNaffinity_variance>
0.2425745726

$$$$
[H]c1nc(Oc2c([H])c([H])c([H])c(F)c2F)c(-n2nc3c([H])c([H])c([H])c(Oc4c([H])c([H])c5nc([H])c([H])c([H])c5c4[H])c3c([H])c2=O)c([H])c1[H]


 37 42  0  0  0  0  0  0  0  0999 V2000
    5.4655    4.8813   19.8582 N   0  0  0  0  0  0  0  0  0  0  0  0
    5.7404    5.1893   18.5798 C   0  0  0  0  0  0  0  0  0  0  0  0
    6.0040    4.2921   17.7560 O   0  0  0  0  0  0  0  0  0  0  0  0
    5.7399    6.5031   18.1398 C   0  0  0  0  0  0  0  0  0  0  0  0
    5.4471    7.4938   19.0564 C   0  0  0  0  0  0  0  0  0  0  0  0
    5.1699    7.1488   20.3569 C   0  0  0  0  0  0  0  0  0  0  0  0
    4.8748    8.1166   21.2912 C   0  0  0  0  0  0  0  0  0  0  0  0
    4.8661    9.4278   20.8867 C   0  0  0  0  0  0  0  0  0  0  0  0
    5.1457    9.7923   19.5696 C   0  0  0  0  0  0  0  0  0  0  0  0
    5.4435    8.8423   18.6176 C   0  0  0  0  0  0  0  0  0  0  0  0
    5.1894    5.8369   20.7154 N   0  0  0  0  0  0  0  0  0  0  0  0
    4.4092    2.7105   19.9152 C   0  0  0  0  0  0  0  0  0  0  0  0
    5.4623    3.5387   20.3252 C   0  0  0  0  0  0  0  0  0  0  0  0
    6.4545    3.0536   21.1536 C   0  0  0  0  0  0  0  0  0  0  0  0
    6.3968    1.7464   21.5721 C   0  0  0  0  0  0  0  0  0  0  0  0
    5.3611    0.9473   21.1635 C   0  0  0  0  0  0  0  0  0  0  0  0
    4.4151    1.4492   20.3600 N   0  0  0  0  0  0  0  0  0  0  0  0
    3.4361    3.2358   19.0865 O   0  0  0  0  0  0  0  0  0  0  0  0
    3.4593    1.4244   17.5666 C   0  0  0  0  0  0  0  0  0  0  0  0
    3.2455    2.7627   17.8089 C   0  0  0  0  0  0  0  0  0  0  0  0
    2.8519    3.5437   16.7504 C   0  0  0  0  0  0  0  0  0  0  0  0
    2.6137    4.8628   16.9052 F   0  0  0  0  0  0  0  0  0  0  0  0
    2.6846    2.9728   15.4917 C   0  0  0  0  0  0  0  0  0  0  0  0
    2.2977    3.7423   14.4520 F   0  0  0  0  0  0  0  0  0  0  0  0
    2.9038    1.6310   15.2700 C   0  0  0  0  0  0  0  0  0  0  0  0
    3.2971    0.8558   16.3337 C   0  0  0  0  0  0  0  0  0  0  0  0
    5.7200    9.0591   17.3635 O   0  0  0  0  0  0  0  0  0  0  0  0
    5.5032    8.8518   16.0945 C   0  0  0  0  0  0  0  0  0  0  0  0
    6.4326    8.8731   15.0828 C   0  0  0  0  0  0  0  0  0  0  0  0
    6.0521    8.6336   13.7807 C   0  0  0  0  0  0  0  0  0  0  0  0
    4.7398    8.3676   13.4542 C   0  0  0  0  0  0  0  0  0  0  0  0
    3.7746    8.3366   14.4387 C   0  0  0  0  0  0  0  0  0  0  0  0
    2.4421    8.0668   14.1096 C   0  0  0  0  0  0  0  0  0  0  0  0
    2.1003    7.8337   12.8072 C   0  0  0  0  0  0  0  0  0  0  0  0
    3.0905    7.8714   11.8413 C   0  0  0  0  0  0  0  0  0  0  0  0
    4.3617    8.1327   12.1839 N   0  0  0  0  0  0  0  0  0  0  0  0
    4.1705    8.5759   15.7197 C   0  0  0  0  0  0  0  0  0  0  0  0
 19 20  2  0  0  0
 20 18  1  0  0  0
 18 12  1  0  0  0
 12 13  1  0  0  0
 13  1  1  0  0  0
  1  2  1  0  0  0
  2  3  2  0  0  0
  2  4  1  0  0  0
  4  5  2  0  0  0
  5  6  1  0  0  0
  6  7  1  0  0  0
  7  8  2  0  0  0
  8  9  1  0  0  0
  9 10  2  0  0  0
 10 27  1  0  0  0
 27 28  1  0  0  0
 28 29  2  0  0  0
 29 30  1  0  0  0
 30 31  2  0  0  0
 31 32  1  0  0  0
 32 33  1  0  0  0
 33 34  2  0  0  0
 34 35  1  0  0  0
 35 36  2  0  0  0
 32 37  2  0  0  0
  6 11  2  0  0  0
 13 14  2  0  0  0
 14 15  1  0  0  0
 15 16  2  0  0  0
 16 17  1  0  0  0
 20 21  1  0  0  0
 21 22  1  0  0  0
 21 23  2  0  0  0
 23 24  1  0  0  0
 23 25  1  0  0  0
 25 26  2  0  0  0
 26 19  1  0  0  0
 17 12  2  0  0  0
 11  1  1  0  0  0
 10  5  1  0  0  0
 37 28  1  0  0  0
 36 31  1  0  0  0
M  END
> <minimizedAffinity>
-9.12055

> <CNNscore>
0.0795274079

> <CNNaffinity>
6.2233972549

> <CNN_VS>
0.4949306548

> <CNNaffinity_variance>
0.5746419430

$$$$
[H]c1nc(Oc2c([H])c([H])c([H])c(F)c2F)c(-n2nc3c([H])c([H])c([H])c(Oc4c([H])c([H])c5nc([H])c([H])c([H])c5c4[H])c3c([H])c2=O)c([H])c1[H]


 37 42  0  0  0  0  0  0  0  0999 V2000
    4.9469    4.9490   17.6474 N   0  0  0  0  0  0  0  0  0  0  0  0
    4.1554    5.4667   16.6934 C   0  0  0  0  0  0  0  0  0  0  0  0
    4.1346    6.6955   16.4873 O   0  0  0  0  0  0  0  0  0  0  0  0
    3.3436    4.6578   15.9145 C   0  0  0  0  0  0  0  0  0  0  0  0
    3.3703    3.2967   16.1466 C   0  0  0  0  0  0  0  0  0  0  0  0
    4.1897    2.7960   17.1290 C   0  0  0  0  0  0  0  0  0  0  0  0
    4.2356    1.4429   17.3812 C   0  0  0  0  0  0  0  0  0  0  0  0
    3.4432    0.6150   16.6266 C   0  0  0  0  0  0  0  0  0  0  0  0
    2.6066    1.1096   15.6261 C   0  0  0  0  0  0  0  0  0  0  0  0
    2.5436    2.4589   15.3556 C   0  0  0  0  0  0  0  0  0  0  0  0
    4.9589    3.6522   17.8537 N   0  0  0  0  0  0  0  0  0  0  0  0
    5.4646    5.8819   19.8137 C   0  0  0  0  0  0  0  0  0  0  0  0
    5.7852    5.7651   18.4549 C   0  0  0  0  0  0  0  0  0  0  0  0
    6.8797    6.4254   17.9331 C   0  0  0  0  0  0  0  0  0  0  0  0
    7.6523    7.1998   18.7640 C   0  0  0  0  0  0  0  0  0  0  0  0
    7.3274    7.3054   20.0912 C   0  0  0  0  0  0  0  0  0  0  0  0
    6.2592    6.6520   20.5651 N   0  0  0  0  0  0  0  0  0  0  0  0
    4.3601    5.2052   20.2953 O   0  0  0  0  0  0  0  0  0  0  0  0
    3.6885    4.7882   22.5240 C   0  0  0  0  0  0  0  0  0  0  0  0
    4.4307    4.4216   21.4238 C   0  0  0  0  0  0  0  0  0  0  0  0
    5.1984    3.2878   21.5260 C   0  0  0  0  0  0  0  0  0  0  0  0
    5.9485    2.8556   20.4909 F   0  0  0  0  0  0  0  0  0  0  0  0
    5.2042    2.5588   22.7120 C   0  0  0  0  0  0  0  0  0  0  0  0
    5.9599    1.4443   22.8107 F   0  0  0  0  0  0  0  0  0  0  0  0
    4.4544    2.9425   23.8019 C   0  0  0  0  0  0  0  0  0  0  0  0
    3.6885    4.0777   23.6923 C   0  0  0  0  0  0  0  0  0  0  0  0
    1.8052    3.0364   14.4515 O   0  0  0  0  0  0  0  0  0  0  0  0
    1.3540    3.1232   13.2312 C   0  0  0  0  0  0  0  0  0  0  0  0
    1.4461    2.1700   12.2459 C   0  0  0  0  0  0  0  0  0  0  0  0
    0.9183    2.4057   10.9956 C   0  0  0  0  0  0  0  0  0  0  0  0
    0.2870    3.5936   10.6956 C   0  0  0  0  0  0  0  0  0  0  0  0
    0.1725    4.5776   11.6551 C   0  0  0  0  0  0  0  0  0  0  0  0
   -0.4677    5.7840   11.3529 C   0  0  0  0  0  0  0  0  0  0  0  0
   -0.9798    5.9838   10.1017 C   0  0  0  0  0  0  0  0  0  0  0  0
   -0.8498    4.9782    9.1600 C   0  0  0  0  0  0  0  0  0  0  0  0
   -0.2308    3.8299    9.4759 N   0  0  0  0  0  0  0  0  0  0  0  0
    0.7007    4.3257   12.8849 C   0  0  0  0  0  0  0  0  0  0  0  0
 19 20  2  0  0  0
 20 18  1  0  0  0
 18 12  1  0  0  0
 12 13  1  0  0  0
 13  1  1  0  0  0
  1  2  1  0  0  0
  2  3  2  0  0  0
  2  4  1  0  0  0
  4  5  2  0  0  0
  5  6  1  0  0  0
  6  7  1  0  0  0
  7  8  2  0  0  0
  8  9  1  0  0  0
  9 10  2  0  0  0
 10 27  1  0  0  0
 27 28  1  0  0  0
 28 29  2  0  0  0
 29 30  1  0  0  0
 30 31  2  0  0  0
 31 32  1  0  0  0
 32 33  1  0  0  0
 33 34  2  0  0  0
 34 35  1  0  0  0
 35 36  2  0  0  0
 32 37  2  0  0  0
  6 11  2  0  0  0
 13 14  2  0  0  0
 14 15  1  0  0  0
 15 16  2  0  0  0
 16 17  1  0  0  0
 20 21  1  0  0  0
 21 22  1  0  0  0
 21 23  2  0  0  0
 23 24  1  0  0  0
 23 25  1  0  0  0
 25 26  2  0  0  0
 26 19  1  0  0  0
 17 12  2  0  0  0
 11  1  1  0  0  0
 10  5  1  0  0  0
 37 28  1  0  0  0
 36 31  1  0  0  0
M  END
> <minimizedAffinity>
-9.68115

> <CNNscore>
0.0701066777

> <CNNaffinity>
6.3798971176

> <CNN_VS>
0.4472734034

> <CNNaffinity_variance>
0.4071941972

$$$$
[H]c1nc(Oc2c([H])c([H])c([H])c(F)c2F)c(-n2nc3c([H])c([H])c([H])c(Oc4c([H])c([H])c5nc([H])c([H])c([H])c5c4[H])c3c([H])c2=O)c([H])c1[H]


 37 42  0  0  0  0  0  0  0  0999 V2000
    4.6194    3.6112   20.9000 N   0  0  0  0  0  0  0  0  0  0  0  0
    5.8075    4.0262   21.3699 C   0  0  0  0  0  0  0  0  0  0  0  0
    6.5175    3.2646   22.0546 O   0  0  0  0  0  0  0  0  0  0  0  0
    6.2777    5.3036   21.1107 C   0  0  0  0  0  0  0  0  0  0  0  0
    5.4873    6.1438   20.3513 C   0  0  0  0  0  0  0  0  0  0  0  0
    4.2770    5.6918   19.8844 C   0  0  0  0  0  0  0  0  0  0  0  0
    3.4693    6.5088   19.1251 C   0  0  0  0  0  0  0  0  0  0  0  0
    3.9069    7.7801   18.8507 C   0  0  0  0  0  0  0  0  0  0  0  0
    5.1333    8.2521   19.3183 C   0  0  0  0  0  0  0  0  0  0  0  0
    5.9583    7.4535   20.0795 C   0  0  0  0  0  0  0  0  0  0  0  0
    3.8816    4.4244   20.1798 N   0  0  0  0  0  0  0  0  0  0  0  0
    4.3344    1.3244   20.1787 C   0  0  0  0  0  0  0  0  0  0  0  0
    4.1228    2.3043   21.1573 C   0  0  0  0  0  0  0  0  0  0  0  0
    3.4540    1.9964   22.3253 C   0  0  0  0  0  0  0  0  0  0  0  0
    2.9975    0.7151   22.5168 C   0  0  0  0  0  0  0  0  0  0  0  0
    3.2112   -0.2338   21.5513 C   0  0  0  0  0  0  0  0  0  0  0  0
    3.8634    0.0980   20.4301 N   0  0  0  0  0  0  0  0  0  0  0  0
    5.0076    1.6746   19.0238 O   0  0  0  0  0  0  0  0  0  0  0  0
    3.4666    0.7753   17.4719 C   0  0  0  0  0  0  0  0  0  0  0  0
    4.3620    1.7643   17.8124 C   0  0  0  0  0  0  0  0  0  0  0  0
    4.5525    2.7841   16.9131 C   0  0  0  0  0  0  0  0  0  0  0  0
    5.4061    3.7961   17.1739 F   0  0  0  0  0  0  0  0  0  0  0  0
    3.8512    2.7884   15.7105 C   0  0  0  0  0  0  0  0  0  0  0  0
    4.0400    3.7920   14.8273 F   0  0  0  0  0  0  0  0  0  0  0  0
    2.9595    1.7891   15.3884 C   0  0  0  0  0  0  0  0  0  0  0  0
    2.7737    0.7721   16.2931 C   0  0  0  0  0  0  0  0  0  0  0  0
    7.1194    7.7805   20.5702 O   0  0  0  0  0  0  0  0  0  0  0  0
    7.8569    8.4730   21.3930 C   0  0  0  0  0  0  0  0  0  0  0  0
    8.7031    9.5074   21.0742 C   0  0  0  0  0  0  0  0  0  0  0  0
    9.4227   10.1487   22.0583 C   0  0  0  0  0  0  0  0  0  0  0  0
    9.3181    9.7769   23.3813 C   0  0  0  0  0  0  0  0  0  0  0  0
    8.4804    8.7436   23.7453 C   0  0  0  0  0  0  0  0  0  0  0  0
    8.3727    8.3645   25.0874 C   0  0  0  0  0  0  0  0  0  0  0  0
    9.1016    9.0230   26.0375 C   0  0  0  0  0  0  0  0  0  0  0  0
    9.9335   10.0557   25.6421 C   0  0  0  0  0  0  0  0  0  0  0  0
   10.0185   10.3996   24.3474 N   0  0  0  0  0  0  0  0  0  0  0  0
    7.7776    8.1221   22.7581 C   0  0  0  0  0  0  0  0  0  0  0  0
 19 20  2  0  0  0
 20 18  1  0  0  0
 18 12  1  0  0  0
 12 13  1  0  0  0
 13  1  1  0  0  0
  1  2  1  0  0  0
  2  3  2  0  0  0
  2  4  1  0  0  0
  4  5  2  0  0  0
  5  6  1  0  0  0
  6  7  1  0  0  0
  7  8  2  0  0  0
  8  9  1  0  0  0
  9 10  2  0  0  0
 10 27  1  0  0  0
 27 28  1  0  0  0
 28 29  2  0  0  0
 29 30  1  0  0  0
 30 31  2  0  0  0
 31 32  1  0  0  0
 32 33  1  0  0  0
 33 34  2  0  0  0
 34 35  1  0  0  0
 35 36  2  0  0  0
 32 37  2  0  0  0
  6 11  2  0  0  0
 13 14  2  0  0  0
 14 15  1  0  0  0
 15 16  2  0  0  0
 16 17  1  0  0  0
 20 21  1  0  0  0
 21 22  1  0  0  0
 21 23  2  0  0  0
 23 24  1  0  0  0
 23 25  1  0  0  0
 25 26  2  0  0  0
 26 19  1  0  0  0
 17 12  2  0  0  0
 11  1  1  0  0  0
 10  5  1  0  0  0
 37 28  1  0  0  0
 36 31  1  0  0  0
M  END
> <minimizedAffinity>
-10.32717

> <CNNscore>
0.0674330965

> <CNNaffinity>
6.5323181152

> <CNN_VS>
0.4404944479

> <CNNaffinity_variance>
0.4670369625

$$$$
[H]c1nc(Oc2c([H])c([H])c([H])c(F)c2F)c(-n2nc3c([H])c([H])c([H])c(Oc4c([H])c([H])c5nc([H])c([H])c([H])c5c4[H])c3c([H])c2=O)c([H])c1[H]


 37 42  0  0  0  0  0  0  0  0999 V2000
    6.7767    7.4324   19.3222 N   0  0  0  0  0  0  0  0  0  0  0  0
    6.6676    6.7551   18.1671 C   0  0  0  0  0  0  0  0  0  0  0  0
    7.3909    5.7652   17.9440 O   0  0  0  0  0  0  0  0  0  0  0  0
    5.7551    7.1323   17.1951 C   0  0  0  0  0  0  0  0  0  0  0  0
    4.9557    8.2299   17.4471 C   0  0  0  0  0  0  0  0  0  0  0  0
    5.0897    8.9028   18.6372 C   0  0  0  0  0  0  0  0  0  0  0  0
    4.3053   10.0004   18.9140 C   0  0  0  0  0  0  0  0  0  0  0  0
    3.3915   10.3993   17.9712 C   0  0  0  0  0  0  0  0  0  0  0  0
    3.2448    9.7254   16.7588 C   0  0  0  0  0  0  0  0  0  0  0  0
    4.0180    8.6252   16.4595 C   0  0  0  0  0  0  0  0  0  0  0  0
    6.0081    8.4736   19.5440 N   0  0  0  0  0  0  0  0  0  0  0  0
    7.3401    6.0278   21.2039 C   0  0  0  0  0  0  0  0  0  0  0  0
    7.7079    7.0584   20.3291 C   0  0  0  0  0  0  0  0  0  0  0  0
    8.9348    7.6794   20.4531 C   0  0  0  0  0  0  0  0  0  0  0  0
    9.7924    7.2738   21.4466 C   0  0  0  0  0  0  0  0  0  0  0  0
    9.4200    6.2644   22.2955 C   0  0  0  0  0  0  0  0  0  0  0  0
    8.2229    5.6833   22.1478 N   0  0  0  0  0  0  0  0  0  0  0  0
    6.1026    5.4333   21.0458 O   0  0  0  0  0  0  0  0  0  0  0  0
    6.3389    3.3953   22.2216 C   0  0  0  0  0  0  0  0  0  0  0  0
    5.6115    4.5359   21.9655 C   0  0  0  0  0  0  0  0  0  0  0  0
    4.4342    4.7044   22.6515 C   0  0  0  0  0  0  0  0  0  0  0  0
    3.6665    5.7983   22.4648 F   0  0  0  0  0  0  0  0  0  0  0  0
    4.0194    3.7391   23.5649 C   0  0  0  0  0  0  0  0  0  0  0  0
    2.8612    3.9064   24.2383 F   0  0  0  0  0  0  0  0  0  0  0  0
    4.7618    2.6043   23.8068 C   0  0  0  0  0  0  0  0  0  0  0  0
    5.9388    2.4425   23.1170 C   0  0  0  0  0  0  0  0  0  0  0  0
    3.9727    7.9178   15.3670 O   0  0  0  0  0  0  0  0  0  0  0  0
    3.3699    7.0710   14.5796 C   0  0  0  0  0  0  0  0  0  0  0  0
    3.6482    5.7332   14.4362 C   0  0  0  0  0  0  0  0  0  0  0  0
    2.9208    4.9594   13.5588 C   0  0  0  0  0  0  0  0  0  0  0  0
    1.9006    5.4970   12.8041 C   0  0  0  0  0  0  0  0  0  0  0  0
    1.5879    6.8355   12.9169 C   0  0  0  0  0  0  0  0  0  0  0  0
    0.5529    7.3833   12.1519 C   0  0  0  0  0  0  0  0  0  0  0  0
   -0.1480    6.5860   11.2914 C   0  0  0  0  0  0  0  0  0  0  0  0
    0.1885    5.2469   11.1998 C   0  0  0  0  0  0  0  0  0  0  0  0
    1.1862    4.7463   11.9452 N   0  0  0  0  0  0  0  0  0  0  0  0
    2.3184    7.5838   13.7895 C   0  0  0  0  0  0  0  0  0  0  0  0
 19 20  2  0  0  0
 20 18  1  0  0  0
 18 12  1  0  0  0
 12 13  1  0  0  0
 13  1  1  0  0  0
  1  2  1  0  0  0
  2  3  2  0  0  0
  2  4  1  0  0  0
  4  5  2  0  0  0
  5  6  1  0  0  0
  6  7  1  0  0  0
  7  8  2  0  0  0
  8  9  1  0  0  0
  9 10  2  0  0  0
 10 27  1  0  0  0
 27 28  1  0  0  0
 28 29  2  0  0  0
 29 30  1  0  0  0
 30 31  2  0  0  0
 31 32  1  0  0  0
 32 33  1  0  0  0
 33 34  2  0  0  0
 34 35  1  0  0  0
 35 36  2  0  0  0
 32 37  2  0  0  0
  6 11  2  0  0  0
 13 14  2  0  0  0
 14 15  1  0  0  0
 15 16  2  0  0  0
 16 17  1  0  0  0
 20 21  1  0  0  0
 21 22  1  0  0  0
 21 23  2  0  0  0
 23 24  1  0  0  0
 23 25  1  0  0  0
 25 26  2  0  0  0
 26 19  1  0  0  0
 17 12  2  0  0  0
 11  1  1  0  0  0
 10  5  1  0  0  0
 37 28  1  0  0  0
 36 31  1  0  0  0
M  END
> <minimizedAffinity>
-8.99422

> <CNNscore>
0.0645148084

> <CNNaffinity>
5.9869050980

> <CNN_VS>
0.3862440288

> <CNNaffinity_variance>
0.3127846122

$$$$
[H]c1nc(Oc2c([H])c([H])c([H])c(F)c2F)c(-n2nc3c([H])c([H])c([H])c(Oc4c([H])c([H])c5nc([H])c([H])c([H])c5c4[H])c3c([H])c2=O)c([H])c1[H]


 37 42  0  0  0  0  0  0  0  0999 V2000
    5.3200    5.9304   21.3731 N   0  0  0  0  0  0  0  0  0  0  0  0
    5.4123    5.4788   20.1113 C   0  0  0  0  0  0  0  0  0  0  0  0
    5.8406    6.2190   19.2047 O   0  0  0  0  0  0  0  0  0  0  0  0
    5.0375    4.1867   19.7800 C   0  0  0  0  0  0  0  0  0  0  0  0
    4.5637    3.3704   20.7882 C   0  0  0  0  0  0  0  0  0  0  0  0
    4.4805    3.8596   22.0691 C   0  0  0  0  0  0  0  0  0  0  0  0
    4.0116    3.0670   23.0931 C   0  0  0  0  0  0  0  0  0  0  0  0
    3.6323    1.7818   22.7973 C   0  0  0  0  0  0  0  0  0  0  0  0
    3.7115    1.2721   21.5013 C   0  0  0  0  0  0  0  0  0  0  0  0
    4.1771    2.0458   20.4610 C   0  0  0  0  0  0  0  0  0  0  0  0
    4.8670    5.1396   22.3185 N   0  0  0  0  0  0  0  0  0  0  0  0
    6.8326    7.4081   22.5392 C   0  0  0  0  0  0  0  0  0  0  0  0
    5.7001    7.2532   21.7291 C   0  0  0  0  0  0  0  0  0  0  0  0
    4.9886    8.3557   21.2996 C   0  0  0  0  0  0  0  0  0  0  0  0
    5.4053    9.6091   21.6769 C   0  0  0  0  0  0  0  0  0  0  0  0
    6.5148    9.7464   22.4695 C   0  0  0  0  0  0  0  0  0  0  0  0
    7.1820    8.6564   22.8687 N   0  0  0  0  0  0  0  0  0  0  0  0
    7.5156    6.2785   22.9478 O   0  0  0  0  0  0  0  0  0  0  0  0
    9.6063    5.8246   21.9404 C   0  0  0  0  0  0  0  0  0  0  0  0
    8.8885    6.2577   23.0325 C   0  0  0  0  0  0  0  0  0  0  0  0
    9.5964    6.6446   24.1436 C   0  0  0  0  0  0  0  0  0  0  0  0
    8.9692    7.0894   25.2524 F   0  0  0  0  0  0  0  0  0  0  0  0
   10.9874    6.5886   24.1340 C   0  0  0  0  0  0  0  0  0  0  0  0
   11.6817    6.9692   25.2275 F   0  0  0  0  0  0  0  0  0  0  0  0
   11.6872    6.1519   23.0307 C   0  0  0  0  0  0  0  0  0  0  0  0
   10.9723    5.7667   21.9226 C   0  0  0  0  0  0  0  0  0  0  0  0
    4.2964    1.6831   19.2159 O   0  0  0  0  0  0  0  0  0  0  0  0
    3.8325    1.6076   17.9995 C   0  0  0  0  0  0  0  0  0  0  0  0
    3.0810    0.5901   17.4629 C   0  0  0  0  0  0  0  0  0  0  0  0
    2.6598    0.6500   16.1528 C   0  0  0  0  0  0  0  0  0  0  0  0
    2.9756    1.7219   15.3459 C   0  0  0  0  0  0  0  0  0  0  0  0
    3.7280    2.7648   15.8442 C   0  0  0  0  0  0  0  0  0  0  0  0
    4.0497    3.8536   15.0272 C   0  0  0  0  0  0  0  0  0  0  0  0
    3.6149    3.8798   13.7319 C   0  0  0  0  0  0  0  0  0  0  0  0
    2.8618    2.8192   13.2601 C   0  0  0  0  0  0  0  0  0  0  0  0
    2.5670    1.7863   14.0651 N   0  0  0  0  0  0  0  0  0  0  0  0
    4.1349    2.6871   17.1416 C   0  0  0  0  0  0  0  0  0  0  0  0
 19 20  2  0  0  0
 20 18  1  0  0  0
 18 12  1  0  0  0
 12 13  1  0  0  0
 13  1  1  0  0  0
  1  2  1  0  0  0
  2  3  2  0  0  0
  2  4  1  0  0  0
  4  5  2  0  0  0
  5  6  1  0  0  0
  6  7  1  0  0  0
  7  8  2  0  0  0
  8  9  1  0  0  0
  9 10  2  0  0  0
 10 27  1  0  0  0
 27 28  1  0  0  0
 28 29  2  0  0  0
 29 30  1  0  0  0
 30 31  2  0  0  0
 31 32  1  0  0  0
 32 33  1  0  0  0
 33 34  2  0  0  0
 34 35  1  0  0  0
 35 36  2  0  0  0
 32 37  2  0  0  0
  6 11  2  0  0  0
 13 14  2  0  0  0
 14 15  1  0  0  0
 15 16  2  0  0  0
 16 17  1  0  0  0
 20 21  1  0  0  0
 21 22  1  0  0  0
 21 23  2  0  0  0
 23 24  1  0  0  0
 23 25  1  0  0  0
 25 26  2  0  0  0
 26 19  1  0  0  0
 17 12  2  0  0  0
 11  1  1  0  0  0
 10  5  1  0  0  0
 37 28  1  0  0  0
 36 31  1  0  0  0
M  END
> <minimizedAffinity>
-11.33476

> <CNNscore>
0.0610997342

> <CNNaffinity>
6.5292959213

> <CNN_VS>
0.3989382386

> <CNNaffinity_variance>
0.4343111515

$$$$
[H]c1nc(Oc2c([H])c([H])c([H])c(F)c2F)c(-n2nc3c([H])c([H])c([H])c(Oc4c([H])c([H])c5nc([H])c([H])c([H])c5c4[H])c3c([H])c2=O)c([H])c1[H]


 37 42  0  0  0  0  0  0  0  0999 V2000
    4.9193    4.2561   21.1227 N   0  0  0  0  0  0  0  0  0  0  0  0
    4.2151    5.2189   20.5046 C   0  0  0  0  0  0  0  0  0  0  0  0
    3.0889    4.9732   20.0310 O   0  0  0  0  0  0  0  0  0  0  0  0
    4.7142    6.5049   20.3749 C   0  0  0  0  0  0  0  0  0  0  0  0
    5.9626    6.7722   20.9015 C   0  0  0  0  0  0  0  0  0  0  0  0
    6.6594    5.7678   21.5280 C   0  0  0  0  0  0  0  0  0  0  0  0
    7.9062    6.0071   22.0618 C   0  0  0  0  0  0  0  0  0  0  0  0
    8.4283    7.2711   21.9497 C   0  0  0  0  0  0  0  0  0  0  0  0
    7.7319    8.3003   21.3162 C   0  0  0  0  0  0  0  0  0  0  0  0
    6.4836    8.0850   20.7747 C   0  0  0  0  0  0  0  0  0  0  0  0
    6.1047    4.5291   21.6171 N   0  0  0  0  0  0  0  0  0  0  0  0
    4.5873    2.0569   20.1823 C   0  0  0  0  0  0  0  0  0  0  0  0
    4.4216    2.9320   21.2637 C   0  0  0  0  0  0  0  0  0  0  0  0
    3.7950    2.5089   22.4189 C   0  0  0  0  0  0  0  0  0  0  0  0
    3.3350    1.2168   22.4955 C   0  0  0  0  0  0  0  0  0  0  0  0
    3.5036    0.3712   21.4303 C   0  0  0  0  0  0  0  0  0  0  0  0
    4.1156    0.8134   20.3246 N   0  0  0  0  0  0  0  0  0  0  0  0
    5.2191    2.5208   19.0442 O   0  0  0  0  0  0  0  0  0  0  0  0
    3.9153    1.3807   17.4341 C   0  0  0  0  0  0  0  0  0  0  0  0
    4.5927    2.5158   17.8194 C   0  0  0  0  0  0  0  0  0  0  0  0
    4.5977    3.5774   16.9487 C   0  0  0  0  0  0  0  0  0  0  0  0
    5.2312    4.7291   17.2540 F   0  0  0  0  0  0  0  0  0  0  0  0
    3.9333    3.4776   15.7294 C   0  0  0  0  0  0  0  0  0  0  0  0
    3.9395    4.5225   14.8745 F   0  0  0  0  0  0  0  0  0  0  0  0
    3.2612    2.3326   15.3624 C   0  0  0  0  0  0  0  0  0  0  0  0
    3.2602    1.2745   16.2386 C   0  0  0  0  0  0  0  0  0  0  0  0
    5.7405    8.9620   20.1625 O   0  0  0  0  0  0  0  0  0  0  0  0
    5.0443    9.3455   19.1288 C   0  0  0  0  0  0  0  0  0  0  0  0
    3.8710   10.0604   19.1414 C   0  0  0  0  0  0  0  0  0  0  0  0
    3.2453   10.3952   17.9607 C   0  0  0  0  0  0  0  0  0  0  0  0
    3.7709   10.0274   16.7409 C   0  0  0  0  0  0  0  0  0  0  0  0
    4.9467    9.3090   16.6825 C   0  0  0  0  0  0  0  0  0  0  0  0
    5.4819    8.9346   15.4456 C   0  0  0  0  0  0  0  0  0  0  0  0
    4.8343    9.2839   14.2940 C   0  0  0  0  0  0  0  0  0  0  0  0
    3.6565   10.0048   14.3842 C   0  0  0  0  0  0  0  0  0  0  0  0
    3.1643   10.3515   15.5838 N   0  0  0  0  0  0  0  0  0  0  0  0
    5.5501    8.9877   17.8604 C   0  0  0  0  0  0  0  0  0  0  0  0
 19 20  2  0  0  0
 20 18  1  0  0  0
 18 12  1  0  0  0
 12 13  1  0  0  0
 13  1  1  0  0  0
  1  2  1  0  0  0
  2  3  2  0  0  0
  2  4  1  0  0  0
  4  5  2  0  0  0
  5  6  1  0  0  0
  6  7  1  0  0  0
  7  8  2  0  0  0
  8  9  1  0  0  0
  9 10  2  0  0  0
 10 27  1  0  0  0
 27 28  1  0  0  0
 28 29  2  0  0  0
 29 30  1  0  0  0
 30 31  2  0  0  0
 31 32  1  0  0  0
 32 33  1  0  0  0
 33 34  2  0  0  0
 34 35  1  0  0  0
 35 36  2  0  0  0
 32 37  2  0  0  0
  6 11  2  0  0  0
 13 14  2  0  0  0
 14 15  1  0  0  0
 15 16  2  0  0  0
 16 17  1  0  0  0
 20 21  1  0  0  0
 21 22  1  0  0  0
 21 23  2  0  0  0
 23 24  1  0  0  0
 23 25  1  0  0  0
 25 26  2  0  0  0
 26 19  1  0  0  0
 17 12  2  0  0  0
 11  1  1  0  0  0
 10  5  1  0  0  0
 37 28  1  0  0  0
 36 31  1  0  0  0
M  END
> <minimizedAffinity>
-10.62889

> <CNNscore>
0.0535750017

> <CNNaffinity>
6.4477257729

> <CNN_VS>
0.3454369307

> <CNNaffinity_variance>
0.5591691732

$$$$
[H]OC(=O)c1c([H])c([H])nc(N2C([H])([H])C([H])([H])N(c3nc([H])c(C(F)(F)F)c([H])c3[H])[C@]([H])(C([H])([H])[H])C2([H])[H])c1[H]


 27 29  0  0  0  0  0  0  0  0999 V2000
    4.1478    3.8032   10.4146 C   0  0  0  0  0  0  0  0  0  0  0  0
    3.2770    5.0028   10.4268 C   0  0  0  0  0  0  0  0  0  0  0  0
    3.9986    6.2912   10.0400 C   0  0  0  0  0  0  0  0  0  0  0  0
    2.9496    7.2496    9.7900 N   0  0  0  0  0  0  0  0  0  0  0  0
    1.8482    7.3945   10.7062 C   0  0  0  0  0  0  0  0  0  0  0  0
    1.7756    6.4086   11.8111 C   0  0  0  0  0  0  0  0  0  0  0  0
    2.5946    5.2310   11.6607 N   0  0  0  0  0  0  0  0  0  0  0  0
    2.6825    4.3675   12.7916 C   0  0  0  0  0  0  0  0  0  0  0  0
    3.7207    4.5222   13.7177 C   0  0  0  0  0  0  0  0  0  0  0  0
    3.8297    3.6912   14.8128 C   0  0  0  0  0  0  0  0  0  0  0  0
    2.9176    2.6905   15.0172 C   0  0  0  0  0  0  0  0  0  0  0  0
    1.8926    2.5510   14.0878 C   0  0  0  0  0  0  0  0  0  0  0  0
    1.8156    3.3752   13.0350 N   0  0  0  0  0  0  0  0  0  0  0  0
    2.9610    1.7602   16.1718 C   0  0  0  0  0  0  0  0  0  0  0  0
    3.0433    0.4536   15.7113 F   0  0  0  0  0  0  0  0  0  0  0  0
    1.8111    1.8448   16.9301 F   0  0  0  0  0  0  0  0  0  0  0  0
    4.0581    1.9623   16.9792 F   0  0  0  0  0  0  0  0  0  0  0  0
    2.9674    8.0958    8.6633 C   0  0  0  0  0  0  0  0  0  0  0  0
    1.7811    8.4565    8.0081 C   0  0  0  0  0  0  0  0  0  0  0  0
    1.7655    9.3067    6.9249 C   0  0  0  0  0  0  0  0  0  0  0  0
    2.9404    9.8369    6.4477 C   0  0  0  0  0  0  0  0  0  0  0  0
    4.1168    9.4743    7.1027 C   0  0  0  0  0  0  0  0  0  0  0  0
    4.0817    8.6356    8.1618 N   0  0  0  0  0  0  0  0  0  0  0  0
    0.5306    9.6428    6.2551 C   0  0  0  0  0  0  0  0  0  0  0  0
    0.5144    9.7613    4.8769 O   0  0  0  0  0  0  0  0  0  0  0  0
   -0.5526    9.8375    6.8802 O   0  0  0  0  0  0  0  0  0  0  0  0
    0.4781    9.0398    4.1991 H   0  0  0  0  0  0  0  0  0  0  0  0
  1  2  1  0  0  0
  2  3  1  0  0  0
  3  4  1  0  0  0
  4  5  1  0  0  0
  5  6  1  0  0  0
  6  7  1  0  0  0
  7  8  1  0  0  0
  8  9  2  0  0  0
  9 10  1  0  0  0
 10 11  2  0  0  0
 11 12  1  0  0  0
 12 13  2  0  0  0
 11 14  1  0  0  0
 14 15  1  0  0  0
 14 16  1  0  0  0
 14 17  1  0  0  0
  4 18  1  0  0  0
 18 19  2  0  0  0
 19 20  1  0  0  0
 20 21  2  0  0  0
 21 22  1  0  0  0
 22 23  2  0  0  0
 20 24  1  0  0  0
 24 25  1  0  0  0
 24 26  2  0  0  0
  7  2  1  0  0  0
 13  8  1  0  0  0
 23 18  1  0  0  0
 25 27  1  0  0  0
M  END
> <minimizedAffinity>
-5.81682

> <CNNscore>
0.5097597241

> <CNNaffinity>
4.8758854866

> <CNN_VS>
2.4855301380

> <CNNaffinity_variance>
0.0451980494

$$$$
[H]OC(=O)c1c([H])c([H])nc(N2C([H])([H])C([H])([H])N(c3nc([H])c(C(F)(F)F)c([H])c3[H])[C@]([H])(C([H])([H])[H])C2([H])[H])c1[H]


 27 29  0  0  0  0  0  0  0  0999 V2000
    5.7360    4.3707   17.8366 C   0  0  0  0  0  0  0  0  0  0  0  0
    4.9319    3.3415   17.1353 C   0  0  0  0  0  0  0  0  0  0  0  0
    3.8784    3.9195   16.1940 C   0  0  0  0  0  0  0  0  0  0  0  0
    3.4479    2.8070   15.3824 N   0  0  0  0  0  0  0  0  0  0  0  0
    3.1300    1.5363   15.9805 C   0  0  0  0  0  0  0  0  0  0  0  0
    3.4218    1.3970   17.4273 C   0  0  0  0  0  0  0  0  0  0  0  0
    4.2882    2.4003   17.9955 N   0  0  0  0  0  0  0  0  0  0  0  0
    4.4271    2.3925   19.4144 C   0  0  0  0  0  0  0  0  0  0  0  0
    4.9623    1.2740   20.0642 C   0  0  0  0  0  0  0  0  0  0  0  0
    5.0958    1.2421   21.4363 C   0  0  0  0  0  0  0  0  0  0  0  0
    4.7041    2.3119   22.1960 C   0  0  0  0  0  0  0  0  0  0  0  0
    4.1748    3.4147   21.5345 C   0  0  0  0  0  0  0  0  0  0  0  0
    4.0591    3.4134   20.2003 N   0  0  0  0  0  0  0  0  0  0  0  0
    4.8205    2.3586   23.6741 C   0  0  0  0  0  0  0  0  0  0  0  0
    4.1644    3.4829   24.1553 F   0  0  0  0  0  0  0  0  0  0  0  0
    6.1376    2.4638   24.0724 F   0  0  0  0  0  0  0  0  0  0  0  0
    4.2411    1.2717   24.2898 F   0  0  0  0  0  0  0  0  0  0  0  0
    3.2965    2.9189   13.9858 C   0  0  0  0  0  0  0  0  0  0  0  0
    3.9134    3.9551   13.2699 C   0  0  0  0  0  0  0  0  0  0  0  0
    3.8089    4.0707   11.9017 C   0  0  0  0  0  0  0  0  0  0  0  0
    3.0810    3.1506   11.1856 C   0  0  0  0  0  0  0  0  0  0  0  0
    2.4694    2.1229   11.9028 C   0  0  0  0  0  0  0  0  0  0  0  0
    2.6001    2.0517   13.2460 N   0  0  0  0  0  0  0  0  0  0  0  0
    4.4363    5.1618   11.1928 C   0  0  0  0  0  0  0  0  0  0  0  0
    5.6127    5.7027   11.6800 O   0  0  0  0  0  0  0  0  0  0  0  0
    3.9517    5.6534   10.1319 O   0  0  0  0  0  0  0  0  0  0  0  0
    6.5339    5.3497   11.5903 H   0  0  0  0  0  0  0  0  0  0  0  0
  1  2  1  0  0  0
  2  3  1  0  0  0
  3  4  1  0  0  0
  4  5  1  0  0  0
  5  6  1  0  0  0
  6  7  1  0  0  0
  7  8  1  0  0  0
  8  9  2  0  0  0
  9 10  1  0  0  0
 10 11  2  0  0  0
 11 12  1  0  0  0
 12 13  2  0  0  0
 11 14  1  0  0  0
 14 15  1  0  0  0
 14 16  1  0  0  0
 14 17  1  0  0  0
  4 18  1  0  0  0
 18 19  2  0  0  0
 19 20  1  0  0  0
 20 21  2  0  0  0
 21 22  1  0  0  0
 22 23  2  0  0  0
 20 24  1  0  0  0
 24 25  1  0  0  0
 24 26  2  0  0  0
  7  2  1  0  0  0
 13  8  1  0  0  0
 23 18  1  0  0  0
 25 27  1  0  0  0
M  END
> <minimizedAffinity>
-7.86061

> <CNNscore>
0.3824822307

> <CNNaffinity>
5.7855782509

> <CNN_VS>
2.2128808498

> <CNNaffinity_variance>
0.2996860147

$$$$
[H]OC(=O)c1c([H])c([H])nc(N2C([H])([H])C([H])([H])N(c3nc([H])c(C(F)(F)F)c([H])c3[H])[C@]([H])(C([H])([H])[H])C2([H])[H])c1[H]


 27 29  0  0  0  0  0  0  0  0999 V2000
    3.0249    0.3227   16.7936 C   0  0  0  0  0  0  0  0  0  0  0  0
    2.6794    1.6752   16.2948 C   0  0  0  0  0  0  0  0  0  0  0  0
    3.0943    1.9219   14.8467 C   0  0  0  0  0  0  0  0  0  0  0  0
    2.3964    3.1221   14.4544 N   0  0  0  0  0  0  0  0  0  0  0  0
    2.3790    4.2794   15.3112 C   0  0  0  0  0  0  0  0  0  0  0  0
    2.9703    4.1101   16.6601 C   0  0  0  0  0  0  0  0  0  0  0  0
    3.1841    2.7498   17.0890 N   0  0  0  0  0  0  0  0  0  0  0  0
    3.9212    2.5710   18.2962 C   0  0  0  0  0  0  0  0  0  0  0  0
    4.7235    3.6053   18.7921 C   0  0  0  0  0  0  0  0  0  0  0  0
    5.4523    3.4493   19.9524 C   0  0  0  0  0  0  0  0  0  0  0  0
    5.4053    2.2702   20.6473 C   0  0  0  0  0  0  0  0  0  0  0  0
    4.6032    1.2534   20.1408 C   0  0  0  0  0  0  0  0  0  0  0  0
    3.9080    1.4378   19.0111 N   0  0  0  0  0  0  0  0  0  0  0  0
    6.1529    2.0256   21.9050 C   0  0  0  0  0  0  0  0  0  0  0  0
    6.7977    3.1910   22.2949 F   0  0  0  0  0  0  0  0  0  0  0  0
    7.1304    1.0672   21.7313 F   0  0  0  0  0  0  0  0  0  0  0  0
    5.3341    1.6606   22.9503 F   0  0  0  0  0  0  0  0  0  0  0  0
    1.7284    3.2245   13.2179 C   0  0  0  0  0  0  0  0  0  0  0  0
    1.6637    2.1360   12.3359 C   0  0  0  0  0  0  0  0  0  0  0  0
    0.9910    2.1976   11.1359 C   0  0  0  0  0  0  0  0  0  0  0  0
    0.3495    3.3548   10.7637 C   0  0  0  0  0  0  0  0  0  0  0  0
    0.4177    4.4339   11.6442 C   0  0  0  0  0  0  0  0  0  0  0  0
    1.0910    4.3257   12.8111 N   0  0  0  0  0  0  0  0  0  0  0  0
    0.9604    1.0677   10.2364 C   0  0  0  0  0  0  0  0  0  0  0  0
   -0.1211    0.2054   10.2637 O   0  0  0  0  0  0  0  0  0  0  0  0
    1.8912    0.8264    9.4134 O   0  0  0  0  0  0  0  0  0  0  0  0
   -1.0148    0.3285    9.8546 H   0  0  0  0  0  0  0  0  0  0  0  0
  1  2  1  0  0  0
  2  3  1  0  0  0
  3  4  1  0  0  0
  4  5  1  0  0  0
  5  6  1  0  0  0
  6  7  1  0  0  0
  7  8  1  0  0  0
  8  9  2  0  0  0
  9 10  1  0  0  0
 10 11  2  0  0  0
 11 12  1  0  0  0
 12 13  2  0  0  0
 11 14  1  0  0  0
 14 15  1  0  0  0
 14 16  1  0  0  0
 14 17  1  0  0  0
  4 18  1  0  0  0
 18 19  2  0  0  0
 19 20  1  0  0  0
 20 21  2  0  0  0
 21 22  1  0  0  0
 22 23  2  0  0  0
 20 24  1  0  0  0
 24 25  1  0  0  0
 24 26  2  0  0  0
  7  2  1  0  0  0
 13  8  1  0  0  0
 23 18  1  0  0  0
 25 27  1  0  0  0
M  END
> <minimizedAffinity>
-7.73699

> <CNNscore>
0.3349444866

> <CNNaffinity>
5.7066330910

> <CNN_VS>
1.9114053249

> <CNNaffinity_variance>
0.4352122247

$$$$
[H]OC(=O)c1c([H])c([H])nc(N2C([H])([H])C([H])([H])N(c3nc([H])c(C(F)(F)F)c([H])c3[H])[C@]([H])(C([H])([H])[H])C2([H])[H])c1[H]


 27 29  0  0  0  0  0  0  0  0999 V2000
    5.8084    4.5679   17.8889 C   0  0  0  0  0  0  0  0  0  0  0  0
    5.0362    3.5535   17.1325 C   0  0  0  0  0  0  0  0  0  0  0  0
    4.0016    4.1502   16.1820 C   0  0  0  0  0  0  0  0  0  0  0  0
    3.6068    3.0604   15.3229 N   0  0  0  0  0  0  0  0  0  0  0  0
    3.2883    1.7671   15.8702 C   0  0  0  0  0  0  0  0  0  0  0  0
    3.5425    1.5835   17.3192 C   0  0  0  0  0  0  0  0  0  0  0  0
    4.3810    2.5771   17.9435 N   0  0  0  0  0  0  0  0  0  0  0  0
    4.4815    2.5240   19.3646 C   0  0  0  0  0  0  0  0  0  0  0  0
    5.0158    1.3924   19.9917 C   0  0  0  0  0  0  0  0  0  0  0  0
    5.1126    1.3166   21.3652 C   0  0  0  0  0  0  0  0  0  0  0  0
    4.6842    2.3549   22.1486 C   0  0  0  0  0  0  0  0  0  0  0  0
    4.1563    3.4714   21.5095 C   0  0  0  0  0  0  0  0  0  0  0  0
    4.0768    3.5128   20.1732 N   0  0  0  0  0  0  0  0  0  0  0  0
    4.7598    2.3540   23.6301 C   0  0  0  0  0  0  0  0  0  0  0  0
    4.0846    3.4590   24.1292 F   0  0  0  0  0  0  0  0  0  0  0  0
    6.0648    2.4522   24.0677 F   0  0  0  0  0  0  0  0  0  0  0  0
    4.1697    1.2449   24.1941 F   0  0  0  0  0  0  0  0  0  0  0  0
    3.4919    3.2166   13.9272 C   0  0  0  0  0  0  0  0  0  0  0  0
    2.7512    2.3107   13.1542 C   0  0  0  0  0  0  0  0  0  0  0  0
    2.5956    2.4563   11.7937 C   0  0  0  0  0  0  0  0  0  0  0  0
    3.1753    3.5194   11.1434 C   0  0  0  0  0  0  0  0  0  0  0  0
    3.9112    4.4165   11.9168 C   0  0  0  0  0  0  0  0  0  0  0  0
    4.0362    4.2311   13.2497 N   0  0  0  0  0  0  0  0  0  0  0  0
    1.8459    1.4947   11.0191 C   0  0  0  0  0  0  0  0  0  0  0  0
    0.5062    1.2923   11.2982 O   0  0  0  0  0  0  0  0  0  0  0  0
    2.3661    0.8187   10.0841 O   0  0  0  0  0  0  0  0  0  0  0  0
   -0.2681    1.8477   11.0272 H   0  0  0  0  0  0  0  0  0  0  0  0
  1  2  1  0  0  0
  2  3  1  0  0  0
  3  4  1  0  0  0
  4  5  1  0  0  0
  5  6  1  0  0  0
  6  7  1  0  0  0
  7  8  1  0  0  0
  8  9  2  0  0  0
  9 10  1  0  0  0
 10 11  2  0  0  0
 11 12  1  0  0  0
 12 13  2  0  0  0
 11 14  1  0  0  0
 14 15  1  0  0  0
 14 16  1  0  0  0
 14 17  1  0  0  0
  4 18  1  0  0  0
 18 19  2  0  0  0
 19 20  1  0  0  0
 20 21  2  0  0  0
 21 22  1  0  0  0
 22 23  2  0  0  0
 20 24  1  0  0  0
 24 25  1  0  0  0
 24 26  2  0  0  0
  7  2  1  0  0  0
 13  8  1  0  0  0
 23 18  1  0  0  0
 25 27  1  0  0  0
M  END
> <minimizedAffinity>
-7.91419

> <CNNscore>
0.3127804101

> <CNNaffinity>
5.7081308365

> <CNN_VS>
1.7853914499

> <CNNaffinity_variance>
0.1997723281

$$$$
[H]OC(=O)c1c([H])c([H])nc(N2C([H])([H])C([H])([H])N(c3nc([H])c(C(F)(F)F)c([H])c3[H])[C@]([H])(C([H])([H])[H])C2([H])[H])c1[H]


 27 29  0  0  0  0  0  0  0  0999 V2000
    3.0087    0.6834   16.4363 C   0  0  0  0  0  0  0  0  0  0  0  0
    2.6287    2.0703   16.0762 C   0  0  0  0  0  0  0  0  0  0  0  0
    3.0375    2.4731   14.6618 C   0  0  0  0  0  0  0  0  0  0  0  0
    2.3092    3.6887   14.3912 N   0  0  0  0  0  0  0  0  0  0  0  0
    2.2618    4.7523   15.3608 C   0  0  0  0  0  0  0  0  0  0  0  0
    2.8568    4.4622   16.6874 C   0  0  0  0  0  0  0  0  0  0  0  0
    3.1054    3.0713   16.9767 N   0  0  0  0  0  0  0  0  0  0  0  0
    3.8464    2.7898   18.1617 C   0  0  0  0  0  0  0  0  0  0  0  0
    4.6426    3.7810   18.7474 C   0  0  0  0  0  0  0  0  0  0  0  0
    5.3751    3.5264   19.8877 C   0  0  0  0  0  0  0  0  0  0  0  0
    5.3379    2.2893   20.4738 C   0  0  0  0  0  0  0  0  0  0  0  0
    4.5418    1.3164   19.8791 C   0  0  0  0  0  0  0  0  0  0  0  0
    3.8427    1.5968   18.7718 N   0  0  0  0  0  0  0  0  0  0  0  0
    6.0901    1.9377   21.7031 C   0  0  0  0  0  0  0  0  0  0  0  0
    6.8504    3.0258   22.1081 F   0  0  0  0  0  0  0  0  0  0  0  0
    6.9691    0.8986   21.4756 F   0  0  0  0  0  0  0  0  0  0  0  0
    5.2667    1.6183   22.7597 F   0  0  0  0  0  0  0  0  0  0  0  0
    1.6391    3.8989   13.1695 C   0  0  0  0  0  0  0  0  0  0  0  0
    1.2978    5.1902   12.7420 C   0  0  0  0  0  0  0  0  0  0  0  0
    0.6716    5.4278   11.5387 C   0  0  0  0  0  0  0  0  0  0  0  0
    0.3587    4.3802   10.7057 C   0  0  0  0  0  0  0  0  0  0  0  0
    0.6998    3.0985   11.1362 C   0  0  0  0  0  0  0  0  0  0  0  0
    1.3134    2.9152   12.3264 N   0  0  0  0  0  0  0  0  0  0  0  0
    0.3112    6.7668   11.1343 C   0  0  0  0  0  0  0  0  0  0  0  0
   -0.0635    7.0042    9.8239 O   0  0  0  0  0  0  0  0  0  0  0  0
    0.3234    7.7471   11.9349 O   0  0  0  0  0  0  0  0  0  0  0  0
   -0.9392    6.8302    9.3947 H   0  0  0  0  0  0  0  0  0  0  0  0
  1  2  1  0  0  0
  2  3  1  0  0  0
  3  4  1  0  0  0
  4  5  1  0  0  0
  5  6  1  0  0  0
  6  7  1  0  0  0
  7  8  1  0  0  0
  8  9  2  0  0  0
  9 10  1  0  0  0
 10 11  2  0  0  0
 11 12  1  0  0  0
 12 13  2  0  0  0
 11 14  1  0  0  0
 14 15  1  0  0  0
 14 16  1  0  0  0
 14 17  1  0  0  0
  4 18  1  0  0  0
 18 19  2  0  0  0
 19 20  1  0  0  0
 20 21  2  0  0  0
 21 22  1  0  0  0
 22 23  2  0  0  0
 20 24  1  0  0  0
 24 25  1  0  0  0
 24 26  2  0  0  0
  7  2  1  0  0  0
 13  8  1  0  0  0
 23 18  1  0  0  0
 25 27  1  0  0  0
M  END
> <minimizedAffinity>
-7.71325

> <CNNscore>
0.2956531644

> <CNNaffinity>
5.4368982315

> <CNN_VS>
1.6074361801

> <CNNaffinity_variance>
0.5513373613

$$$$
[H]OC(=O)c1c([H])c([H])nc(N2C([H])([H])C([H])([H])N(c3nc([H])c(C(F)(F)F)c([H])c3[H])[C@]([H])(C([H])([H])[H])C2([H])[H])c1[H]


 27 29  0  0  0  0  0  0  0  0999 V2000
    4.0693    3.4407   10.6812 C   0  0  0  0  0  0  0  0  0  0  0  0
    3.2881    4.6923   10.8257 C   0  0  0  0  0  0  0  0  0  0  0  0
    4.0704    5.9516   10.4624 C   0  0  0  0  0  0  0  0  0  0  0  0
    3.0769    6.9912   10.3449 N   0  0  0  0  0  0  0  0  0  0  0  0
    2.0540    7.1511   11.3457 C   0  0  0  0  0  0  0  0  0  0  0  0
    1.9880    6.1051   12.3942 C   0  0  0  0  0  0  0  0  0  0  0  0
    2.7098    4.8877   12.1170 N   0  0  0  0  0  0  0  0  0  0  0  0
    2.8140    3.9513   13.1870 C   0  0  0  0  0  0  0  0  0  0  0  0
    1.9396    2.8603   13.2567 C   0  0  0  0  0  0  0  0  0  0  0  0
    2.0169    1.9488   14.2886 C   0  0  0  0  0  0  0  0  0  0  0  0
    2.9575    2.0944   15.2731 C   0  0  0  0  0  0  0  0  0  0  0  0
    3.8181    3.1834   15.1885 C   0  0  0  0  0  0  0  0  0  0  0  0
    3.7162    4.0502   14.1727 N   0  0  0  0  0  0  0  0  0  0  0  0
    3.1099    1.1553   16.4114 C   0  0  0  0  0  0  0  0  0  0  0  0
    2.9119    1.8369   17.6040 F   0  0  0  0  0  0  0  0  0  0  0  0
    4.3833    0.6261   16.4604 F   0  0  0  0  0  0  0  0  0  0  0  0
    2.1890    0.1318   16.3860 F   0  0  0  0  0  0  0  0  0  0  0  0
    3.0769    7.9031    9.2706 C   0  0  0  0  0  0  0  0  0  0  0  0
    4.1748    8.0029    8.4036 C   0  0  0  0  0  0  0  0  0  0  0  0
    4.1895    8.8619    7.3274 C   0  0  0  0  0  0  0  0  0  0  0  0
    3.1020    9.6616    7.0686 C   0  0  0  0  0  0  0  0  0  0  0  0
    2.0136    9.5585    7.9342 C   0  0  0  0  0  0  0  0  0  0  0  0
    2.0461    8.7008    8.9782 N   0  0  0  0  0  0  0  0  0  0  0  0
    5.3437    8.9603    6.4643 C   0  0  0  0  0  0  0  0  0  0  0  0
    6.3635    9.8368    6.7892 O   0  0  0  0  0  0  0  0  0  0  0  0
    5.4660    8.2723    5.4090 O   0  0  0  0  0  0  0  0  0  0  0  0
    7.0907    9.7144    7.4506 H   0  0  0  0  0  0  0  0  0  0  0  0
  1  2  1  0  0  0
  2  3  1  0  0  0
  3  4  1  0  0  0
  4  5  1  0  0  0
  5  6  1  0  0  0
  6  7  1  0  0  0
  7  8  1  0  0  0
  8  9  2  0  0  0
  9 10  1  0  0  0
 10 11  2  0  0  0
 11 12  1  0  0  0
 12 13  2  0  0  0
 11 14  1  0  0  0
 14 15  1  0  0  0
 14 16  1  0  0  0
 14 17  1  0  0  0
  4 18  1  0  0  0
 18 19  2  0  0  0
 19 20  1  0  0  0
 20 21  2  0  0  0
 21 22  1  0  0  0
 22 23  2  0  0  0
 20 24  1  0  0  0
 24 25  1  0  0  0
 24 26  2  0  0  0
  7  2  1  0  0  0
 13  8  1  0  0  0
 23 18  1  0  0  0
 25 27  1  0  0  0
M  END
> <minimizedAffinity>
-5.90658

> <CNNscore>
0.2821683884

> <CNNaffinity>
4.7043862343

> <CNN_VS>
1.3274290562

> <CNNaffinity_variance>
0.1003235802

$$$$
[H]OC(=O)c1c([H])c([H])nc(N2C([H])([H])C([H])([H])N(c3nc([H])c(C(F)(F)F)c([H])c3[H])[C@]([H])(C([H])([H])[H])C2([H])[H])c1[H]


 27 29  0  0  0  0  0  0  0  0999 V2000
    3.3871    0.5196   16.5935 C   0  0  0  0  0  0  0  0  0  0  0  0
    4.0435    1.8013   16.9453 C   0  0  0  0  0  0  0  0  0  0  0  0
    3.6359    2.3471   18.3113 C   0  0  0  0  0  0  0  0  0  0  0  0
    4.5986    3.3804   18.6064 N   0  0  0  0  0  0  0  0  0  0  0  0
    4.9542    4.3628   17.6154 C   0  0  0  0  0  0  0  0  0  0  0  0
    4.4056    4.1546   16.2539 C   0  0  0  0  0  0  0  0  0  0  0  0
    3.8709    2.8428   15.9832 N   0  0  0  0  0  0  0  0  0  0  0  0
    3.1723    2.6816   14.7509 C   0  0  0  0  0  0  0  0  0  0  0  0
    3.6867    3.2330   13.5715 C   0  0  0  0  0  0  0  0  0  0  0  0
    3.0216    3.0974   12.3711 C   0  0  0  0  0  0  0  0  0  0  0  0
    1.8357    2.4157   12.3089 C   0  0  0  0  0  0  0  0  0  0  0  0
    1.3390    1.8741   13.4895 C   0  0  0  0  0  0  0  0  0  0  0  0
    2.0102    2.0240   14.6387 N   0  0  0  0  0  0  0  0  0  0  0  0
    1.0633    2.2200   11.0576 C   0  0  0  0  0  0  0  0  0  0  0  0
    0.5289    0.9393   11.0384 F   0  0  0  0  0  0  0  0  0  0  0  0
    1.8711    2.3325    9.9445 F   0  0  0  0  0  0  0  0  0  0  0  0
    0.0023    3.0904   10.9435 F   0  0  0  0  0  0  0  0  0  0  0  0
    5.2095    3.4895   19.8716 C   0  0  0  0  0  0  0  0  0  0  0  0
    5.4801    4.7422   20.4410 C   0  0  0  0  0  0  0  0  0  0  0  0
    6.0469    4.8788   21.6886 C   0  0  0  0  0  0  0  0  0  0  0  0
    6.3684    3.7641   22.4256 C   0  0  0  0  0  0  0  0  0  0  0  0
    6.0976    2.5212   21.8541 C   0  0  0  0  0  0  0  0  0  0  0  0
    5.5408    2.4377   20.6255 N   0  0  0  0  0  0  0  0  0  0  0  0
    6.3357    6.1820   22.2407 C   0  0  0  0  0  0  0  0  0  0  0  0
    5.3342    7.1349   22.2955 O   0  0  0  0  0  0  0  0  0  0  0  0
    7.4793    6.4970   22.6821 O   0  0  0  0  0  0  0  0  0  0  0  0
    4.5988    7.2154   22.9543 H   0  0  0  0  0  0  0  0  0  0  0  0
  1  2  1  0  0  0
  2  3  1  0  0  0
  3  4  1  0  0  0
  4  5  1  0  0  0
  5  6  1  0  0  0
  6  7  1  0  0  0
  7  8  1  0  0  0
  8  9  2  0  0  0
  9 10  1  0  0  0
 10 11  2  0  0  0
 11 12  1  0  0  0
 12 13  2  0  0  0
 11 14  1  0  0  0
 14 15  1  0  0  0
 14 16  1  0  0  0
 14 17  1  0  0  0
  4 18  1  0  0  0
 18 19  2  0  0  0
 19 20  1  0  0  0
 20 21  2  0  0  0
 21 22  1  0  0  0
 22 23  2  0  0  0
 20 24  1  0  0  0
 24 25  1  0  0  0
 24 26  2  0  0  0
  7  2  1  0  0  0
 13  8  1  0  0  0
 23 18  1  0  0  0
 25 27  1  0  0  0
M  END
> <minimizedAffinity>
-7.26127

> <CNNscore>
0.2482279688

> <CNNaffinity>
5.5329880714

> <CNN_VS>
1.3734424114

> <CNNaffinity_variance>
0.3914820850

$$$$
[H]OC(=O)c1c([H])c([H])nc(N2C([H])([H])C([H])([H])N(c3nc([H])c(C(F)(F)F)c([H])c3[H])[C@]([H])(C([H])([H])[H])C2([H])[H])c1[H]


 27 29  0  0  0  0  0  0  0  0999 V2000
    3.5402    1.2064   16.2824 C   0  0  0  0  0  0  0  0  0  0  0  0
    2.9479    2.5560   16.1228 C   0  0  0  0  0  0  0  0  0  0  0  0
    3.3326    3.2465   14.8170 C   0  0  0  0  0  0  0  0  0  0  0  0
    2.4223    4.3595   14.6974 N   0  0  0  0  0  0  0  0  0  0  0  0
    2.1659    5.2271   15.8177 C   0  0  0  0  0  0  0  0  0  0  0  0
    2.7549    4.8195   17.1158 C   0  0  0  0  0  0  0  0  0  0  0  0
    3.2207    3.4570   17.1971 N   0  0  0  0  0  0  0  0  0  0  0  0
    3.9570    3.1042   18.3658 C   0  0  0  0  0  0  0  0  0  0  0  0
    4.7687    4.0519   19.0004 C   0  0  0  0  0  0  0  0  0  0  0  0
    5.4969    3.7284   20.1258 C   0  0  0  0  0  0  0  0  0  0  0  0
    5.4402    2.4640   20.6485 C   0  0  0  0  0  0  0  0  0  0  0  0
    4.6289    1.5351   20.0059 C   0  0  0  0  0  0  0  0  0  0  0  0
    3.9345    1.8821   18.9147 N   0  0  0  0  0  0  0  0  0  0  0  0
    6.1866    2.0389   21.8580 C   0  0  0  0  0  0  0  0  0  0  0  0
    5.3009    1.5125   22.7878 F   0  0  0  0  0  0  0  0  0  0  0  0
    6.8136    3.1081   22.4644 F   0  0  0  0  0  0  0  0  0  0  0  0
    7.1122    1.0538   21.5952 F   0  0  0  0  0  0  0  0  0  0  0  0
    1.7690    4.6601   13.4856 C   0  0  0  0  0  0  0  0  0  0  0  0
    2.0646    5.8313   12.7730 C   0  0  0  0  0  0  0  0  0  0  0  0
    1.4652    6.1349   11.5710 C   0  0  0  0  0  0  0  0  0  0  0  0
    0.5407    5.2765   11.0253 C   0  0  0  0  0  0  0  0  0  0  0  0
    0.2504    4.1139   11.7385 C   0  0  0  0  0  0  0  0  0  0  0  0
    0.8643    3.8596   12.9153 N   0  0  0  0  0  0  0  0  0  0  0  0
    1.7722    7.3601   10.8701 C   0  0  0  0  0  0  0  0  0  0  0  0
    2.7795    8.1812   11.3444 O   0  0  0  0  0  0  0  0  0  0  0  0
    1.1526    7.7224    9.8276 O   0  0  0  0  0  0  0  0  0  0  0  0
    3.7584    8.0802   11.2309 H   0  0  0  0  0  0  0  0  0  0  0  0
  1  2  1  0  0  0
  2  3  1  0  0  0
  3  4  1  0  0  0
  4  5  1  0  0  0
  5  6  1  0  0  0
  6  7  1  0  0  0
  7  8  1  0  0  0
  8  9  2  0  0  0
  9 10  1  0  0  0
 10 11  2  0  0  0
 11 12  1  0  0  0
 12 13  2  0  0  0
 11 14  1  0  0  0
 14 15  1  0  0  0
 14 16  1  0  0  0
 14 17  1  0  0  0
  4 18  1  0  0  0
 18 19  2  0  0  0
 19 20  1  0  0  0
 20 21  2  0  0  0
 21 22  1  0  0  0
 22 23  2  0  0  0
 20 24  1  0  0  0
 24 25  1  0  0  0
 24 26  2  0  0  0
  7  2  1  0  0  0
 13  8  1  0  0  0
 23 18  1  0  0  0
 25 27  1  0  0  0
M  END
> <minimizedAffinity>
-7.53043

> <CNNscore>
0.2157332152

> <CNNaffinity>
5.2272872925

> <CNN_VS>
1.1276994944

> <CNNaffinity_variance>
0.5694137812

$$$$
[H]OC(=O)c1c([H])c([H])nc(N2C([H])([H])C([H])([H])N(c3nc([H])c(C(F)(F)F)c([H])c3[H])[C@]([H])(C([H])([H])[H])C2([H])[H])c1[H]


 27 29  0  0  0  0  0  0  0  0999 V2000
    2.3184    4.8692   16.0743 C   0  0  0  0  0  0  0  0  0  0  0  0
    2.6883    3.5794   16.7046 C   0  0  0  0  0  0  0  0  0  0  0  0
    3.9497    3.6523   17.5611 C   0  0  0  0  0  0  0  0  0  0  0  0
    3.9530    2.4320   18.3309 N   0  0  0  0  0  0  0  0  0  0  0  0
    3.6890    1.1629   17.7038 C   0  0  0  0  0  0  0  0  0  0  0  0
    3.2631    1.2046   16.2844 C   0  0  0  0  0  0  0  0  0  0  0  0
    2.8354    2.4908   15.7916 N   0  0  0  0  0  0  0  0  0  0  0  0
    2.6040    2.5906   14.3884 C   0  0  0  0  0  0  0  0  0  0  0  0
    1.5040    1.9482   13.8080 C   0  0  0  0  0  0  0  0  0  0  0  0
    1.2678    2.0236   12.4514 C   0  0  0  0  0  0  0  0  0  0  0  0
    2.1114    2.7335   11.6393 C   0  0  0  0  0  0  0  0  0  0  0  0
    3.1990    3.3656   12.2323 C   0  0  0  0  0  0  0  0  0  0  0  0
    3.3995    3.2724   13.5531 N   0  0  0  0  0  0  0  0  0  0  0  0
    1.9236    2.8685   10.1741 C   0  0  0  0  0  0  0  0  0  0  0  0
    2.5807    4.0056    9.7255 F   0  0  0  0  0  0  0  0  0  0  0  0
    0.5913    3.0229    9.8494 F   0  0  0  0  0  0  0  0  0  0  0  0
    2.4471    1.8079    9.4688 F   0  0  0  0  0  0  0  0  0  0  0  0
    4.2361    2.4234   19.7113 C   0  0  0  0  0  0  0  0  0  0  0  0
    4.7768    3.5499   20.3481 C   0  0  0  0  0  0  0  0  0  0  0  0
    5.0336    3.5806   21.7007 C   0  0  0  0  0  0  0  0  0  0  0  0
    4.7589    2.4821   22.4798 C   0  0  0  0  0  0  0  0  0  0  0  0
    4.2219    1.3648   21.8411 C   0  0  0  0  0  0  0  0  0  0  0  0
    3.9879    1.3819   20.5102 N   0  0  0  0  0  0  0  0  0  0  0  0
    5.6125    4.7470   22.3261 C   0  0  0  0  0  0  0  0  0  0  0  0
    4.9065    5.4107   23.3134 O   0  0  0  0  0  0  0  0  0  0  0  0
    6.7518    5.1966   22.0071 O   0  0  0  0  0  0  0  0  0  0  0  0
    4.8096    5.1664   24.2685 H   0  0  0  0  0  0  0  0  0  0  0  0
  1  2  1  0  0  0
  2  3  1  0  0  0
  3  4  1  0  0  0
  4  5  1  0  0  0
  5  6  1  0  0  0
  6  7  1  0  0  0
  7  8  1  0  0  0
  8  9  2  0  0  0
  9 10  1  0  0  0
 10 11  2  0  0  0
 11 12  1  0  0  0
 12 13  2  0  0  0
 11 14  1  0  0  0
 14 15  1  0  0  0
 14 16  1  0  0  0
 14 17  1  0  0  0
  4 18  1  0  0  0
 18 19  2  0  0  0
 19 20  1  0  0  0
 20 21  2  0  0  0
 21 22  1  0  0  0
 22 23  2  0  0  0
 20 24  1  0  0  0
 24 25  1  0  0  0
 24 26  2  0  0  0
  7  2  1  0  0  0
 13  8  1  0  0  0
 23 18  1  0  0  0
 25 27  1  0  0  0
M  END
> <minimizedAffinity>
-7.18272

> <CNNscore>
0.2006574273

> <CNNaffinity>
5.4725255966

> <CNN_VS>
1.0981029272

> <CNNaffinity_variance>
0.3026317954

$$$$
[H]N=C(N([H])[H])N([H])C([H])([H])C([H])([H])C([H])([H])[C@@]([H])(C([H])=O)N([H])C(=O)[C@@]1([H])N(C(=O)[C@@]([H])(c2c([H])c([H])c([H])c([H])c2[H])N([H])C(=O)OC(C([H])([H])[H])(C([H])([H])[H])C([H])([H])[H])C([H])([H])C([H])([H])C1([H])[H]


 41 42  0  0  0  0  0  0  0  0999 V2000
    3.0280    4.2880   16.6870 C   0  0  0  0  0  0  0  0  0  0  0  0
    2.0563    4.9181   17.2529 O   0  0  0  0  0  0  0  0  0  0  0  0
    2.9779    4.0417   15.3169 N   0  0  0  0  0  0  0  0  0  0  0  0
    3.8442    3.0007   14.6637 C   0  0  0  0  0  0  0  0  0  0  0  0
    2.8642    2.3317   13.6495 C   0  0  0  0  0  0  0  0  0  0  0  0
    1.5814    3.1914   13.8647 C   0  0  0  0  0  0  0  0  0  0  0  0
    2.2753    4.4952   14.1597 C   0  0  0  0  0  0  0  0  0  0  0  0
    1.6996    5.7549   13.9472 C   0  0  0  0  0  0  0  0  0  0  0  0
    0.4764    5.9724   14.1018 O   0  0  0  0  0  0  0  0  0  0  0  0
    2.5283    6.8374   13.5622 N   0  0  0  0  0  0  0  0  0  0  0  0
    3.5514    6.6172   13.3732 H   0  0  0  0  0  0  0  0  0  0  0  0
    2.1153    8.2209   13.3964 C   0  0  0  0  0  0  0  0  0  0  0  0
    1.8919    8.4442   11.9294 C   0  0  0  0  0  0  0  0  0  0  0  0
    0.8196    8.1575   11.4492 O   0  0  0  0  0  0  0  0  0  0  0  0
    3.1907    9.1100   13.9396 C   0  0  0  0  0  0  0  0  0  0  0  0
    4.1831    8.4076   14.8106 C   0  0  0  0  0  0  0  0  0  0  0  0
    3.8841    8.7449   16.2676 C   0  0  0  0  0  0  0  0  0  0  0  0
    2.9967    9.8532   16.4136 N   0  0  0  0  0  0  0  0  0  0  0  0
    2.1260    9.8723   15.8165 H   0  0  0  0  0  0  0  0  0  0  0  0
    3.2420   10.8971   17.3229 C   0  0  0  0  0  0  0  0  0  0  0  0
    4.4950   11.5889   17.2649 N   0  0  0  0  0  0  0  0  0  0  0  0
    2.3888   11.2384   18.2029 N   0  0  0  0  0  0  0  0  0  0  0  0
    4.5370   12.5659   16.8621 H   0  0  0  0  0  0  0  0  0  0  0  0
    5.3855   11.1708   17.5950 H   0  0  0  0  0  0  0  0  0  0  0  0
    1.4455   10.7772   18.3282 H   0  0  0  0  0  0  0  0  0  0  0  0
    4.1159    3.8692   17.5488 C   0  0  0  0  0  0  0  0  0  0  0  0
    4.7838    5.1223   18.1490 C   0  0  0  0  0  0  0  0  0  0  0  0
    4.2933    5.7584   19.2312 C   0  0  0  0  0  0  0  0  0  0  0  0
    4.8897    6.9092   19.7247 C   0  0  0  0  0  0  0  0  0  0  0  0
    6.0040    7.3842   19.0693 C   0  0  0  0  0  0  0  0  0  0  0  0
    6.5279    6.7547   17.9613 C   0  0  0  0  0  0  0  0  0  0  0  0
    5.8969    5.6076   17.5034 C   0  0  0  0  0  0  0  0  0  0  0  0
    3.9135    1.7441   18.6959 C   0  0  0  0  0  0  0  0  0  0  0  0
    4.5236    1.3003   17.6792 O   0  0  0  0  0  0  0  0  0  0  0  0
    3.6381    3.1518   18.7410 N   0  0  0  0  0  0  0  0  0  0  0  0
    3.1574    3.6409   19.4777 H   0  0  0  0  0  0  0  0  0  0  0  0
    3.5740    0.8097   19.6360 O   0  0  0  0  0  0  0  0  0  0  0  0
    3.9202   -0.3366   21.7139 C   0  0  0  0  0  0  0  0  0  0  0  0
    4.2012    0.8702   20.9063 C   0  0  0  0  0  0  0  0  0  0  0  0
    3.7022    2.0818   21.6811 C   0  0  0  0  0  0  0  0  0  0  0  0
    5.6806    1.0738   20.6710 C   0  0  0  0  0  0  0  0  0  0  0  0
 38 39  1  0  0  0
 39 40  1  0  0  0
 39 41  1  0  0  0
 39 37  1  0  0  0
 37 33  1  0  0  0
 33 34  2  0  0  0
 33 35  1  0  0  0
 35 26  1  0  0  0
 26  1  1  0  0  0
  1  2  2  0  0  0
  1  3  1  0  0  0
  3  4  1  0  0  0
  4  5  1  0  0  0
  5  6  1  0  0  0
  6  7  1  0  0  0
  7  8  1  0  0  0
  8  9  2  0  0  0
  8 10  1  0  0  0
 10 12  1  0  0  0
 12 15  1  0  0  0
 15 16  1  0  0  0
 16 17  1  0  0  0
 17 18  1  0  0  0
 18 20  1  0  0  0
 20 21  1  0  0  0
 20 22  2  0  0  0
 12 13  1  0  0  0
 13 14  2  0  0  0
 26 27  1  0  0  0
 27 28  2  0  0  0
 28 29  1  0  0  0
 29 30  2  0  0  0
 30 31  1  0  0  0
 31 32  2  0  0  0
  7  3  1  0  0  0
 32 27  1  0  0  0
 35 36  1  0  0  0
 10 11  1  0  0  0
 18 19  1  0  0  0
 21 23  1  0  0  0
 21 24  1  0  0  0
 22 25  1  0  0  0
M  END
> <minimizedAffinity>
-7.03654

> <CNNscore>
0.4917710423

> <CNNaffinity>
6.3299970627

> <CNN_VS>
3.1129093170

> <CNNaffinity_variance>
0.1809843481

$$$$
[H]N=C(N([H])[H])N([H])C([H])([H])C([H])([H])C([H])([H])[C@@]([H])(C([H])=O)N([H])C(=O)[C@@]1([H])N(C(=O)[C@@]([H])(c2c([H])c([H])c([H])c([H])c2[H])N([H])C(=O)OC(C([H])([H])[H])(C([H])([H])[H])C([H])([H])[H])C([H])([H])C([H])([H])C1([H])[H]


 41 42  0  0  0  0  0  0  0  0999 V2000
    3.8706    4.0031   17.6259 C   0  0  0  0  0  0  0  0  0  0  0  0
    3.1349    5.0547   17.5072 O   0  0  0  0  0  0  0  0  0  0  0  0
    3.7187    2.9561   16.7197 N   0  0  0  0  0  0  0  0  0  0  0  0
    4.2335    1.5732   17.0086 C   0  0  0  0  0  0  0  0  0  0  0  0
    3.0784    0.6646   16.4824 C   0  0  0  0  0  0  0  0  0  0  0  0
    2.1022    1.7322   15.9007 C   0  0  0  0  0  0  0  0  0  0  0  0
    3.1483    2.7102   15.4342 C   0  0  0  0  0  0  0  0  0  0  0  0
    2.9537    3.6291   14.3944 C   0  0  0  0  0  0  0  0  0  0  0  0
    3.4785    3.4923   13.2661 O   0  0  0  0  0  0  0  0  0  0  0  0
    2.1148    4.7500   14.6108 N   0  0  0  0  0  0  0  0  0  0  0  0
    1.7319    4.8823   15.5941 H   0  0  0  0  0  0  0  0  0  0  0  0
    1.7291    5.7404   13.6196 C   0  0  0  0  0  0  0  0  0  0  0  0
    0.9802    5.0175   12.5386 C   0  0  0  0  0  0  0  0  0  0  0  0
   -0.1663    4.6889   12.7385 O   0  0  0  0  0  0  0  0  0  0  0  0
    2.9666    6.4012   13.0962 C   0  0  0  0  0  0  0  0  0  0  0  0
    3.0015    6.5428   11.6077 C   0  0  0  0  0  0  0  0  0  0  0  0
    4.4254    6.2903   11.1230 C   0  0  0  0  0  0  0  0  0  0  0  0
    5.4152    6.8760   11.9682 N   0  0  0  0  0  0  0  0  0  0  0  0
    5.3551    6.6873   13.0054 H   0  0  0  0  0  0  0  0  0  0  0  0
    6.4560    7.6754   11.4638 C   0  0  0  0  0  0  0  0  0  0  0  0
    6.1660    8.6210   10.4277 N   0  0  0  0  0  0  0  0  0  0  0  0
    7.6499    7.5763   11.8924 N   0  0  0  0  0  0  0  0  0  0  0  0
    6.1221    9.6528   10.6560 H   0  0  0  0  0  0  0  0  0  0  0  0
    5.9830    8.3421    9.4451 H   0  0  0  0  0  0  0  0  0  0  0  0
    7.9586    6.8991   12.6437 H   0  0  0  0  0  0  0  0  0  0  0  0
    4.8128    3.9942   18.7275 C   0  0  0  0  0  0  0  0  0  0  0  0
    5.4822    5.3799   18.8189 C   0  0  0  0  0  0  0  0  0  0  0  0
    5.2684    6.2228   19.8486 C   0  0  0  0  0  0  0  0  0  0  0  0
    5.8499    7.4816   19.8843 C   0  0  0  0  0  0  0  0  0  0  0  0
    6.6555    7.8447   18.8280 C   0  0  0  0  0  0  0  0  0  0  0  0
    6.8926    7.0038   17.7627 C   0  0  0  0  0  0  0  0  0  0  0  0
    6.2886    5.7552   17.7700 C   0  0  0  0  0  0  0  0  0  0  0  0
    4.5532    2.7023   20.7614 C   0  0  0  0  0  0  0  0  0  0  0  0
    5.4188    1.9507   20.2241 O   0  0  0  0  0  0  0  0  0  0  0  0
    4.1442    3.8685   20.0319 N   0  0  0  0  0  0  0  0  0  0  0  0
    3.4640    4.5482   20.3291 H   0  0  0  0  0  0  0  0  0  0  0  0
    4.0966    2.2967   21.9858 O   0  0  0  0  0  0  0  0  0  0  0  0
    6.0124    3.4210   22.8898 C   0  0  0  0  0  0  0  0  0  0  0  0
    4.6562    2.8893   23.1461 C   0  0  0  0  0  0  0  0  0  0  0  0
    4.7573    1.8612   24.2641 C   0  0  0  0  0  0  0  0  0  0  0  0
    3.6972    3.9599   23.6145 C   0  0  0  0  0  0  0  0  0  0  0  0
 38 39  1  0  0  0
 39 40  1  0  0  0
 39 41  1  0  0  0
 39 37  1  0  0  0
 37 33  1  0  0  0
 33 34  2  0  0  0
 33 35  1  0  0  0
 35 26  1  0  0  0
 26  1  1  0  0  0
  1  2  2  0  0  0
  1  3  1  0  0  0
  3  4  1  0  0  0
  4  5  1  0  0  0
  5  6  1  0  0  0
  6  7  1  0  0  0
  7  8  1  0  0  0
  8  9  2  0  0  0
  8 10  1  0  0  0
 10 12  1  0  0  0
 12 15  1  0  0  0
 15 16  1  0  0  0
 16 17  1  0  0  0
 17 18  1  0  0  0
 18 20  1  0  0  0
 20 21  1  0  0  0
 20 22  2  0  0  0
 12 13  1  0  0  0
 13 14  2  0  0  0
 26 27  1  0  0  0
 27 28  2  0  0  0
 28 29  1  0  0  0
 29 30  2  0  0  0
 30 31  1  0  0  0
 31 32  2  0  0  0
  7  3  1  0  0  0
 32 27  1  0  0  0
 35 36  1  0  0  0
 10 11  1  0  0  0
 18 19  1  0  0  0
 21 23  1  0  0  0
 21 24  1  0  0  0
 22 25  1  0  0  0
M  END
> <minimizedAffinity>
-6.99911

> <CNNscore>
0.4418882430

> <CNNaffinity>
6.2063112259

> <CNN_VS>
2.7424960136

> <CNNaffinity_variance>
0.2492549717

$$$$
[H]N=C(N([H])[H])N([H])C([H])([H])C([H])([H])C([H])([H])[C@@]([H])(C([H])=O)N([H])C(=O)[C@@]1([H])N(C(=O)[C@@]([H])(c2c([H])c([H])c([H])c([H])c2[H])N([H])C(=O)OC(C([H])([H])[H])(C([H])([H])[H])C([H])([H])[H])C([H])([H])C([H])([H])C1([H])[H]


 41 42  0  0  0  0  0  0  0  0999 V2000
    6.2104    6.6379   20.9177 C   0  0  0  0  0  0  0  0  0  0  0  0
    6.8356    5.9585   20.0184 O   0  0  0  0  0  0  0  0  0  0  0  0
    5.4142    7.7138   20.5320 N   0  0  0  0  0  0  0  0  0  0  0  0
    4.9819    8.7734   21.5073 C   0  0  0  0  0  0  0  0  0  0  0  0
    5.1429   10.0850   20.6765 C   0  0  0  0  0  0  0  0  0  0  0  0
    5.5900    9.5103   19.2977 C   0  0  0  0  0  0  0  0  0  0  0  0
    4.7918    8.2345   19.3572 C   0  0  0  0  0  0  0  0  0  0  0  0
    4.3659    7.5232   18.2276 C   0  0  0  0  0  0  0  0  0  0  0  0
    4.0942    8.0825   17.1410 O   0  0  0  0  0  0  0  0  0  0  0  0
    4.2549    6.1128   18.3004 N   0  0  0  0  0  0  0  0  0  0  0  0
    4.4269    5.6645   19.2493 H   0  0  0  0  0  0  0  0  0  0  0  0
    3.9245    5.2178   17.2040 C   0  0  0  0  0  0  0  0  0  0  0  0
    2.4549    4.9282   17.2954 C   0  0  0  0  0  0  0  0  0  0  0  0
    1.9645    4.1352   16.5254 O   0  0  0  0  0  0  0  0  0  0  0  0
    4.7483    3.9745   17.3361 C   0  0  0  0  0  0  0  0  0  0  0  0
    4.6464    3.3124   18.6733 C   0  0  0  0  0  0  0  0  0  0  0  0
    4.2231    1.8610   18.4725 C   0  0  0  0  0  0  0  0  0  0  0  0
    3.9080    1.5539   17.1147 N   0  0  0  0  0  0  0  0  0  0  0  0
    4.5441    1.9315   16.3612 H   0  0  0  0  0  0  0  0  0  0  0  0
    2.7977    0.7672   16.7606 C   0  0  0  0  0  0  0  0  0  0  0  0
    1.9790    1.1769   15.6590 N   0  0  0  0  0  0  0  0  0  0  0  0
    2.4920   -0.2916   17.3965 N   0  0  0  0  0  0  0  0  0  0  0  0
    2.0407    0.6600   14.7383 H   0  0  0  0  0  0  0  0  0  0  0  0
    1.3207    1.9773   15.7128 H   0  0  0  0  0  0  0  0  0  0  0  0
    3.0292   -0.6627   18.2283 H   0  0  0  0  0  0  0  0  0  0  0  0
    6.4011    6.2198   22.2927 C   0  0  0  0  0  0  0  0  0  0  0  0
    5.6072    4.9199   22.5305 C   0  0  0  0  0  0  0  0  0  0  0  0
    4.3103    4.9182   22.8971 C   0  0  0  0  0  0  0  0  0  0  0  0
    3.6316    3.7346   23.1465 C   0  0  0  0  0  0  0  0  0  0  0  0
    4.3294    2.5553   23.0081 C   0  0  0  0  0  0  0  0  0  0  0  0
    5.6552    2.5264   22.6341 C   0  0  0  0  0  0  0  0  0  0  0  0
    6.2925    3.7351   22.3964 C   0  0  0  0  0  0  0  0  0  0  0  0
    8.5247    6.7849   23.3144 C   0  0  0  0  0  0  0  0  0  0  0  0
    7.9164    7.8415   23.6554 O   0  0  0  0  0  0  0  0  0  0  0  0
    7.7876    5.8092   22.5632 N   0  0  0  0  0  0  0  0  0  0  0  0
    8.1406    4.9313   22.2200 H   0  0  0  0  0  0  0  0  0  0  0  0
    9.8357    6.7075   23.6986 O   0  0  0  0  0  0  0  0  0  0  0  0
   10.4418    7.5853   21.5507 C   0  0  0  0  0  0  0  0  0  0  0  0
   10.8369    6.7354   22.6950 C   0  0  0  0  0  0  0  0  0  0  0  0
   11.0941    5.3297   22.1705 C   0  0  0  0  0  0  0  0  0  0  0  0
   12.1174    7.2060   23.3464 C   0  0  0  0  0  0  0  0  0  0  0  0
 38 39  1  0  0  0
 39 40  1  0  0  0
 39 41  1  0  0  0
 39 37  1  0  0  0
 37 33  1  0  0  0
 33 34  2  0  0  0
 33 35  1  0  0  0
 35 26  1  0  0  0
 26  1  1  0  0  0
  1  2  2  0  0  0
  1  3  1  0  0  0
  3  4  1  0  0  0
  4  5  1  0  0  0
  5  6  1  0  0  0
  6  7  1  0  0  0
  7  8  1  0  0  0
  8  9  2  0  0  0
  8 10  1  0  0  0
 10 12  1  0  0  0
 12 15  1  0  0  0
 15 16  1  0  0  0
 16 17  1  0  0  0
 17 18  1  0  0  0
 18 20  1  0  0  0
 20 21  1  0  0  0
 20 22  2  0  0  0
 12 13  1  0  0  0
 13 14  2  0  0  0
 26 27  1  0  0  0
 27 28  2  0  0  0
 28 29  1  0  0  0
 29 30  2  0  0  0
 30 31  1  0  0  0
 31 32  2  0  0  0
  7  3  1  0  0  0
 32 27  1  0  0  0
 35 36  1  0  0  0
 10 11  1  0  0  0
 18 19  1  0  0  0
 21 23  1  0  0  0
 21 24  1  0  0  0
 22 25  1  0  0  0
M  END
> <minimizedAffinity>
-7.96198

> <CNNscore>
0.3899744749

> <CNNaffinity>
6.6042823792

> <CNN_VS>
2.5755014420

> <CNNaffinity_variance>
0.3838503361

$$$$
[H]N=C(N([H])[H])N([H])C([H])([H])C([H])([H])C([H])([H])[C@@]([H])(C([H])=O)N([H])C(=O)[C@@]1([H])N(C(=O)[C@@]([H])(c2c([H])c([H])c([H])c([H])c2[H])N([H])C(=O)OC(C([H])([H])[H])(C([H])([H])[H])C([H])([H])[H])C([H])([H])C([H])([H])C1([H])[H]


 41 42  0  0  0  0  0  0  0  0999 V2000
    3.7714    4.0981   17.8644 C   0  0  0  0  0  0  0  0  0  0  0  0
    2.9783    5.1045   18.0044 O   0  0  0  0  0  0  0  0  0  0  0  0
    3.6295    3.2641   16.7577 N   0  0  0  0  0  0  0  0  0  0  0  0
    4.2272    1.8849   16.7193 C   0  0  0  0  0  0  0  0  0  0  0  0
    3.0958    1.0436   16.0495 C   0  0  0  0  0  0  0  0  0  0  0  0
    2.0397    2.1509   15.7501 C   0  0  0  0  0  0  0  0  0  0  0  0
    3.0111    3.2675   15.4708 C   0  0  0  0  0  0  0  0  0  0  0  0
    2.7203    4.3757   14.6642 C   0  0  0  0  0  0  0  0  0  0  0  0
    1.6209    4.5167   14.0822 O   0  0  0  0  0  0  0  0  0  0  0  0
    3.6939    5.3933   14.5108 N   0  0  0  0  0  0  0  0  0  0  0  0
    4.6430    5.2234   14.9595 H   0  0  0  0  0  0  0  0  0  0  0  0
    3.5232    6.6471   13.7958 C   0  0  0  0  0  0  0  0  0  0  0  0
    4.0974    6.4561   12.4226 C   0  0  0  0  0  0  0  0  0  0  0  0
    3.7988    7.2365   11.5484 O   0  0  0  0  0  0  0  0  0  0  0  0
    4.2300    7.7293   14.5516 C   0  0  0  0  0  0  0  0  0  0  0  0
    4.0910    7.6288   16.0373 C   0  0  0  0  0  0  0  0  0  0  0  0
    4.1770    9.0292   16.6351 C   0  0  0  0  0  0  0  0  0  0  0  0
    3.1379    9.8955   16.1802 N   0  0  0  0  0  0  0  0  0  0  0  0
    2.1391    9.6205   16.3844 H   0  0  0  0  0  0  0  0  0  0  0  0
    3.4049   11.0898   15.4879 C   0  0  0  0  0  0  0  0  0  0  0  0
    2.3072   11.8998   15.0510 N   0  0  0  0  0  0  0  0  0  0  0  0
    4.5920   11.4670   15.2282 N   0  0  0  0  0  0  0  0  0  0  0  0
    2.0843   12.8002   15.5592 H   0  0  0  0  0  0  0  0  0  0  0  0
    1.6989   11.6409   14.2511 H   0  0  0  0  0  0  0  0  0  0  0  0
    5.4607   10.9285   15.4993 H   0  0  0  0  0  0  0  0  0  0  0  0
    4.7648    3.9083   18.9030 C   0  0  0  0  0  0  0  0  0  0  0  0
    5.6079    5.1933   19.0236 C   0  0  0  0  0  0  0  0  0  0  0  0
    6.3757    5.6549   18.0167 C   0  0  0  0  0  0  0  0  0  0  0  0
    7.1581    6.7903   18.1669 C   0  0  0  0  0  0  0  0  0  0  0  0
    7.1260    7.4332   19.3844 C   0  0  0  0  0  0  0  0  0  0  0  0
    6.3503    6.9849   20.4311 C   0  0  0  0  0  0  0  0  0  0  0  0
    5.5855    5.8446   20.2347 C   0  0  0  0  0  0  0  0  0  0  0  0
    4.3637    2.4993   20.8335 C   0  0  0  0  0  0  0  0  0  0  0  0
    5.0271    1.6486   20.1709 O   0  0  0  0  0  0  0  0  0  0  0  0
    4.1592    3.7891   20.2384 N   0  0  0  0  0  0  0  0  0  0  0  0
    3.6489    4.5568   20.6424 H   0  0  0  0  0  0  0  0  0  0  0  0
    3.9042    2.0732   22.0498 O   0  0  0  0  0  0  0  0  0  0  0  0
    3.7450    3.8398   23.6638 C   0  0  0  0  0  0  0  0  0  0  0  0
    4.4749    2.6318   23.2214 C   0  0  0  0  0  0  0  0  0  0  0  0
    5.9229    3.0246   22.9643 C   0  0  0  0  0  0  0  0  0  0  0  0
    4.4904    1.5498   24.2771 C   0  0  0  0  0  0  0  0  0  0  0  0
 38 39  1  0  0  0
 39 40  1  0  0  0
 39 41  1  0  0  0
 39 37  1  0  0  0
 37 33  1  0  0  0
 33 34  2  0  0  0
 33 35  1  0  0  0
 35 26  1  0  0  0
 26  1  1  0  0  0
  1  2  2  0  0  0
  1  3  1  0  0  0
  3  4  1  0  0  0
  4  5  1  0  0  0
  5  6  1  0  0  0
  6  7  1  0  0  0
  7  8  1  0  0  0
  8  9  2  0  0  0
  8 10  1  0  0  0
 10 12  1  0  0  0
 12 15  1  0  0  0
 15 16  1  0  0  0
 16 17  1  0  0  0
 17 18  1  0  0  0
 18 20  1  0  0  0
 20 21  1  0  0  0
 20 22  2  0  0  0
 12 13  1  0  0  0
 13 14  2  0  0  0
 26 27  1  0  0  0
 27 28  2  0  0  0
 28 29  1  0  0  0
 29 30  2  0  0  0
 30 31  1  0  0  0
 31 32  2  0  0  0
  7  3  1  0  0  0
 32 27  1  0  0  0
 35 36  1  0  0  0
 10 11  1  0  0  0
 18 19  1  0  0  0
 21 23  1  0  0  0
 21 24  1  0  0  0
 22 25  1  0  0  0
M  END
> <minimizedAffinity>
-7.17690

> <CNNscore>
0.3463549316

> <CNNaffinity>
6.1983222961

> <CNN_VS>
2.1468195915

> <CNNaffinity_variance>
0.1400569379

$$$$
[H]N=C(N([H])[H])N([H])C([H])([H])C([H])([H])C([H])([H])[C@@]([H])(C([H])=O)N([H])C(=O)[C@@]1([H])N(C(=O)[C@@]([H])(c2c([H])c([H])c([H])c([H])c2[H])N([H])C(=O)OC(C([H])([H])[H])(C([H])([H])[H])C([H])([H])[H])C([H])([H])C([H])([H])C1([H])[H]


 41 42  0  0  0  0  0  0  0  0999 V2000
    3.2332    4.9478   18.0624 C   0  0  0  0  0  0  0  0  0  0  0  0
    1.9947    5.0538   17.7215 O   0  0  0  0  0  0  0  0  0  0  0  0
    3.9161    3.7625   17.7996 N   0  0  0  0  0  0  0  0  0  0  0  0
    5.2022    3.4143   18.4963 C   0  0  0  0  0  0  0  0  0  0  0  0
    5.0245    1.8926   18.7957 C   0  0  0  0  0  0  0  0  0  0  0  0
    3.6427    1.6179   18.1277 C   0  0  0  0  0  0  0  0  0  0  0  0
    3.7859    2.5939   16.9896 C   0  0  0  0  0  0  0  0  0  0  0  0
    3.1174    2.4723   15.7642 C   0  0  0  0  0  0  0  0  0  0  0  0
    2.5953    1.3998   15.3840 O   0  0  0  0  0  0  0  0  0  0  0  0
    3.0034    3.6069   14.9236 N   0  0  0  0  0  0  0  0  0  0  0  0
    3.5091    4.4893   15.2345 H   0  0  0  0  0  0  0  0  0  0  0  0
    2.2650    3.6816   13.6741 C   0  0  0  0  0  0  0  0  0  0  0  0
    3.2742    3.7163   12.5640 C   0  0  0  0  0  0  0  0  0  0  0  0
    4.3906    4.1176   12.7988 O   0  0  0  0  0  0  0  0  0  0  0  0
    1.4136    4.9131   13.6940 C   0  0  0  0  0  0  0  0  0  0  0  0
    1.9599    6.0209   14.5373 C   0  0  0  0  0  0  0  0  0  0  0  0
    2.3218    7.1947   13.6333 C   0  0  0  0  0  0  0  0  0  0  0  0
    2.0243    8.4623   14.2178 N   0  0  0  0  0  0  0  0  0  0  0  0
    1.0121    8.6941   14.4091 H   0  0  0  0  0  0  0  0  0  0  0  0
    3.0270    9.3905   14.5492 C   0  0  0  0  0  0  0  0  0  0  0  0
    4.1136    9.5942   13.6383 N   0  0  0  0  0  0  0  0  0  0  0  0
    3.0040   10.0467   15.6391 N   0  0  0  0  0  0  0  0  0  0  0  0
    4.1519   10.4762   13.0559 H   0  0  0  0  0  0  0  0  0  0  0  0
    4.8775    8.9040   13.5086 H   0  0  0  0  0  0  0  0  0  0  0  0
    2.2507    9.9525   16.3751 H   0  0  0  0  0  0  0  0  0  0  0  0
    3.8243    6.0984   18.7168 C   0  0  0  0  0  0  0  0  0  0  0  0
    4.3925    5.6561   20.0799 C   0  0  0  0  0  0  0  0  0  0  0  0
    5.7028    5.7441   20.3832 C   0  0  0  0  0  0  0  0  0  0  0  0
    6.1937    5.2987   21.6016 C   0  0  0  0  0  0  0  0  0  0  0  0
    5.2950    4.7599   22.4953 C   0  0  0  0  0  0  0  0  0  0  0  0
    3.9503    4.6579   22.2129 C   0  0  0  0  0  0  0  0  0  0  0  0
    3.5058    5.1154   20.9813 C   0  0  0  0  0  0  0  0  0  0  0  0
    4.9015    7.9599   17.5998 C   0  0  0  0  0  0  0  0  0  0  0  0
    3.8311    8.5690   17.8929 O   0  0  0  0  0  0  0  0  0  0  0  0
    5.0175    6.5895   18.0100 N   0  0  0  0  0  0  0  0  0  0  0  0
    5.8020    5.9821   17.8412 H   0  0  0  0  0  0  0  0  0  0  0  0
    5.8261    8.6908   16.9048 O   0  0  0  0  0  0  0  0  0  0  0  0
    6.9760    8.9951   18.9873 C   0  0  0  0  0  0  0  0  0  0  0  0
    6.7133    9.5247   17.6314 C   0  0  0  0  0  0  0  0  0  0  0  0
    6.1217   10.9196   17.7775 C   0  0  0  0  0  0  0  0  0  0  0  0
    7.9766    9.6631   16.8127 C   0  0  0  0  0  0  0  0  0  0  0  0
 38 39  1  0  0  0
 39 40  1  0  0  0
 39 41  1  0  0  0
 39 37  1  0  0  0
 37 33  1  0  0  0
 33 34  2  0  0  0
 33 35  1  0  0  0
 35 26  1  0  0  0
 26  1  1  0  0  0
  1  2  2  0  0  0
  1  3  1  0  0  0
  3  4  1  0  0  0
  4  5  1  0  0  0
  5  6  1  0  0  0
  6  7  1  0  0  0
  7  8  1  0  0  0
  8  9  2  0  0  0
  8 10  1  0  0  0
 10 12  1  0  0  0
 12 15  1  0  0  0
 15 16  1  0  0  0
 16 17  1  0  0  0
 17 18  1  0  0  0
 18 20  1  0  0  0
 20 21  1  0  0  0
 20 22  2  0  0  0
 12 13  1  0  0  0
 13 14  2  0  0  0
 26 27  1  0  0  0
 27 28  2  0  0  0
 28 29  1  0  0  0
 29 30  2  0  0  0
 30 31  1  0  0  0
 31 32  2  0  0  0
  7  3  1  0  0  0
 32 27  1  0  0  0
 35 36  1  0  0  0
 10 11  1  0  0  0
 18 19  1  0  0  0
 21 23  1  0  0  0
 21 24  1  0  0  0
 22 25  1  0  0  0
M  END
> <minimizedAffinity>
-6.74739

> <CNNscore>
0.3055995405

> <CNNaffinity>
5.9196557999

> <CNN_VS>
1.8090441227

> <CNNaffinity_variance>
0.3876404464

$$$$
[H]N=C(N([H])[H])N([H])C([H])([H])C([H])([H])C([H])([H])[C@@]([H])(C([H])=O)N([H])C(=O)[C@@]1([H])N(C(=O)[C@@]([H])(c2c([H])c([H])c([H])c([H])c2[H])N([H])C(=O)OC(C([H])([H])[H])(C([H])([H])[H])C([H])([H])[H])C([H])([H])C([H])([H])C1([H])[H]


 41 42  0  0  0  0  0  0  0  0999 V2000
    3.8936    4.7895   17.1837 C   0  0  0  0  0  0  0  0  0  0  0  0
    3.2665    5.7983   17.6840 O   0  0  0  0  0  0  0  0  0  0  0  0
    3.7184    4.4737   15.8383 N   0  0  0  0  0  0  0  0  0  0  0  0
    4.0833    3.1245   15.2840 C   0  0  0  0  0  0  0  0  0  0  0  0
    2.8952    2.8221   14.3179 C   0  0  0  0  0  0  0  0  0  0  0  0
    2.0661    4.1364   14.4462 C   0  0  0  0  0  0  0  0  0  0  0  0
    3.2283    5.0746   14.6394 C   0  0  0  0  0  0  0  0  0  0  0  0
    3.1972    6.4376   14.3163 C   0  0  0  0  0  0  0  0  0  0  0  0
    2.1286    7.0803   14.2044 O   0  0  0  0  0  0  0  0  0  0  0  0
    4.4179    7.1310   14.1271 N   0  0  0  0  0  0  0  0  0  0  0  0
    5.3103    6.5535   14.1621 H   0  0  0  0  0  0  0  0  0  0  0  0
    4.5699    8.5561   13.8855 C   0  0  0  0  0  0  0  0  0  0  0  0
    5.7380    8.7268   12.9592 C   0  0  0  0  0  0  0  0  0  0  0  0
    6.5058    9.6423   13.1461 O   0  0  0  0  0  0  0  0  0  0  0  0
    4.7918    9.2430   15.1973 C   0  0  0  0  0  0  0  0  0  0  0  0
    3.8740   10.3974   15.4463 C   0  0  0  0  0  0  0  0  0  0  0  0
    3.4105   10.3527   16.8986 C   0  0  0  0  0  0  0  0  0  0  0  0
    3.6044    9.0766   17.5078 N   0  0  0  0  0  0  0  0  0  0  0  0
    3.5137    8.2185   16.8992 H   0  0  0  0  0  0  0  0  0  0  0  0
    3.9173    8.9349   18.8712 C   0  0  0  0  0  0  0  0  0  0  0  0
    4.7249    9.9332   19.5060 N   0  0  0  0  0  0  0  0  0  0  0  0
    3.5139    7.9407   19.5552 N   0  0  0  0  0  0  0  0  0  0  0  0
    4.2783   10.6269   20.1677 H   0  0  0  0  0  0  0  0  0  0  0  0
    5.7457   10.0211   19.3412 H   0  0  0  0  0  0  0  0  0  0  0  0
    2.9260    7.1513   19.1687 H   0  0  0  0  0  0  0  0  0  0  0  0
    4.7441    4.0428   18.0896 C   0  0  0  0  0  0  0  0  0  0  0  0
    5.6360    5.0343   18.8631 C   0  0  0  0  0  0  0  0  0  0  0  0
    5.6348    5.1142   20.2085 C   0  0  0  0  0  0  0  0  0  0  0  0
    6.4155    6.0453   20.8774 C   0  0  0  0  0  0  0  0  0  0  0  0
    7.1947    6.8904   20.1189 C   0  0  0  0  0  0  0  0  0  0  0  0
    7.2165    6.8312   18.7425 C   0  0  0  0  0  0  0  0  0  0  0  0
    6.4183    5.8846   18.1175 C   0  0  0  0  0  0  0  0  0  0  0  0
    3.9763    1.9575   19.0563 C   0  0  0  0  0  0  0  0  0  0  0  0
    4.6202    1.4414   18.0962 O   0  0  0  0  0  0  0  0  0  0  0  0
    3.9779    3.3887   19.1617 N   0  0  0  0  0  0  0  0  0  0  0  0
    3.5066    3.9343   19.8640 H   0  0  0  0  0  0  0  0  0  0  0  0
    3.3362    1.0734   19.8815 O   0  0  0  0  0  0  0  0  0  0  0  0
    3.5060    1.5193   22.2318 C   0  0  0  0  0  0  0  0  0  0  0  0
    3.9710    0.6984   21.0927 C   0  0  0  0  0  0  0  0  0  0  0  0
    5.4784    0.8725   20.9715 C   0  0  0  0  0  0  0  0  0  0  0  0
    3.7111   -0.7761   21.3019 C   0  0  0  0  0  0  0  0  0  0  0  0
 38 39  1  0  0  0
 39 40  1  0  0  0
 39 41  1  0  0  0
 39 37  1  0  0  0
 37 33  1  0  0  0
 33 34  2  0  0  0
 33 35  1  0  0  0
 35 26  1  0  0  0
 26  1  1  0  0  0
  1  2  2  0  0  0
  1  3  1  0  0  0
  3  4  1  0  0  0
  4  5  1  0  0  0
  5  6  1  0  0  0
  6  7  1  0  0  0
  7  8  1  0  0  0
  8  9  2  0  0  0
  8 10  1  0  0  0
 10 12  1  0  0  0
 12 15  1  0  0  0
 15 16  1  0  0  0
 16 17  1  0  0  0
 17 18  1  0  0  0
 18 20  1  0  0  0
 20 21  1  0  0  0
 20 22  2  0  0  0
 12 13  1  0  0  0
 13 14  2  0  0  0
 26 27  1  0  0  0
 27 28  2  0  0  0
 28 29  1  0  0  0
 29 30  2  0  0  0
 30 31  1  0  0  0
 31 32  2  0  0  0
  7  3  1  0  0  0
 32 27  1  0  0  0
 35 36  1  0  0  0
 10 11  1  0  0  0
 18 19  1  0  0  0
 21 23  1  0  0  0
 21 24  1  0  0  0
 22 25  1  0  0  0
M  END
> <minimizedAffinity>
-7.46698

> <CNNscore>
0.2701888382

> <CNNaffinity>
6.1104516983

> <CNN_VS>
1.6509758234

> <CNNaffinity_variance>
0.2207068205

$$$$
[H]N=C(N([H])[H])N([H])C([H])([H])C([H])([H])C([H])([H])[C@@]([H])(C([H])=O)N([H])C(=O)[C@@]1([H])N(C(=O)[C@@]([H])(c2c([H])c([H])c([H])c([H])c2[H])N([H])C(=O)OC(C([H])([H])[H])(C([H])([H])[H])C([H])([H])[H])C([H])([H])C([H])([H])C1([H])[H]


 41 42  0  0  0  0  0  0  0  0999 V2000
    3.7113    3.4627   17.7480 C   0  0  0  0  0  0  0  0  0  0  0  0
    2.9209    4.4695   17.5975 O   0  0  0  0  0  0  0  0  0  0  0  0
    3.5302    2.3272   16.9617 N   0  0  0  0  0  0  0  0  0  0  0  0
    4.1305    0.9993   17.3320 C   0  0  0  0  0  0  0  0  0  0  0  0
    2.9772    0.0012   16.9997 C   0  0  0  0  0  0  0  0  0  0  0  0
    1.9069    0.9697   16.4102 C   0  0  0  0  0  0  0  0  0  0  0  0
    2.8632    1.9357   15.7616 C   0  0  0  0  0  0  0  0  0  0  0  0
    2.5382    2.7406   14.6617 C   0  0  0  0  0  0  0  0  0  0  0  0
    1.6502    2.4286   13.8362 O   0  0  0  0  0  0  0  0  0  0  0  0
    3.2206    3.9684   14.4783 N   0  0  0  0  0  0  0  0  0  0  0  0
    4.0148    4.1834   15.1522 H   0  0  0  0  0  0  0  0  0  0  0  0
    2.9435    4.9627   13.4551 C   0  0  0  0  0  0  0  0  0  0  0  0
    3.9984    4.8169   12.3979 C   0  0  0  0  0  0  0  0  0  0  0  0
    3.6914    4.9694   11.2381 O   0  0  0  0  0  0  0  0  0  0  0  0
    2.9693    6.3199   14.0869 C   0  0  0  0  0  0  0  0  0  0  0  0
    1.9042    7.2456   13.5915 C   0  0  0  0  0  0  0  0  0  0  0  0
    2.5659    8.4926   13.0143 C   0  0  0  0  0  0  0  0  0  0  0  0
    3.5509    8.1952   12.0250 N   0  0  0  0  0  0  0  0  0  0  0  0
    4.5358    7.9980   12.3506 H   0  0  0  0  0  0  0  0  0  0  0  0
    3.2474    8.1488   10.6530 C   0  0  0  0  0  0  0  0  0  0  0  0
    1.9502    8.5684   10.2138 N   0  0  0  0  0  0  0  0  0  0  0  0
    4.0867    7.7346    9.7910 N   0  0  0  0  0  0  0  0  0  0  0  0
    1.8376    9.4986    9.7233 H   0  0  0  0  0  0  0  0  0  0  0  0
    1.0939    8.0014   10.3625 H   0  0  0  0  0  0  0  0  0  0  0  0
    5.0603    7.3939   10.0237 H   0  0  0  0  0  0  0  0  0  0  0  0
    4.7442    3.5966   18.7564 C   0  0  0  0  0  0  0  0  0  0  0  0
    5.3586    5.0067   18.6528 C   0  0  0  0  0  0  0  0  0  0  0  0
    5.4426    5.8412   19.7078 C   0  0  0  0  0  0  0  0  0  0  0  0
    5.9609    7.1210   19.5769 C   0  0  0  0  0  0  0  0  0  0  0  0
    6.3879    7.5140   18.3280 C   0  0  0  0  0  0  0  0  0  0  0  0
    6.3150    6.6824   17.2319 C   0  0  0  0  0  0  0  0  0  0  0  0
    5.7882    5.4119   17.4108 C   0  0  0  0  0  0  0  0  0  0  0  0
    4.6167    2.4361   20.8801 C   0  0  0  0  0  0  0  0  0  0  0  0
    5.3917    1.6113   20.3127 O   0  0  0  0  0  0  0  0  0  0  0  0
    4.1959    3.5793   20.1215 N   0  0  0  0  0  0  0  0  0  0  0  0
    3.5793    4.3093   20.4377 H   0  0  0  0  0  0  0  0  0  0  0  0
    4.2587    2.1242   22.1633 O   0  0  0  0  0  0  0  0  0  0  0  0
    6.1152    3.4879   22.8307 C   0  0  0  0  0  0  0  0  0  0  0  0
    4.8301    2.8708   23.2248 C   0  0  0  0  0  0  0  0  0  0  0  0
    5.0895    1.9673   24.4221 C   0  0  0  0  0  0  0  0  0  0  0  0
    3.8076    3.8967   23.6577 C   0  0  0  0  0  0  0  0  0  0  0  0
 38 39  1  0  0  0
 39 40  1  0  0  0
 39 41  1  0  0  0
 39 37  1  0  0  0
 37 33  1  0  0  0
 33 34  2  0  0  0
 33 35  1  0  0  0
 35 26  1  0  0  0
 26  1  1  0  0  0
  1  2  2  0  0  0
  1  3  1  0  0  0
  3  4  1  0  0  0
  4  5  1  0  0  0
  5  6  1  0  0  0
  6  7  1  0  0  0
  7  8  1  0  0  0
  8  9  2  0  0  0
  8 10  1  0  0  0
 10 12  1  0  0  0
 12 15  1  0  0  0
 15 16  1  0  0  0
 16 17  1  0  0  0
 17 18  1  0  0  0
 18 20  1  0  0  0
 20 21  1  0  0  0
 20 22  2  0  0  0
 12 13  1  0  0  0
 13 14  2  0  0  0
 26 27  1  0  0  0
 27 28  2  0  0  0
 28 29  1  0  0  0
 29 30  2  0  0  0
 30 31  1  0  0  0
 31 32  2  0  0  0
  7  3  1  0  0  0
 32 27  1  0  0  0
 35 36  1  0  0  0
 10 11  1  0  0  0
 18 19  1  0  0  0
 21 23  1  0  0  0
 21 24  1  0  0  0
 22 25  1  0  0  0
M  END
> <minimizedAffinity>
-6.66022

> <CNNscore>
0.2696284354

> <CNNaffinity>
6.0613999367

> <CNN_VS>
1.6343257427

> <CNNaffinity_variance>
0.2059782445

$$$$
[H]N=C(N([H])[H])N([H])C([H])([H])C([H])([H])C([H])([H])[C@@]([H])(C([H])=O)N([H])C(=O)[C@@]1([H])N(C(=O)[C@@]([H])(c2c([H])c([H])c([H])c([H])c2[H])N([H])C(=O)OC(C([H])([H])[H])(C([H])([H])[H])C([H])([H])[H])C([H])([H])C([H])([H])C1([H])[H]


 41 42  0  0  0  0  0  0  0  0999 V2000
    2.0875    4.9545   14.1985 C   0  0  0  0  0  0  0  0  0  0  0  0
    2.7827    5.6320   15.0465 O   0  0  0  0  0  0  0  0  0  0  0  0
    1.0946    5.5952   13.4607 N   0  0  0  0  0  0  0  0  0  0  0  0
    0.0032    4.8308   12.7641 C   0  0  0  0  0  0  0  0  0  0  0  0
   -1.2579    5.7060   13.0477 C   0  0  0  0  0  0  0  0  0  0  0  0
   -0.6232    6.8975   13.8279 C   0  0  0  0  0  0  0  0  0  0  0  0
    0.6956    6.9180   13.1009 C   0  0  0  0  0  0  0  0  0  0  0  0
    1.5072    8.0540   12.9820 C   0  0  0  0  0  0  0  0  0  0  0  0
    1.5591    8.7396   11.9358 O   0  0  0  0  0  0  0  0  0  0  0  0
    2.2884    8.4643   14.0903 N   0  0  0  0  0  0  0  0  0  0  0  0
    2.2801    7.8324   14.9457 H   0  0  0  0  0  0  0  0  0  0  0  0
    3.1044    9.6642   14.1711 C   0  0  0  0  0  0  0  0  0  0  0  0
    4.4960    9.2827   13.7592 C   0  0  0  0  0  0  0  0  0  0  0  0
    4.8634    8.1419   13.9205 O   0  0  0  0  0  0  0  0  0  0  0  0
    3.0590   10.1803   15.5759 C   0  0  0  0  0  0  0  0  0  0  0  0
    4.3752   10.6701   16.0905 C   0  0  0  0  0  0  0  0  0  0  0  0
    4.7502    9.8630   17.3290 C   0  0  0  0  0  0  0  0  0  0  0  0
    3.7370    8.9368   17.7200 N   0  0  0  0  0  0  0  0  0  0  0  0
    3.0145    8.6607   17.0012 H   0  0  0  0  0  0  0  0  0  0  0  0
    3.6824    8.3844   19.0117 C   0  0  0  0  0  0  0  0  0  0  0  0
    4.1069    9.1787   20.1256 N   0  0  0  0  0  0  0  0  0  0  0  0
    3.2777    7.1961   19.2197 N   0  0  0  0  0  0  0  0  0  0  0  0
    3.3869    9.5871   20.7838 H   0  0  0  0  0  0  0  0  0  0  0  0
    5.1043    9.3882   20.3210 H   0  0  0  0  0  0  0  0  0  0  0  0
    2.9582    6.5342   18.4594 H   0  0  0  0  0  0  0  0  0  0  0  0
    2.3994    3.5431   14.0876 C   0  0  0  0  0  0  0  0  0  0  0  0
    2.9592    3.2682   12.6777 C   0  0  0  0  0  0  0  0  0  0  0  0
    3.8457    4.0861   12.0766 C   0  0  0  0  0  0  0  0  0  0  0  0
    4.3004    3.8378   10.7899 C   0  0  0  0  0  0  0  0  0  0  0  0
    3.8133    2.7239   10.1428 C   0  0  0  0  0  0  0  0  0  0  0  0
    2.9072    1.8699   10.7325 C   0  0  0  0  0  0  0  0  0  0  0  0
    2.4803    2.1594   12.0200 C   0  0  0  0  0  0  0  0  0  0  0  0
    3.0879    2.3846   16.1017 C   0  0  0  0  0  0  0  0  0  0  0  0
    1.8509    2.1379   16.2106 O   0  0  0  0  0  0  0  0  0  0  0  0
    3.5134    3.1480   14.9635 N   0  0  0  0  0  0  0  0  0  0  0  0
    4.4577    3.4245   14.7515 H   0  0  0  0  0  0  0  0  0  0  0  0
    3.8785    1.8965   17.1061 O   0  0  0  0  0  0  0  0  0  0  0  0
    3.3517    3.8040   18.4609 C   0  0  0  0  0  0  0  0  0  0  0  0
    4.3711    2.8024   18.0793 C   0  0  0  0  0  0  0  0  0  0  0  0
    5.5831    3.5474   17.5376 C   0  0  0  0  0  0  0  0  0  0  0  0
    4.8450    1.9850   19.2594 C   0  0  0  0  0  0  0  0  0  0  0  0
 38 39  1  0  0  0
 39 40  1  0  0  0
 39 41  1  0  0  0
 39 37  1  0  0  0
 37 33  1  0  0  0
 33 34  2  0  0  0
 33 35  1  0  0  0
 35 26  1  0  0  0
 26  1  1  0  0  0
  1  2  2  0  0  0
  1  3  1  0  0  0
  3  4  1  0  0  0
  4  5  1  0  0  0
  5  6  1  0  0  0
  6  7  1  0  0  0
  7  8  1  0  0  0
  8  9  2  0  0  0
  8 10  1  0  0  0
 10 12  1  0  0  0
 12 15  1  0  0  0
 15 16  1  0  0  0
 16 17  1  0  0  0
 17 18  1  0  0  0
 18 20  1  0  0  0
 20 21  1  0  0  0
 20 22  2  0  0  0
 12 13  1  0  0  0
 13 14  2  0  0  0
 26 27  1  0  0  0
 27 28  2  0  0  0
 28 29  1  0  0  0
 29 30  2  0  0  0
 30 31  1  0  0  0
 31 32  2  0  0  0
  7  3  1  0  0  0
 32 27  1  0  0  0
 35 36  1  0  0  0
 10 11  1  0  0  0
 18 19  1  0  0  0
 21 23  1  0  0  0
 21 24  1  0  0  0
 22 25  1  0  0  0
M  END
> <minimizedAffinity>
-6.66763

> <CNNscore>
0.2526433766

> <CNNaffinity>
5.6204314232

> <CNN_VS>
1.4199647903

> <CNNaffinity_variance>
0.0394111574

$$$$
[H]N=C(N([H])[H])N([H])C([H])([H])C([H])([H])C([H])([H])[C@@]([H])(C([H])=O)N([H])C(=O)[C@@]1([H])N(C(=O)[C@@]([H])(c2c([H])c([H])c([H])c([H])c2[H])N([H])C(=O)OC(C([H])([H])[H])(C([H])([H])[H])C([H])([H])[H])C([H])([H])C([H])([H])C1([H])[H]


 41 42  0  0  0  0  0  0  0  0999 V2000
    1.9245    5.3654   12.6970 C   0  0  0  0  0  0  0  0  0  0  0  0
    2.8181    6.2748   12.8858 O   0  0  0  0  0  0  0  0  0  0  0  0
    1.8564    4.2815   13.5693 N   0  0  0  0  0  0  0  0  0  0  0  0
    1.1336    3.0136   13.2075 C   0  0  0  0  0  0  0  0  0  0  0  0
    2.0949    1.9091   13.7482 C   0  0  0  0  0  0  0  0  0  0  0  0
    3.2058    2.7802   14.4102 C   0  0  0  0  0  0  0  0  0  0  0  0
    2.3155    3.9055   14.8679 C   0  0  0  0  0  0  0  0  0  0  0  0
    2.6098    4.7476   15.9484 C   0  0  0  0  0  0  0  0  0  0  0  0
    1.8647    4.8459   16.9496 O   0  0  0  0  0  0  0  0  0  0  0  0
    3.8056    5.5068   15.9272 N   0  0  0  0  0  0  0  0  0  0  0  0
    4.3909    5.4588   15.0405 H   0  0  0  0  0  0  0  0  0  0  0  0
    4.3095    6.3492   16.9989 C   0  0  0  0  0  0  0  0  0  0  0  0
    4.5865    7.7004   16.4080 C   0  0  0  0  0  0  0  0  0  0  0  0
    4.2910    8.6885   17.0396 O   0  0  0  0  0  0  0  0  0  0  0  0
    5.5470    5.7205   17.5605 C   0  0  0  0  0  0  0  0  0  0  0  0
    5.3537    5.0764   18.8964 C   0  0  0  0  0  0  0  0  0  0  0  0
    6.1223    5.8757   19.9435 C   0  0  0  0  0  0  0  0  0  0  0  0
    5.4503    7.0718   20.3372 N   0  0  0  0  0  0  0  0  0  0  0  0
    5.0545    7.6901   19.5782 H   0  0  0  0  0  0  0  0  0  0  0  0
    5.2954    7.4372   21.6860 C   0  0  0  0  0  0  0  0  0  0  0  0
    5.9623    6.6694   22.6948 N   0  0  0  0  0  0  0  0  0  0  0  0
    4.5716    8.4226   22.0382 N   0  0  0  0  0  0  0  0  0  0  0  0
    6.8157    7.0659   23.1777 H   0  0  0  0  0  0  0  0  0  0  0  0
    5.6529    5.7201   22.9773 H   0  0  0  0  0  0  0  0  0  0  0  0
    4.0332    9.0362   21.3661 H   0  0  0  0  0  0  0  0  0  0  0  0
    1.0480    5.5472   11.5567 C   0  0  0  0  0  0  0  0  0  0  0  0
   -0.3734    5.8555   12.0678 C   0  0  0  0  0  0  0  0  0  0  0  0
   -1.4822    5.4441   11.4216 C   0  0  0  0  0  0  0  0  0  0  0  0
   -2.7493    5.7724   11.8803 C   0  0  0  0  0  0  0  0  0  0  0  0
   -2.8384    6.5371   13.0222 C   0  0  0  0  0  0  0  0  0  0  0  0
   -1.7225    6.9712   13.7039 C   0  0  0  0  0  0  0  0  0  0  0  0
   -0.4764    6.6192   13.2068 C   0  0  0  0  0  0  0  0  0  0  0  0
    1.4238    6.5147    9.3668 C   0  0  0  0  0  0  0  0  0  0  0  0
    1.1629    5.3436    8.9628 O   0  0  0  0  0  0  0  0  0  0  0  0
    1.3842    6.7516   10.7816 N   0  0  0  0  0  0  0  0  0  0  0  0
    1.5752    7.6247   11.2445 H   0  0  0  0  0  0  0  0  0  0  0  0
    1.7298    7.4225    8.3898 O   0  0  0  0  0  0  0  0  0  0  0  0
    3.9998    6.8263    8.8827 C   0  0  0  0  0  0  0  0  0  0  0  0
    3.0778    7.5272    7.9627 C   0  0  0  0  0  0  0  0  0  0  0  0
    3.4968    8.9894    7.9003 C   0  0  0  0  0  0  0  0  0  0  0  0
    3.1491    6.9857    6.5531 C   0  0  0  0  0  0  0  0  0  0  0  0
 38 39  1  0  0  0
 39 40  1  0  0  0
 39 41  1  0  0  0
 39 37  1  0  0  0
 37 33  1  0  0  0
 33 34  2  0  0  0
 33 35  1  0  0  0
 35 26  1  0  0  0
 26  1  1  0  0  0
  1  2  2  0  0  0
  1  3  1  0  0  0
  3  4  1  0  0  0
  4  5  1  0  0  0
  5  6  1  0  0  0
  6  7  1  0  0  0
  7  8  1  0  0  0
  8  9  2  0  0  0
  8 10  1  0  0  0
 10 12  1  0  0  0
 12 15  1  0  0  0
 15 16  1  0  0  0
 16 17  1  0  0  0
 17 18  1  0  0  0
 18 20  1  0  0  0
 20 21  1  0  0  0
 20 22  2  0  0  0
 12 13  1  0  0  0
 13 14  2  0  0  0
 26 27  1  0  0  0
 27 28  2  0  0  0
 28 29  1  0  0  0
 29 30  2  0  0  0
 30 31  1  0  0  0
 31 32  2  0  0  0
  7  3  1  0  0  0
 32 27  1  0  0  0
 35 36  1  0  0  0
 10 11  1  0  0  0
 18 19  1  0  0  0
 21 23  1  0  0  0
 21 24  1  0  0  0
 22 25  1  0  0  0
M  END
> <minimizedAffinity>
-6.46024

> <CNNscore>
0.2481260747

> <CNNaffinity>
5.7762079239

> <CNN_VS>
1.4332277775

> <CNNaffinity_variance>
0.1076875180

$$$$
[H]c1nn(C(=O)c2c([H])c([H])c([H])c([H])c2[H])c([H])c1-c1c([H])nc(-c2noc(N3C([H])([H])C([H])([H])OC([H])([H])C3([H])[H])n2)c2c([H])c(C([H])([H])[H])c([H])c(OC([H])(C([H])([H])[H])C([H])([H])[H])c12


 39 44  0  0  0  0  0  0  0  0999 V2000
    2.8504    5.6297   14.5460 C   0  0  0  0  0  0  0  0  0  0  0  0
    3.3621    6.5589   15.4261 C   0  0  0  0  0  0  0  0  0  0  0  0
    3.8946    6.2306   16.6387 C   0  0  0  0  0  0  0  0  0  0  0  0
    4.4413    7.2850   17.5664 C   0  0  0  0  0  0  0  0  0  0  0  0
    3.9333    4.9052   17.0253 C   0  0  0  0  0  0  0  0  0  0  0  0
    3.4339    3.9232   16.1841 C   0  0  0  0  0  0  0  0  0  0  0  0
    3.4952    2.6210   16.6069 C   0  0  0  0  0  0  0  0  0  0  0  0
    2.9914    1.6909   15.7391 N   0  0  0  0  0  0  0  0  0  0  0  0
    2.4817    2.0226   14.5767 C   0  0  0  0  0  0  0  0  0  0  0  0
    2.4000    3.3436   14.1068 C   0  0  0  0  0  0  0  0  0  0  0  0
    2.8949    4.3064   14.9460 C   0  0  0  0  0  0  0  0  0  0  0  0
    1.7923    3.5658   12.8123 C   0  0  0  0  0  0  0  0  0  0  0  0
    2.4628    3.6592   11.6235 C   0  0  0  0  0  0  0  0  0  0  0  0
    1.5237    3.8209   10.6355 N   0  0  0  0  0  0  0  0  0  0  0  0
    1.7881    3.9504    9.2513 C   0  0  0  0  0  0  0  0  0  0  0  0
    3.0013    3.9126    8.8548 O   0  0  0  0  0  0  0  0  0  0  0  0
    0.3494    3.8209   11.2316 N   0  0  0  0  0  0  0  0  0  0  0  0
    0.4614    3.6699   12.5444 C   0  0  0  0  0  0  0  0  0  0  0  0
    0.7694    4.1244    8.2305 C   0  0  0  0  0  0  0  0  0  0  0  0
    0.1023    3.0811    7.6348 C   0  0  0  0  0  0  0  0  0  0  0  0
   -0.8717    3.2530    6.6467 C   0  0  0  0  0  0  0  0  0  0  0  0
   -1.1542    4.5469    6.2734 C   0  0  0  0  0  0  0  0  0  0  0  0
   -0.5209    5.6265    6.8332 C   0  0  0  0  0  0  0  0  0  0  0  0
    0.4304    5.4150    7.8011 C   0  0  0  0  0  0  0  0  0  0  0  0
    4.0374    2.1677   17.8687 C   0  0  0  0  0  0  0  0  0  0  0  0
    4.8631    1.2267   18.2693 N   0  0  0  0  0  0  0  0  0  0  0  0
    5.0451    1.2167   19.5440 O   0  0  0  0  0  0  0  0  0  0  0  0
    4.3124    2.1964   20.0593 C   0  0  0  0  0  0  0  0  0  0  0  0
    3.6875    2.7918   19.0540 N   0  0  0  0  0  0  0  0  0  0  0  0
    4.2027    2.5582   21.4292 N   0  0  0  0  0  0  0  0  0  0  0  0
    3.9973    3.9475   21.7528 C   0  0  0  0  0  0  0  0  0  0  0  0
    4.3481    4.2767   23.1691 C   0  0  0  0  0  0  0  0  0  0  0  0
    5.1286    3.2838   23.7570 O   0  0  0  0  0  0  0  0  0  0  0  0
    4.4225    2.0880   23.8160 C   0  0  0  0  0  0  0  0  0  0  0  0
    4.2989    1.5368   22.4322 C   0  0  0  0  0  0  0  0  0  0  0  0
    2.3316    6.0131   13.3463 O   0  0  0  0  0  0  0  0  0  0  0  0
    0.2274    6.9610   13.8262 C   0  0  0  0  0  0  0  0  0  0  0  0
    1.5384    7.0907   13.0269 C   0  0  0  0  0  0  0  0  0  0  0  0
    2.1044    8.4480   13.3403 C   0  0  0  0  0  0  0  0  0  0  0  0
 37 38  1  0  0  0
 38 39  1  0  0  0
 38 36  1  0  0  0
 36  1  1  0  0  0
  1  2  2  0  0  0
  2  3  1  0  0  0
  3  4  1  0  0  0
  3  5  2  0  0  0
  5  6  1  0  0  0
  6  7  2  0  0  0
  7  8  1  0  0  0
  8  9  2  0  0  0
  9 10  1  0  0  0
 10 12  1  0  0  0
 12 13  2  0  0  0
 13 14  1  0  0  0
 14 15  1  0  0  0
 15 19  1  0  0  0
 19 20  2  0  0  0
 20 21  1  0  0  0
 21 22  2  0  0  0
 22 23  1  0  0  0
 23 24  2  0  0  0
 15 16  2  0  0  0
 14 17  1  0  0  0
 17 18  2  0  0  0
 10 11  2  0  0  0
  7 25  1  0  0  0
 25 26  2  0  0  0
 26 27  1  0  0  0
 27 28  1  0  0  0
 28 29  2  0  0  0
 28 30  1  0  0  0
 30 31  1  0  0  0
 31 32  1  0  0  0
 32 33  1  0  0  0
 33 34  1  0  0  0
 34 35  1  0  0  0
 11  1  1  0  0  0
 29 25  1  0  0  0
 35 30  1  0  0  0
 11  6  1  0  0  0
 18 12  1  0  0  0
 24 19  1  0  0  0
M  END
> <minimizedAffinity>
-7.15870

> <CNNscore>
0.3298389018

> <CNNaffinity>
6.7355661392

> <CNN_VS>
2.2216517925

> <CNNaffinity_variance>
0.3685287535

$$$$
[H]c1nn(C(=O)c2c([H])c([H])c([H])c([H])c2[H])c([H])c1-c1c([H])nc(-c2noc(N3C([H])([H])C([H])([H])OC([H])([H])C3([H])[H])n2)c2c([H])c(C([H])([H])[H])c([H])c(OC([H])(C([H])([H])[H])C([H])([H])[H])c12


 39 44  0  0  0  0  0  0  0  0999 V2000
    3.3374    5.6751   14.7701 C   0  0  0  0  0  0  0  0  0  0  0  0
    3.4736    6.3429   15.9682 C   0  0  0  0  0  0  0  0  0  0  0  0
    3.5068    5.7140   17.1785 C   0  0  0  0  0  0  0  0  0  0  0  0
    3.6569    6.4903   18.4616 C   0  0  0  0  0  0  0  0  0  0  0  0
    3.4000    4.3380   17.2303 C   0  0  0  0  0  0  0  0  0  0  0  0
    3.2606    3.6092   16.0595 C   0  0  0  0  0  0  0  0  0  0  0  0
    3.1610    2.2459   16.1576 C   0  0  0  0  0  0  0  0  0  0  0  0
    3.0274    1.5738   14.9733 N   0  0  0  0  0  0  0  0  0  0  0  0
    2.9963    2.1932   13.8173 C   0  0  0  0  0  0  0  0  0  0  0  0
    3.0949    3.5867   13.6737 C   0  0  0  0  0  0  0  0  0  0  0  0
    3.2309    4.2976   14.8366 C   0  0  0  0  0  0  0  0  0  0  0  0
    3.0236    4.1368   12.3370 C   0  0  0  0  0  0  0  0  0  0  0  0
    4.0919    4.3769   11.5169 C   0  0  0  0  0  0  0  0  0  0  0  0
    3.5965    4.8499   10.3273 N   0  0  0  0  0  0  0  0  0  0  0  0
    4.3627    5.2158    9.1952 C   0  0  0  0  0  0  0  0  0  0  0  0
    5.6332    5.1020    9.2544 O   0  0  0  0  0  0  0  0  0  0  0  0
    2.2861    4.8826   10.4540 N   0  0  0  0  0  0  0  0  0  0  0  0
    1.8944    4.4616   11.6490 C   0  0  0  0  0  0  0  0  0  0  0  0
    3.8063    5.7175    7.9507 C   0  0  0  0  0  0  0  0  0  0  0  0
    3.5217    7.0426    7.7233 C   0  0  0  0  0  0  0  0  0  0  0  0
    2.9785    7.5198    6.5268 C   0  0  0  0  0  0  0  0  0  0  0  0
    2.7275    6.5888    5.5452 C   0  0  0  0  0  0  0  0  0  0  0  0
    2.9915    5.2542    5.7158 C   0  0  0  0  0  0  0  0  0  0  0  0
    3.5250    4.8255    6.9066 C   0  0  0  0  0  0  0  0  0  0  0  0
    3.1848    1.4839   17.3867 C   0  0  0  0  0  0  0  0  0  0  0  0
    2.6558    0.3633   17.8246 N   0  0  0  0  0  0  0  0  0  0  0  0
    2.9819    0.0859   19.0391 O   0  0  0  0  0  0  0  0  0  0  0  0
    3.7761    1.0581   19.4709 C   0  0  0  0  0  0  0  0  0  0  0  0
    3.9145    1.9242   18.4778 N   0  0  0  0  0  0  0  0  0  0  0  0
    4.3774    1.1705   20.7536 N   0  0  0  0  0  0  0  0  0  0  0  0
    3.5374    1.0226   21.9153 C   0  0  0  0  0  0  0  0  0  0  0  0
    4.1464    1.5970   23.1549 C   0  0  0  0  0  0  0  0  0  0  0  0
    5.2012    2.4597   22.8659 O   0  0  0  0  0  0  0  0  0  0  0  0
    6.2276    1.7697   22.2313 C   0  0  0  0  0  0  0  0  0  0  0  0
    5.7865    1.4244   20.8456 C   0  0  0  0  0  0  0  0  0  0  0  0
    3.3119    6.3535   13.5892 O   0  0  0  0  0  0  0  0  0  0  0  0
    4.7664    8.0733   12.8940 C   0  0  0  0  0  0  0  0  0  0  0  0
    3.3387    7.7068   13.3433 C   0  0  0  0  0  0  0  0  0  0  0  0
    2.4065    8.2062   12.2745 C   0  0  0  0  0  0  0  0  0  0  0  0
 37 38  1  0  0  0
 38 39  1  0  0  0
 38 36  1  0  0  0
 36  1  1  0  0  0
  1  2  2  0  0  0
  2  3  1  0  0  0
  3  4  1  0  0  0
  3  5  2  0  0  0
  5  6  1  0  0  0
  6  7  2  0  0  0
  7  8  1  0  0  0
  8  9  2  0  0  0
  9 10  1  0  0  0
 10 12  1  0  0  0
 12 13  2  0  0  0
 13 14  1  0  0  0
 14 15  1  0  0  0
 15 19  1  0  0  0
 19 20  2  0  0  0
 20 21  1  0  0  0
 21 22  2  0  0  0
 22 23  1  0  0  0
 23 24  2  0  0  0
 15 16  2  0  0  0
 14 17  1  0  0  0
 17 18  2  0  0  0
 10 11  2  0  0  0
  7 25  1  0  0  0
 25 26  2  0  0  0
 26 27  1  0  0  0
 27 28  1  0  0  0
 28 29  2  0  0  0
 28 30  1  0  0  0
 30 31  1  0  0  0
 31 32  1  0  0  0
 32 33  1  0  0  0
 33 34  1  0  0  0
 34 35  1  0  0  0
 11  1  1  0  0  0
 29 25  1  0  0  0
 35 30  1  0  0  0
 11  6  1  0  0  0
 18 12  1  0  0  0
 24 19  1  0  0  0
M  END
> <minimizedAffinity>
-7.90900

> <CNNscore>
0.3183231056

> <CNNaffinity>
6.8391113281

> <CNN_VS>
2.1770472527

> <CNNaffinity_variance>
0.2240329534

$$$$
[H]c1nn(C(=O)c2c([H])c([H])c([H])c([H])c2[H])c([H])c1-c1c([H])nc(-c2noc(N3C([H])([H])C([H])([H])OC([H])([H])C3([H])[H])n2)c2c([H])c(C([H])([H])[H])c([H])c(OC([H])(C([H])([H])[H])C([H])([H])[H])c12


 39 44  0  0  0  0  0  0  0  0999 V2000
    3.5989    6.1245   15.1287 C   0  0  0  0  0  0  0  0  0  0  0  0
    3.7535    6.6402   16.3976 C   0  0  0  0  0  0  0  0  0  0  0  0
    3.7661    5.8706   17.5242 C   0  0  0  0  0  0  0  0  0  0  0  0
    3.9376    6.4833   18.8904 C   0  0  0  0  0  0  0  0  0  0  0  0
    3.6181    4.5020   17.4116 C   0  0  0  0  0  0  0  0  0  0  0  0
    3.4585    3.9228   16.1625 C   0  0  0  0  0  0  0  0  0  0  0  0
    3.3179    2.5611   16.0974 C   0  0  0  0  0  0  0  0  0  0  0  0
    3.1659    2.0394   14.8417 N   0  0  0  0  0  0  0  0  0  0  0  0
    3.1550    2.7930   13.7679 C   0  0  0  0  0  0  0  0  0  0  0  0
    3.2955    4.1901   13.7914 C   0  0  0  0  0  0  0  0  0  0  0  0
    3.4511    4.7527   15.0305 C   0  0  0  0  0  0  0  0  0  0  0  0
    3.2425    4.8977   12.5301 C   0  0  0  0  0  0  0  0  0  0  0  0
    2.1323    5.4942   11.9979 C   0  0  0  0  0  0  0  0  0  0  0  0
    2.5132    6.0941   10.8235 N   0  0  0  0  0  0  0  0  0  0  0  0
    1.6721    6.8309    9.9562 C   0  0  0  0  0  0  0  0  0  0  0  0
    0.4425    6.9714   10.2709 O   0  0  0  0  0  0  0  0  0  0  0  0
    3.8001    5.8535   10.6803 N   0  0  0  0  0  0  0  0  0  0  0  0
    4.2834    5.1354   11.6852 C   0  0  0  0  0  0  0  0  0  0  0  0
    2.1069    7.4508    8.7165 C   0  0  0  0  0  0  0  0  0  0  0  0
    2.0521    6.8272    7.4932 C   0  0  0  0  0  0  0  0  0  0  0  0
    2.4794    7.4247    6.3037 C   0  0  0  0  0  0  0  0  0  0  0  0
    2.9755    8.7049    6.3966 C   0  0  0  0  0  0  0  0  0  0  0  0
    3.0537    9.3761    7.5895 C   0  0  0  0  0  0  0  0  0  0  0  0
    2.6236    8.7537    8.7359 C   0  0  0  0  0  0  0  0  0  0  0  0
    3.3172    1.6575   17.2267 C   0  0  0  0  0  0  0  0  0  0  0  0
    2.8861    0.4408   17.4746 N   0  0  0  0  0  0  0  0  0  0  0  0
    3.1282    0.0492   18.6771 O   0  0  0  0  0  0  0  0  0  0  0  0
    3.7581    1.0381   19.2996 C   0  0  0  0  0  0  0  0  0  0  0  0
    3.8849    2.0320   18.4327 N   0  0  0  0  0  0  0  0  0  0  0  0
    4.2198    1.0517   20.6436 N   0  0  0  0  0  0  0  0  0  0  0  0
    3.2946    0.6842   21.6857 C   0  0  0  0  0  0  0  0  0  0  0  0
    3.7182    1.1601   23.0390 C   0  0  0  0  0  0  0  0  0  0  0  0
    4.6966    2.1486   22.9613 O   0  0  0  0  0  0  0  0  0  0  0  0
    5.8467    1.6423   22.3671 C   0  0  0  0  0  0  0  0  0  0  0  0
    5.5783    1.4266   20.9127 C   0  0  0  0  0  0  0  0  0  0  0  0
    3.5954    6.9395   14.0373 O   0  0  0  0  0  0  0  0  0  0  0  0
    4.8953    8.7174   13.1973 C   0  0  0  0  0  0  0  0  0  0  0  0
    3.6166    8.3126   13.9559 C   0  0  0  0  0  0  0  0  0  0  0  0
    2.4635    8.9531   13.2341 C   0  0  0  0  0  0  0  0  0  0  0  0
 37 38  1  0  0  0
 38 39  1  0  0  0
 38 36  1  0  0  0
 36  1  1  0  0  0
  1  2  2  0  0  0
  2  3  1  0  0  0
  3  4  1  0  0  0
  3  5  2  0  0  0
  5  6  1  0  0  0
  6  7  2  0  0  0
  7  8  1  0  0  0
  8  9  2  0  0  0
  9 10  1  0  0  0
 10 12  1  0  0  0
 12 13  2  0  0  0
 13 14  1  0  0  0
 14 15  1  0  0  0
 15 19  1  0  0  0
 19 20  2  0  0  0
 20 21  1  0  0  0
 21 22  2  0  0  0
 22 23  1  0  0  0
 23 24  2  0  0  0
 15 16  2  0  0  0
 14 17  1  0  0  0
 17 18  2  0  0  0
 10 11  2  0  0  0
  7 25  1  0  0  0
 25 26  2  0  0  0
 26 27  1  0  0  0
 27 28  1  0  0  0
 28 29  2  0  0  0
 28 30  1  0  0  0
 30 31  1  0  0  0
 31 32  1  0  0  0
 32 33  1  0  0  0
 33 34  1  0  0  0
 34 35  1  0  0  0
 11  1  1  0  0  0
 29 25  1  0  0  0
 35 30  1  0  0  0
 11  6  1  0  0  0
 18 12  1  0  0  0
 24 19  1  0  0  0
M  END
> <minimizedAffinity>
-8.45147

> <CNNscore>
0.3033825755

> <CNNaffinity>
6.6869993210

> <CNN_VS>
2.0287191868

> <CNNaffinity_variance>
0.3139195442

$$$$
[H]c1nn(C(=O)c2c([H])c([H])c([H])c([H])c2[H])c([H])c1-c1c([H])nc(-c2noc(N3C([H])([H])C([H])([H])OC([H])([H])C3([H])[H])n2)c2c([H])c(C([H])([H])[H])c([H])c(OC([H])(C([H])([H])[H])C([H])([H])[H])c12


 39 44  0  0  0  0  0  0  0  0999 V2000
    3.1441    5.8516   14.6307 C   0  0  0  0  0  0  0  0  0  0  0  0
    3.9116    6.6922   15.4080 C   0  0  0  0  0  0  0  0  0  0  0  0
    4.5004    6.3049   16.5763 C   0  0  0  0  0  0  0  0  0  0  0  0
    5.3305    7.2631   17.3912 C   0  0  0  0  0  0  0  0  0  0  0  0
    4.3324    5.0087   17.0227 C   0  0  0  0  0  0  0  0  0  0  0  0
    3.5712    4.1152   16.2854 C   0  0  0  0  0  0  0  0  0  0  0  0
    3.4335    2.8385   16.7643 C   0  0  0  0  0  0  0  0  0  0  0  0
    2.6748    1.9959   15.9985 N   0  0  0  0  0  0  0  0  0  0  0  0
    2.1143    2.3837   14.8776 C   0  0  0  0  0  0  0  0  0  0  0  0
    2.2306    3.6812   14.3530 C   0  0  0  0  0  0  0  0  0  0  0  0
    2.9835    4.5567   15.0897 C   0  0  0  0  0  0  0  0  0  0  0  0
    1.5397    3.9763   13.1160 C   0  0  0  0  0  0  0  0  0  0  0  0
    0.2596    4.4476   13.0120 C   0  0  0  0  0  0  0  0  0  0  0  0
    0.0019    4.6413   11.6777 N   0  0  0  0  0  0  0  0  0  0  0  0
   -1.2071    5.1291   11.1274 C   0  0  0  0  0  0  0  0  0  0  0  0
   -2.1620    5.4294   11.9203 O   0  0  0  0  0  0  0  0  0  0  0  0
    1.0954    4.2942   11.0309 N   0  0  0  0  0  0  0  0  0  0  0  0
    2.0497    3.8866   11.8568 C   0  0  0  0  0  0  0  0  0  0  0  0
   -1.4490    5.3189    9.7078 C   0  0  0  0  0  0  0  0  0  0  0  0
   -1.1813    6.4895    9.0395 C   0  0  0  0  0  0  0  0  0  0  0  0
   -1.4235    6.6704    7.6745 C   0  0  0  0  0  0  0  0  0  0  0  0
   -1.9580    5.6013    6.9929 C   0  0  0  0  0  0  0  0  0  0  0  0
   -2.2450    4.4095    7.6071 C   0  0  0  0  0  0  0  0  0  0  0  0
   -1.9924    4.2722    8.9502 C   0  0  0  0  0  0  0  0  0  0  0  0
    4.0138    2.3282   17.9869 C   0  0  0  0  0  0  0  0  0  0  0  0
    4.6180    1.2250   18.3681 N   0  0  0  0  0  0  0  0  0  0  0  0
    4.9696    1.2380   19.6068 O   0  0  0  0  0  0  0  0  0  0  0  0
    4.5936    2.4049   20.1159 C   0  0  0  0  0  0  0  0  0  0  0  0
    4.0071    3.0883   19.1441 N   0  0  0  0  0  0  0  0  0  0  0  0
    4.7753    2.8588   21.4503 N   0  0  0  0  0  0  0  0  0  0  0  0
    5.7171    2.1579   22.2863 C   0  0  0  0  0  0  0  0  0  0  0  0
    5.5021    2.4060   23.7455 C   0  0  0  0  0  0  0  0  0  0  0  0
    4.2451    2.9487   24.0024 O   0  0  0  0  0  0  0  0  0  0  0  0
    4.1228    4.1909   23.3908 C   0  0  0  0  0  0  0  0  0  0  0  0
    4.0222    3.9888   21.9134 C   0  0  0  0  0  0  0  0  0  0  0  0
    2.5803    6.2906   13.4710 O   0  0  0  0  0  0  0  0  0  0  0  0
    3.7223    7.4644   11.7755 C   0  0  0  0  0  0  0  0  0  0  0  0
    2.6384    7.5263   12.8690 C   0  0  0  0  0  0  0  0  0  0  0  0
    1.3768    8.0002   12.2022 C   0  0  0  0  0  0  0  0  0  0  0  0
 37 38  1  0  0  0
 38 39  1  0  0  0
 38 36  1  0  0  0
 36  1  1  0  0  0
  1  2  2  0  0  0
  2  3  1  0  0  0
  3  4  1  0  0  0
  3  5  2  0  0  0
  5  6  1  0  0  0
  6  7  2  0  0  0
  7  8  1  0  0  0
  8  9  2  0  0  0
  9 10  1  0  0  0
 10 12  1  0  0  0
 12 13  2  0  0  0
 13 14  1  0  0  0
 14 15  1  0  0  0
 15 19  1  0  0  0
 19 20  2  0  0  0
 20 21  1  0  0  0
 21 22  2  0  0  0
 22 23  1  0  0  0
 23 24  2  0  0  0
 15 16  2  0  0  0
 14 17  1  0  0  0
 17 18  2  0  0  0
 10 11  2  0  0  0
  7 25  1  0  0  0
 25 26  2  0  0  0
 26 27  1  0  0  0
 27 28  1  0  0  0
 28 29  2  0  0  0
 28 30  1  0  0  0
 30 31  1  0  0  0
 31 32  1  0  0  0
 32 33  1  0  0  0
 33 34  1  0  0  0
 34 35  1  0  0  0
 11  1  1  0  0  0
 29 25  1  0  0  0
 35 30  1  0  0  0
 11  6  1  0  0  0
 18 12  1  0  0  0
 24 19  1  0  0  0
M  END
> <minimizedAffinity>
-7.98555

> <CNNscore>
0.2734666169

> <CNNaffinity>
6.6307692528

> <CNN_VS>
1.8132940531

> <CNNaffinity_variance>
0.3867633641

$$$$
[H]c1nn(C(=O)c2c([H])c([H])c([H])c([H])c2[H])c([H])c1-c1c([H])nc(-c2noc(N3C([H])([H])C([H])([H])OC([H])([H])C3([H])[H])n2)c2c([H])c(C([H])([H])[H])c([H])c(OC([H])(C([H])([H])[H])C([H])([H])[H])c12


 39 44  0  0  0  0  0  0  0  0999 V2000
    2.1261    5.0050   15.2343 C   0  0  0  0  0  0  0  0  0  0  0  0
    1.4008    6.0660   14.7362 C   0  0  0  0  0  0  0  0  0  0  0  0
    0.9134    6.1100   13.4626 C   0  0  0  0  0  0  0  0  0  0  0  0
    0.1258    7.2947   12.9650 C   0  0  0  0  0  0  0  0  0  0  0  0
    1.1465    5.0481   12.6108 C   0  0  0  0  0  0  0  0  0  0  0  0
    1.8698    3.9513   13.0526 C   0  0  0  0  0  0  0  0  0  0  0  0
    2.0747    2.9191   12.1746 C   0  0  0  0  0  0  0  0  0  0  0  0
    2.7921    1.8601   12.6606 N   0  0  0  0  0  0  0  0  0  0  0  0
    3.2549    1.8332   13.8877 C   0  0  0  0  0  0  0  0  0  0  0  0
    3.0673    2.8690   14.8174 C   0  0  0  0  0  0  0  0  0  0  0  0
    2.3527    3.9487   14.3705 C   0  0  0  0  0  0  0  0  0  0  0  0
    3.6534    2.7143   16.1316 C   0  0  0  0  0  0  0  0  0  0  0  0
    3.1611    1.9253   17.1349 C   0  0  0  0  0  0  0  0  0  0  0  0
    4.0304    2.0190   18.1931 N   0  0  0  0  0  0  0  0  0  0  0  0
    3.9022    1.3527   19.4350 C   0  0  0  0  0  0  0  0  0  0  0  0
    2.8987    0.5837   19.6151 O   0  0  0  0  0  0  0  0  0  0  0  0
    4.9933    2.8342   17.8156 N   0  0  0  0  0  0  0  0  0  0  0  0
    4.8086    3.2785   16.5797 C   0  0  0  0  0  0  0  0  0  0  0  0
    4.8397    1.4769   20.5375 C   0  0  0  0  0  0  0  0  0  0  0  0
    6.0098    0.7619   20.6264 C   0  0  0  0  0  0  0  0  0  0  0  0
    6.9052    0.8788   21.6937 C   0  0  0  0  0  0  0  0  0  0  0  0
    6.5683    1.7647   22.6912 C   0  0  0  0  0  0  0  0  0  0  0  0
    5.4146    2.5047   22.6557 C   0  0  0  0  0  0  0  0  0  0  0  0
    4.5610    2.3606   21.5894 C   0  0  0  0  0  0  0  0  0  0  0  0
    1.6029    2.8665   10.8084 C   0  0  0  0  0  0  0  0  0  0  0  0
    2.1171    3.0560    9.6137 N   0  0  0  0  0  0  0  0  0  0  0  0
    1.2683    2.8860    8.6605 O   0  0  0  0  0  0  0  0  0  0  0  0
    0.1059    2.5625    9.2142 C   0  0  0  0  0  0  0  0  0  0  0  0
    0.2862    2.5443   10.5267 N   0  0  0  0  0  0  0  0  0  0  0  0
   -1.1164    2.2832    8.5454 N   0  0  0  0  0  0  0  0  0  0  0  0
   -1.0773    1.4381    7.3787 C   0  0  0  0  0  0  0  0  0  0  0  0
   -2.2889    1.5789    6.5130 C   0  0  0  0  0  0  0  0  0  0  0  0
   -3.0096    2.7337    6.8089 O   0  0  0  0  0  0  0  0  0  0  0  0
   -3.4871    2.6823    8.1132 C   0  0  0  0  0  0  0  0  0  0  0  0
   -2.3351    2.8469    9.0511 C   0  0  0  0  0  0  0  0  0  0  0  0
    2.5879    5.0126   16.5157 O   0  0  0  0  0  0  0  0  0  0  0  0
    2.9988    5.5362   18.7771 C   0  0  0  0  0  0  0  0  0  0  0  0
    2.9169    6.0689   17.3335 C   0  0  0  0  0  0  0  0  0  0  0  0
    4.2277    6.7474   17.0470 C   0  0  0  0  0  0  0  0  0  0  0  0
 37 38  1  0  0  0
 38 39  1  0  0  0
 38 36  1  0  0  0
 36  1  1  0  0  0
  1  2  2  0  0  0
  2  3  1  0  0  0
  3  4  1  0  0  0
  3  5  2  0  0  0
  5  6  1  0  0  0
  6  7  2  0  0  0
  7  8  1  0  0  0
  8  9  2  0  0  0
  9 10  1  0  0  0
 10 12  1  0  0  0
 12 13  2  0  0  0
 13 14  1  0  0  0
 14 15  1  0  0  0
 15 19  1  0  0  0
 19 20  2  0  0  0
 20 21  1  0  0  0
 21 22  2  0  0  0
 22 23  1  0  0  0
 23 24  2  0  0  0
 15 16  2  0  0  0
 14 17  1  0  0  0
 17 18  2  0  0  0
 10 11  2  0  0  0
  7 25  1  0  0  0
 25 26  2  0  0  0
 26 27  1  0  0  0
 27 28  1  0  0  0
 28 29  2  0  0  0
 28 30  1  0  0  0
 30 31  1  0  0  0
 31 32  1  0  0  0
 32 33  1  0  0  0
 33 34  1  0  0  0
 34 35  1  0  0  0
 11  1  1  0  0  0
 29 25  1  0  0  0
 35 30  1  0  0  0
 11  6  1  0  0  0
 18 12  1  0  0  0
 24 19  1  0  0  0
M  END
> <minimizedAffinity>
-7.43643

> <CNNscore>
0.2199528515

> <CNNaffinity>
6.7615785599

> <CNN_VS>
1.4872285128

> <CNNaffinity_variance>
0.3828586936

$$$$
[H]c1nn(C(=O)c2c([H])c([H])c([H])c([H])c2[H])c([H])c1-c1c([H])nc(-c2noc(N3C([H])([H])C([H])([H])OC([H])([H])C3([H])[H])n2)c2c([H])c(C([H])([H])[H])c([H])c(OC([H])(C([H])([H])[H])C([H])([H])[H])c12


 39 44  0  0  0  0  0  0  0  0999 V2000
    2.9272    5.4481   15.2505 C   0  0  0  0  0  0  0  0  0  0  0  0
    2.5006    6.6161   14.6557 C   0  0  0  0  0  0  0  0  0  0  0  0
    2.0161    6.6761   13.3816 C   0  0  0  0  0  0  0  0  0  0  0  0
    1.5624    7.9794   12.7759 C   0  0  0  0  0  0  0  0  0  0  0  0
    1.9401    5.5196   12.6304 C   0  0  0  0  0  0  0  0  0  0  0  0
    2.3540    4.3129   13.1723 C   0  0  0  0  0  0  0  0  0  0  0  0
    2.2582    3.1901   12.3923 C   0  0  0  0  0  0  0  0  0  0  0  0
    2.6775    2.0252   12.9748 N   0  0  0  0  0  0  0  0  0  0  0  0
    3.1419    1.9840   14.2009 C   0  0  0  0  0  0  0  0  0  0  0  0
    3.2564    3.1101   15.0322 C   0  0  0  0  0  0  0  0  0  0  0  0
    2.8461    4.2977   14.4868 C   0  0  0  0  0  0  0  0  0  0  0  0
    3.8074    2.9211   16.3570 C   0  0  0  0  0  0  0  0  0  0  0  0
    3.2479    2.1667   17.3517 C   0  0  0  0  0  0  0  0  0  0  0  0
    4.1019    2.2072   18.4257 N   0  0  0  0  0  0  0  0  0  0  0  0
    3.9090    1.5526   19.6654 C   0  0  0  0  0  0  0  0  0  0  0  0
    2.8558    0.8491   19.8276 O   0  0  0  0  0  0  0  0  0  0  0  0
    5.1212    2.9592   18.0653 N   0  0  0  0  0  0  0  0  0  0  0  0
    4.9876    3.4119   16.8260 C   0  0  0  0  0  0  0  0  0  0  0  0
    4.8321    1.6194   20.7850 C   0  0  0  0  0  0  0  0  0  0  0  0
    4.6130    2.3801   21.9083 C   0  0  0  0  0  0  0  0  0  0  0  0
    5.5084    2.4477   22.9799 C   0  0  0  0  0  0  0  0  0  0  0  0
    6.6597    1.7017   22.8736 C   0  0  0  0  0  0  0  0  0  0  0  0
    6.9312    0.9244   21.7772 C   0  0  0  0  0  0  0  0  0  0  0  0
    6.0257    0.8854   20.7452 C   0  0  0  0  0  0  0  0  0  0  0  0
    1.7611    3.1451   11.0349 C   0  0  0  0  0  0  0  0  0  0  0  0
    0.5857    3.1807   10.4478 N   0  0  0  0  0  0  0  0  0  0  0  0
    0.6545    3.1083    9.1640 O   0  0  0  0  0  0  0  0  0  0  0  0
    1.9381    3.0177    8.8377 C   0  0  0  0  0  0  0  0  0  0  0  0
    2.6337    3.0383    9.9652 N   0  0  0  0  0  0  0  0  0  0  0  0
    2.4875    2.9168    7.5310 N   0  0  0  0  0  0  0  0  0  0  0  0
    3.4843    1.9048    7.2871 C   0  0  0  0  0  0  0  0  0  0  0  0
    4.3030    2.1723    6.0643 C   0  0  0  0  0  0  0  0  0  0  0  0
    4.1854    3.4929    5.6369 O   0  0  0  0  0  0  0  0  0  0  0  0
    2.8719    3.7663    5.2734 C   0  0  0  0  0  0  0  0  0  0  0  0
    2.0342    3.8173    6.5102 C   0  0  0  0  0  0  0  0  0  0  0  0
    3.4010    5.4451   16.5275 O   0  0  0  0  0  0  0  0  0  0  0  0
    3.2594    5.9678   18.8217 C   0  0  0  0  0  0  0  0  0  0  0  0
    3.5846    6.4865   17.4076 C   0  0  0  0  0  0  0  0  0  0  0  0
    4.9695    7.0690   17.4677 C   0  0  0  0  0  0  0  0  0  0  0  0
 37 38  1  0  0  0
 38 39  1  0  0  0
 38 36  1  0  0  0
 36  1  1  0  0  0
  1  2  2  0  0  0
  2  3  1  0  0  0
  3  4  1  0  0  0
  3  5  2  0  0  0
  5  6  1  0  0  0
  6  7  2  0  0  0
  7  8  1  0  0  0
  8  9  2  0  0  0
  9 10  1  0  0  0
 10 12  1  0  0  0
 12 13  2  0  0  0
 13 14  1  0  0  0
 14 15  1  0  0  0
 15 19  1  0  0  0
 19 20  2  0  0  0
 20 21  1  0  0  0
 21 22  2  0  0  0
 22 23  1  0  0  0
 23 24  2  0  0  0
 15 16  2  0  0  0
 14 17  1  0  0  0
 17 18  2  0  0  0
 10 11  2  0  0  0
  7 25  1  0  0  0
 25 26  2  0  0  0
 26 27  1  0  0  0
 27 28  1  0  0  0
 28 29  2  0  0  0
 28 30  1  0  0  0
 30 31  1  0  0  0
 31 32  1  0  0  0
 32 33  1  0  0  0
 33 34  1  0  0  0
 34 35  1  0  0  0
 11  1  1  0  0  0
 29 25  1  0  0  0
 35 30  1  0  0  0
 11  6  1  0  0  0
 18 12  1  0  0  0
 24 19  1  0  0  0
M  END
> <minimizedAffinity>
-7.16528

> <CNNscore>
0.2185847312

> <CNNaffinity>
6.6465172768

> <CNN_VS>
1.4528272152

> <CNNaffinity_variance>
0.2990371287

$$$$
[H]c1nn(C(=O)c2c([H])c([H])c([H])c([H])c2[H])c([H])c1-c1c([H])nc(-c2noc(N3C([H])([H])C([H])([H])OC([H])([H])C3([H])[H])n2)c2c([H])c(C([H])([H])[H])c([H])c(OC([H])(C([H])([H])[H])C([H])([H])[H])c12


 39 44  0  0  0  0  0  0  0  0999 V2000
    2.0733    4.9781   12.0436 C   0  0  0  0  0  0  0  0  0  0  0  0
    2.0236    6.3501   12.1668 C   0  0  0  0  0  0  0  0  0  0  0  0
    2.2160    7.0050   13.3482 C   0  0  0  0  0  0  0  0  0  0  0  0
    2.1507    8.5085   13.4308 C   0  0  0  0  0  0  0  0  0  0  0  0
    2.4752    6.2765   14.4925 C   0  0  0  0  0  0  0  0  0  0  0  0
    2.5378    4.8930   14.4338 C   0  0  0  0  0  0  0  0  0  0  0  0
    2.8003    4.2106   15.5929 C   0  0  0  0  0  0  0  0  0  0  0  0
    2.8537    2.8480   15.4804 N   0  0  0  0  0  0  0  0  0  0  0  0
    2.6655    2.2328   14.3371 C   0  0  0  0  0  0  0  0  0  0  0  0
    2.3942    2.8942   13.1283 C   0  0  0  0  0  0  0  0  0  0  0  0
    2.3331    4.2608   13.1974 C   0  0  0  0  0  0  0  0  0  0  0  0
    2.1863    2.0863   11.9457 C   0  0  0  0  0  0  0  0  0  0  0  0
    3.1679    1.6398   11.1039 C   0  0  0  0  0  0  0  0  0  0  0  0
    2.5628    0.8716   10.1406 N   0  0  0  0  0  0  0  0  0  0  0  0
    3.2166    0.2086    9.0749 C   0  0  0  0  0  0  0  0  0  0  0  0
    4.4856    0.3125    8.9774 O   0  0  0  0  0  0  0  0  0  0  0  0
    1.2748    0.8729   10.4151 N   0  0  0  0  0  0  0  0  0  0  0  0
    1.0003    1.5922   11.4950 C   0  0  0  0  0  0  0  0  0  0  0  0
    2.5449   -0.5947    8.0683 C   0  0  0  0  0  0  0  0  0  0  0  0
    2.1132   -0.0987    6.8616 C   0  0  0  0  0  0  0  0  0  0  0  0
    1.4597   -0.8739    5.8991 C   0  0  0  0  0  0  0  0  0  0  0  0
    1.2533   -2.1992    6.2064 C   0  0  0  0  0  0  0  0  0  0  0  0
    1.6624   -2.7488    7.3940 C   0  0  0  0  0  0  0  0  0  0  0  0
    2.3010   -1.9531    8.3136 C   0  0  0  0  0  0  0  0  0  0  0  0
    3.0188    4.8065   16.8925 C   0  0  0  0  0  0  0  0  0  0  0  0
    2.3092    5.0102   17.9800 N   0  0  0  0  0  0  0  0  0  0  0  0
    2.9672    5.6030   18.9147 O   0  0  0  0  0  0  0  0  0  0  0  0
    4.1945    5.8244   18.4598 C   0  0  0  0  0  0  0  0  0  0  0  0
    4.2496    5.3460   17.2255 N   0  0  0  0  0  0  0  0  0  0  0  0
    5.2657    6.4546   19.1490 N   0  0  0  0  0  0  0  0  0  0  0  0
    6.4772    6.7305   18.4189 C   0  0  0  0  0  0  0  0  0  0  0  0
    7.6581    6.9569   19.3085 C   0  0  0  0  0  0  0  0  0  0  0  0
    7.4293    6.5004   20.6046 O   0  0  0  0  0  0  0  0  0  0  0  0
    6.3832    7.2071   21.1864 C   0  0  0  0  0  0  0  0  0  0  0  0
    5.1042    6.7912   20.5344 C   0  0  0  0  0  0  0  0  0  0  0  0
    1.8751    4.3757   10.8381 O   0  0  0  0  0  0  0  0  0  0  0  0
    1.7067    4.0017    8.5168 C   0  0  0  0  0  0  0  0  0  0  0  0
    1.2102    4.8253    9.7208 C   0  0  0  0  0  0  0  0  0  0  0  0
   -0.2879    4.6992    9.7438 C   0  0  0  0  0  0  0  0  0  0  0  0
 37 38  1  0  0  0
 38 39  1  0  0  0
 38 36  1  0  0  0
 36  1  1  0  0  0
  1  2  2  0  0  0
  2  3  1  0  0  0
  3  4  1  0  0  0
  3  5  2  0  0  0
  5  6  1  0  0  0
  6  7  2  0  0  0
  7  8  1  0  0  0
  8  9  2  0  0  0
  9 10  1  0  0  0
 10 12  1  0  0  0
 12 13  2  0  0  0
 13 14  1  0  0  0
 14 15  1  0  0  0
 15 19  1  0  0  0
 19 20  2  0  0  0
 20 21  1  0  0  0
 21 22  2  0  0  0
 22 23  1  0  0  0
 23 24  2  0  0  0
 15 16  2  0  0  0
 14 17  1  0  0  0
 17 18  2  0  0  0
 10 11  2  0  0  0
  7 25  1  0  0  0
 25 26  2  0  0  0
 26 27  1  0  0  0
 27 28  1  0  0  0
 28 29  2  0  0  0
 28 30  1  0  0  0
 30 31  1  0  0  0
 31 32  1  0  0  0
 32 33  1  0  0  0
 33 34  1  0  0  0
 34 35  1  0  0  0
 11  1  1  0  0  0
 29 25  1  0  0  0
 35 30  1  0  0  0
 11  6  1  0  0  0
 18 12  1  0  0  0
 24 19  1  0  0  0
M  END
> <minimizedAffinity>
-6.43317

> <CNNscore>
0.1181352884

> <CNNaffinity>
6.3418431282

> <CNN_VS>
0.7491954565

> <CNNaffinity_variance>
0.4180707932

$$$$
[H]c1nn(C(=O)c2c([H])c([H])c([H])c([H])c2[H])c([H])c1-c1c([H])nc(-c2noc(N3C([H])([H])C([H])([H])OC([H])([H])C3([H])[H])n2)c2c([H])c(C([H])([H])[H])c([H])c(OC([H])(C([H])([H])[H])C([H])([H])[H])c12


 39 44  0  0  0  0  0  0  0  0999 V2000
    2.6707    5.0399   12.9680 C   0  0  0  0  0  0  0  0  0  0  0  0
    2.8557    6.3676   13.2887 C   0  0  0  0  0  0  0  0  0  0  0  0
    3.3617    6.7875   14.4843 C   0  0  0  0  0  0  0  0  0  0  0  0
    3.5443    8.2525   14.7872 C   0  0  0  0  0  0  0  0  0  0  0  0
    3.7135    5.8519   15.4373 C   0  0  0  0  0  0  0  0  0  0  0  0
    3.5512    4.5005   15.1748 C   0  0  0  0  0  0  0  0  0  0  0  0
    3.9160    3.6072   16.1479 C   0  0  0  0  0  0  0  0  0  0  0  0
    3.7379    2.2864   15.8380 N   0  0  0  0  0  0  0  0  0  0  0  0
    3.2492    1.8985   14.6841 C   0  0  0  0  0  0  0  0  0  0  0  0
    2.8634    2.7807   13.6617 C   0  0  0  0  0  0  0  0  0  0  0  0
    3.0265    4.1136   13.9316 C   0  0  0  0  0  0  0  0  0  0  0  0
    2.3187    2.2133   12.4469 C   0  0  0  0  0  0  0  0  0  0  0  0
    3.0481    1.7815   11.3731 C   0  0  0  0  0  0  0  0  0  0  0  0
    2.1635    1.2709   10.4560 N   0  0  0  0  0  0  0  0  0  0  0  0
    2.4994    0.7088    9.2015 C   0  0  0  0  0  0  0  0  0  0  0  0
    3.7304    0.6537    8.8666 O   0  0  0  0  0  0  0  0  0  0  0  0
    0.9627    1.4025   10.9807 N   0  0  0  0  0  0  0  0  0  0  0  0
    1.0066    1.9657   12.1806 C   0  0  0  0  0  0  0  0  0  0  0  0
    1.5367    0.1801    8.2510 C   0  0  0  0  0  0  0  0  0  0  0  0
    0.9962    0.9171    7.2248 C   0  0  0  0  0  0  0  0  0  0  0  0
    0.0635    0.4064    6.3172 C   0  0  0  0  0  0  0  0  0  0  0  0
   -0.3122   -0.9064    6.4873 C   0  0  0  0  0  0  0  0  0  0  0  0
    0.1939   -1.6894    7.4926 C   0  0  0  0  0  0  0  0  0  0  0  0
    1.1082   -1.1497    8.3639 C   0  0  0  0  0  0  0  0  0  0  0  0
    4.4600    3.9463   17.4443 C   0  0  0  0  0  0  0  0  0  0  0  0
    5.4822    4.6362   17.8991 N   0  0  0  0  0  0  0  0  0  0  0  0
    5.5546    4.6532   19.1846 O   0  0  0  0  0  0  0  0  0  0  0  0
    4.5354    3.9418   19.6509 C   0  0  0  0  0  0  0  0  0  0  0  0
    3.8522    3.4997   18.6053 N   0  0  0  0  0  0  0  0  0  0  0  0
    4.2161    3.6881   21.0123 N   0  0  0  0  0  0  0  0  0  0  0  0
    4.0113    4.8159   21.8859 C   0  0  0  0  0  0  0  0  0  0  0  0
    4.1373    4.4648   23.3343 C   0  0  0  0  0  0  0  0  0  0  0  0
    4.7741    3.2399   23.5203 O   0  0  0  0  0  0  0  0  0  0  0  0
    4.0246    2.2164   22.9522 C   0  0  0  0  0  0  0  0  0  0  0  0
    4.1093    2.3306   21.4644 C   0  0  0  0  0  0  0  0  0  0  0  0
    2.1627    4.6762   11.7576 O   0  0  0  0  0  0  0  0  0  0  0  0
    3.7346    5.1255   10.0594 C   0  0  0  0  0  0  0  0  0  0  0  0
    2.2757    5.2853   10.5292 C   0  0  0  0  0  0  0  0  0  0  0  0
    1.4050    4.7365    9.4331 C   0  0  0  0  0  0  0  0  0  0  0  0
 37 38  1  0  0  0
 38 39  1  0  0  0
 38 36  1  0  0  0
 36  1  1  0  0  0
  1  2  2  0  0  0
  2  3  1  0  0  0
  3  4  1  0  0  0
  3  5  2  0  0  0
  5  6  1  0  0  0
  6  7  2  0  0  0
  7  8  1  0  0  0
  8  9  2  0  0  0
  9 10  1  0  0  0
 10 12  1  0  0  0
 12 13  2  0  0  0
 13 14  1  0  0  0
 14 15  1  0  0  0
 15 19  1  0  0  0
 19 20  2  0  0  0
 20 21  1  0  0  0
 21 22  2  0  0  0
 22 23  1  0  0  0
 23 24  2  0  0  0
 15 16  2  0  0  0
 14 17  1  0  0  0
 17 18  2  0  0  0
 10 11  2  0  0  0
  7 25  1  0  0  0
 25 26  2  0  0  0
 26 27  1  0  0  0
 27 28  1  0  0  0
 28 29  2  0  0  0
 28 30  1  0  0  0
 30 31  1  0  0  0
 31 32  1  0  0  0
 32 33  1  0  0  0
 33 34  1  0  0  0
 34 35  1  0  0  0
 11  1  1  0  0  0
 29 25  1  0  0  0
 35 30  1  0  0  0
 11  6  1  0  0  0
 18 12  1  0  0  0
 24 19  1  0  0  0
M  END
> <minimizedAffinity>
-7.20267

> <CNNscore>
0.1180679351

> <CNNaffinity>
6.6581687927

> <CNN_VS>
0.7861162424

> <CNNaffinity_variance>
0.7686909437

$$$$
[H]c1nn(C(=O)c2c([H])c([H])c([H])c([H])c2[H])c([H])c1-c1c([H])nc(-c2noc(N3C([H])([H])C([H])([H])OC([H])([H])C3([H])[H])n2)c2c([H])c(C([H])([H])[H])c([H])c(OC([H])(C([H])([H])[H])C([H])([H])[H])c12


 39 44  0  0  0  0  0  0  0  0999 V2000
    3.1378    5.1696   14.3971 C   0  0  0  0  0  0  0  0  0  0  0  0
    3.4716    6.4490   14.7863 C   0  0  0  0  0  0  0  0  0  0  0  0
    4.0162    6.7458   16.0017 C   0  0  0  0  0  0  0  0  0  0  0  0
    4.3634    8.1626   16.3803 C   0  0  0  0  0  0  0  0  0  0  0  0
    4.2539    5.7279   16.9045 C   0  0  0  0  0  0  0  0  0  0  0  0
    3.9395    4.4195   16.5721 C   0  0  0  0  0  0  0  0  0  0  0  0
    4.1949    3.4411   17.4971 C   0  0  0  0  0  0  0  0  0  0  0  0
    3.8686    2.1672   17.1191 N   0  0  0  0  0  0  0  0  0  0  0  0
    3.3447    1.8980   15.9470 C   0  0  0  0  0  0  0  0  0  0  0  0
    3.0675    2.8703   14.9722 C   0  0  0  0  0  0  0  0  0  0  0  0
    3.3805    4.1600   15.3110 C   0  0  0  0  0  0  0  0  0  0  0  0
    2.4677    2.4326   13.7300 C   0  0  0  0  0  0  0  0  0  0  0  0
    3.1467    2.1270   12.5823 C   0  0  0  0  0  0  0  0  0  0  0  0
    2.2215    1.7102   11.6580 N   0  0  0  0  0  0  0  0  0  0  0  0
    2.4993    1.2908   10.3353 C   0  0  0  0  0  0  0  0  0  0  0  0
    3.7131    1.2847    9.9385 O   0  0  0  0  0  0  0  0  0  0  0  0
    1.0467    1.7720   12.2501 N   0  0  0  0  0  0  0  0  0  0  0  0
    1.1455    2.2022   13.5007 C   0  0  0  0  0  0  0  0  0  0  0  0
    1.4945    0.8587    9.3795 C   0  0  0  0  0  0  0  0  0  0  0  0
    1.0129   -0.4264    9.3096 C   0  0  0  0  0  0  0  0  0  0  0  0
    0.0517   -0.8398    8.3824 C   0  0  0  0  0  0  0  0  0  0  0  0
   -0.4167    0.1141    7.5081 C   0  0  0  0  0  0  0  0  0  0  0  0
    0.0270    1.4112    7.5316 C   0  0  0  0  0  0  0  0  0  0  0  0
    0.9725    1.7772    8.4582 C   0  0  0  0  0  0  0  0  0  0  0  0
    4.7675    3.6482   18.8090 C   0  0  0  0  0  0  0  0  0  0  0  0
    5.1852    2.8900   19.7981 N   0  0  0  0  0  0  0  0  0  0  0  0
    5.6325    3.5616   20.8016 O   0  0  0  0  0  0  0  0  0  0  0  0
    5.5224    4.8498   20.5005 C   0  0  0  0  0  0  0  0  0  0  0  0
    4.9962    4.9273   19.2870 N   0  0  0  0  0  0  0  0  0  0  0  0
    5.8930    5.9565   21.3114 N   0  0  0  0  0  0  0  0  0  0  0  0
    5.0676    7.1372   21.2715 C   0  0  0  0  0  0  0  0  0  0  0  0
    5.7681    8.3584   21.7768 C   0  0  0  0  0  0  0  0  0  0  0  0
    7.1489    8.1826   21.8303 O   0  0  0  0  0  0  0  0  0  0  0  0
    7.4711    7.1702   22.7266 C   0  0  0  0  0  0  0  0  0  0  0  0
    7.0646    5.8596   22.1339 C   0  0  0  0  0  0  0  0  0  0  0  0
    2.5977    4.9294   13.1699 O   0  0  0  0  0  0  0  0  0  0  0  0
    3.4019    5.6916   11.0893 C   0  0  0  0  0  0  0  0  0  0  0  0
    2.2901    5.8007   12.1506 C   0  0  0  0  0  0  0  0  0  0  0  0
    0.9874    5.5582   11.4400 C   0  0  0  0  0  0  0  0  0  0  0  0
 37 38  1  0  0  0
 38 39  1  0  0  0
 38 36  1  0  0  0
 36  1  1  0  0  0
  1  2  2  0  0  0
  2  3  1  0  0  0
  3  4  1  0  0  0
  3  5  2  0  0  0
  5  6  1  0  0  0
  6  7  2  0  0  0
  7  8  1  0  0  0
  8  9  2  0  0  0
  9 10  1  0  0  0
 10 12  1  0  0  0
 12 13  2  0  0  0
 13 14  1  0  0  0
 14 15  1  0  0  0
 15 19  1  0  0  0
 19 20  2  0  0  0
 20 21  1  0  0  0
 21 22  2  0  0  0
 22 23  1  0  0  0
 23 24  2  0  0  0
 15 16  2  0  0  0
 14 17  1  0  0  0
 17 18  2  0  0  0
 10 11  2  0  0  0
  7 25  1  0  0  0
 25 26  2  0  0  0
 26 27  1  0  0  0
 27 28  1  0  0  0
 28 29  2  0  0  0
 28 30  1  0  0  0
 30 31  1  0  0  0
 31 32  1  0  0  0
 32 33  1  0  0  0
 33 34  1  0  0  0
 34 35  1  0  0  0
 11  1  1  0  0  0
 29 25  1  0  0  0
 35 30  1  0  0  0
 11  6  1  0  0  0
 18 12  1  0  0  0
 24 19  1  0  0  0
M  END
> <minimizedAffinity>
-7.64937

> <CNNscore>
0.1117420867

> <CNNaffinity>
6.3105311394

> <CNN_VS>
0.7051519156

> <CNNaffinity_variance>
0.4000056386

$$$$
[H]N=C(N([H])[H])N([H])C([H])([H])C([H])([H])C([H])([H])[C@@]([H])(C(=O)c1nc([H])c([H])s1)N([H])C(=O)[C@@]([H])(N([H])C(=O)[C@@]([H])(N([H])[H])C([H])([H])c1c([H])c([H])c(O[H])c([H])c1[H])C([H])([H])c1c([H])c([H])c([H])c([H])c1[H]


 48 50  0  0  0  0  0  0  0  0999 V2000
    4.5978    4.8319   17.8467 C   0  0  0  0  0  0  0  0  0  0  0  0
    2.9494    5.6756   16.2355 C   0  0  0  0  0  0  0  0  0  0  0  0
    2.0532    5.0738   16.8618 O   0  0  0  0  0  0  0  0  0  0  0  0
    4.2824    5.6134   16.6581 N   0  0  0  0  0  0  0  0  0  0  0  0
    5.0804    6.0927   16.1842 H   0  0  0  0  0  0  0  0  0  0  0  0
    3.0312    7.8365   15.1994 N   0  0  0  0  0  0  0  0  0  0  0  0
    2.5897    6.4605   15.0355 C   0  0  0  0  0  0  0  0  0  0  0  0
    2.2318    8.4679   15.3610 H   0  0  0  0  0  0  0  0  0  0  0  0
    3.7907    7.9154   15.9121 H   0  0  0  0  0  0  0  0  0  0  0  0
    3.3475    5.8301   13.8789 C   0  0  0  0  0  0  0  0  0  0  0  0
    2.6292    4.6656   13.3171 C   0  0  0  0  0  0  0  0  0  0  0  0
    3.3593    3.5447   12.9909 C   0  0  0  0  0  0  0  0  0  0  0  0
    2.6895    2.4443   12.4619 C   0  0  0  0  0  0  0  0  0  0  0  0
    1.3192    2.5020   12.2781 C   0  0  0  0  0  0  0  0  0  0  0  0
    0.6563    1.3971   11.7484 O   0  0  0  0  0  0  0  0  0  0  0  0
    0.5881    3.6303   12.6071 C   0  0  0  0  0  0  0  0  0  0  0  0
    1.2628    4.7283   13.1359 C   0  0  0  0  0  0  0  0  0  0  0  0
   -0.3394    1.4151   11.6063 H   0  0  0  0  0  0  0  0  0  0  0  0
    5.3899    5.6517   18.7589 C   0  0  0  0  0  0  0  0  0  0  0  0
    6.5409    6.0568   18.3992 O   0  0  0  0  0  0  0  0  0  0  0  0
    4.9382    6.0316   20.0467 N   0  0  0  0  0  0  0  0  0  0  0  0
    4.0183    5.7570   20.4410 H   0  0  0  0  0  0  0  0  0  0  0  0
    5.8294    6.8599   20.8622 C   0  0  0  0  0  0  0  0  0  0  0  0
    6.4110    6.0061   21.8993 C   0  0  0  0  0  0  0  0  0  0  0  0
    7.5732    6.1757   22.3547 O   0  0  0  0  0  0  0  0  0  0  0  0
    5.6125    4.8905   22.4496 C   0  0  0  0  0  0  0  0  0  0  0  0
    4.4494    4.9130   23.0751 N   0  0  0  0  0  0  0  0  0  0  0  0
    3.9088    3.8119   23.4857 C   0  0  0  0  0  0  0  0  0  0  0  0
    4.5801    2.6416   23.2498 C   0  0  0  0  0  0  0  0  0  0  0  0
    5.9734    3.2044   22.4365 S   0  0  0  0  0  0  0  0  0  0  0  0
    5.0289    8.0168   21.4577 C   0  0  0  0  0  0  0  0  0  0  0  0
    5.7029    9.3004   20.9527 C   0  0  0  0  0  0  0  0  0  0  0  0
    6.4514    9.9440   22.1153 C   0  0  0  0  0  0  0  0  0  0  0  0
    5.9700    9.3459   23.3413 N   0  0  0  0  0  0  0  0  0  0  0  0
    4.9482    9.2067   23.4636 H   0  0  0  0  0  0  0  0  0  0  0  0
    6.9325    8.9832   24.3099 C   0  0  0  0  0  0  0  0  0  0  0  0
    8.2648    8.6334   23.9911 N   0  0  0  0  0  0  0  0  0  0  0  0
    6.5344    8.9831   25.5507 N   0  0  0  0  0  0  0  0  0  0  0  0
    8.7370    8.9773   23.1347 H   0  0  0  0  0  0  0  0  0  0  0  0
    8.8168    8.0067   24.6239 H   0  0  0  0  0  0  0  0  0  0  0  0
    7.2113    8.7219   26.2980 H   0  0  0  0  0  0  0  0  0  0  0  0
    5.2582    3.5763   17.3592 C   0  0  0  0  0  0  0  0  0  0  0  0
    4.3493    2.4105   17.2532 C   0  0  0  0  0  0  0  0  0  0  0  0
    3.6969    2.0616   16.0752 C   0  0  0  0  0  0  0  0  0  0  0  0
    2.8475    0.9814   15.9698 C   0  0  0  0  0  0  0  0  0  0  0  0
    2.6148    0.1905   17.0709 C   0  0  0  0  0  0  0  0  0  0  0  0
    3.2382    0.4980   18.2560 C   0  0  0  0  0  0  0  0  0  0  0  0
    4.0905    1.5942   18.3335 C   0  0  0  0  0  0  0  0  0  0  0  0
  6  7  1  0  0  0
  7 10  1  0  0  0
 10 11  1  0  0  0
 11 12  2  0  0  0
 12 13  1  0  0  0
 13 14  2  0  0  0
 14 15  1  0  0  0
 14 16  1  0  0  0
 16 17  2  0  0  0
  7  2  1  0  0  0
  2  3  2  0  0  0
  2  4  1  0  0  0
  4  1  1  0  0  0
  1 42  1  0  0  0
 42 43  1  0  0  0
 43 44  2  0  0  0
 44 45  1  0  0  0
 45 46  2  0  0  0
 46 47  1  0  0  0
 47 48  2  0  0  0
  1 19  1  0  0  0
 19 20  2  0  0  0
 19 21  1  0  0  0
 21 23  1  0  0  0
 23 31  1  0  0  0
 31 32  1  0  0  0
 32 33  1  0  0  0
 33 34  1  0  0  0
 34 36  1  0  0  0
 36 37  1  0  0  0
 36 38  2  0  0  0
 23 24  1  0  0  0
 24 25  2  0  0  0
 24 26  1  0  0  0
 26 27  2  0  0  0
 27 28  1  0  0  0
 28 29  2  0  0  0
 29 30  1  0  0  0
 17 11  1  0  0  0
 48 43  1  0  0  0
 30 26  1  0  0  0
  6  8  1  0  0  0
  6  9  1  0  0  0
 15 18  1  0  0  0
  4  5  1  0  0  0
 21 22  1  0  0  0
 34 35  1  0  0  0
 37 39  1  0  0  0
 37 40  1  0  0  0
 38 41  1  0  0  0
M  END
> <minimizedAffinity>
-8.67556

> <CNNscore>
0.5832145214

> <CNNaffinity>
6.9592084885

> <CNN_VS>
4.0587115288

> <CNNaffinity_variance>
0.2993422151

$$$$
[H]N=C(N([H])[H])N([H])C([H])([H])C([H])([H])C([H])([H])[C@@]([H])(C(=O)c1nc([H])c([H])s1)N([H])C(=O)[C@@]([H])(N([H])C(=O)[C@@]([H])(N([H])[H])C([H])([H])c1c([H])c([H])c(O[H])c([H])c1[H])C([H])([H])c1c([H])c([H])c([H])c([H])c1[H]


 48 50  0  0  0  0  0  0  0  0999 V2000
    3.9458    2.6638   16.7008 C   0  0  0  0  0  0  0  0  0  0  0  0
    5.0234    4.4082   18.0502 C   0  0  0  0  0  0  0  0  0  0  0  0
    6.0041    4.3763   17.2790 O   0  0  0  0  0  0  0  0  0  0  0  0
    3.9214    3.5709   17.8409 N   0  0  0  0  0  0  0  0  0  0  0  0
    3.0688    3.5467   18.4437 H   0  0  0  0  0  0  0  0  0  0  0  0
    4.7540    6.6925   18.7277 N   0  0  0  0  0  0  0  0  0  0  0  0
    5.0345    5.3440   19.1946 C   0  0  0  0  0  0  0  0  0  0  0  0
    5.6013    7.2800   18.7539 H   0  0  0  0  0  0  0  0  0  0  0  0
    4.2645    6.6870   17.8050 H   0  0  0  0  0  0  0  0  0  0  0  0
    3.9128    4.8939   20.1158 C   0  0  0  0  0  0  0  0  0  0  0  0
    4.4292    4.2140   21.3237 C   0  0  0  0  0  0  0  0  0  0  0  0
    3.5232    3.7842   22.2672 C   0  0  0  0  0  0  0  0  0  0  0  0
    4.0021    3.1429   23.4068 C   0  0  0  0  0  0  0  0  0  0  0  0
    5.3641    2.9541   23.5631 C   0  0  0  0  0  0  0  0  0  0  0  0
    5.8355    2.3117   24.7058 O   0  0  0  0  0  0  0  0  0  0  0  0
    6.2723    3.3873   22.6126 C   0  0  0  0  0  0  0  0  0  0  0  0
    5.7880    4.0283   21.4746 C   0  0  0  0  0  0  0  0  0  0  0  0
    6.8211    2.1623   24.8414 H   0  0  0  0  0  0  0  0  0  0  0  0
    3.3261    3.3229   15.5549 C   0  0  0  0  0  0  0  0  0  0  0  0
    2.0917    3.1321   15.3135 O   0  0  0  0  0  0  0  0  0  0  0  0
    4.0358    4.1828   14.6810 N   0  0  0  0  0  0  0  0  0  0  0  0
    5.0437    4.4076   14.7837 H   0  0  0  0  0  0  0  0  0  0  0  0
    3.2948    4.7845   13.5700 C   0  0  0  0  0  0  0  0  0  0  0  0
    3.8541    4.2616   12.3225 C   0  0  0  0  0  0  0  0  0  0  0  0
    5.0263    4.5157   11.9373 O   0  0  0  0  0  0  0  0  0  0  0  0
    3.0208    3.3935   11.4641 C   0  0  0  0  0  0  0  0  0  0  0  0
    2.5925    2.1615   11.6721 N   0  0  0  0  0  0  0  0  0  0  0  0
    1.8640    1.5661   10.7843 C   0  0  0  0  0  0  0  0  0  0  0  0
    1.5602    2.2534    9.6392 C   0  0  0  0  0  0  0  0  0  0  0  0
    2.3539    3.7415    9.9125 S   0  0  0  0  0  0  0  0  0  0  0  0
    3.4144    6.3051   13.6562 C   0  0  0  0  0  0  0  0  0  0  0  0
    2.4163    6.8656   12.6332 C   0  0  0  0  0  0  0  0  0  0  0  0
    1.1962    7.3890   13.3838 C   0  0  0  0  0  0  0  0  0  0  0  0
    0.0205    6.7734   12.8082 N   0  0  0  0  0  0  0  0  0  0  0  0
    0.0503    6.4659   11.8167 H   0  0  0  0  0  0  0  0  0  0  0  0
   -1.1112    6.6267   13.6413 C   0  0  0  0  0  0  0  0  0  0  0  0
   -2.3664    6.1708   13.1768 N   0  0  0  0  0  0  0  0  0  0  0  0
   -0.9506    6.9369   14.8967 N   0  0  0  0  0  0  0  0  0  0  0  0
   -2.4595    5.5619   12.3430 H   0  0  0  0  0  0  0  0  0  0  0  0
   -3.2484    6.4424   13.6729 H   0  0  0  0  0  0  0  0  0  0  0  0
   -1.7589    6.8437   15.5470 H   0  0  0  0  0  0  0  0  0  0  0  0
    3.2855    1.3972   17.1593 C   0  0  0  0  0  0  0  0  0  0  0  0
    3.6326    0.9943   18.5425 C   0  0  0  0  0  0  0  0  0  0  0  0
    4.8923    1.1944   19.0977 C   0  0  0  0  0  0  0  0  0  0  0  0
    5.2237    0.8192   20.3817 C   0  0  0  0  0  0  0  0  0  0  0  0
    4.2792    0.2133   21.1773 C   0  0  0  0  0  0  0  0  0  0  0  0
    3.0210   -0.0045   20.6700 C   0  0  0  0  0  0  0  0  0  0  0  0
    2.7144    0.3847   19.3706 C   0  0  0  0  0  0  0  0  0  0  0  0
  6  7  1  0  0  0
  7 10  1  0  0  0
 10 11  1  0  0  0
 11 12  2  0  0  0
 12 13  1  0  0  0
 13 14  2  0  0  0
 14 15  1  0  0  0
 14 16  1  0  0  0
 16 17  2  0  0  0
  7  2  1  0  0  0
  2  3  2  0  0  0
  2  4  1  0  0  0
  4  1  1  0  0  0
  1 42  1  0  0  0
 42 43  1  0  0  0
 43 44  2  0  0  0
 44 45  1  0  0  0
 45 46  2  0  0  0
 46 47  1  0  0  0
 47 48  2  0  0  0
  1 19  1  0  0  0
 19 20  2  0  0  0
 19 21  1  0  0  0
 21 23  1  0  0  0
 23 31  1  0  0  0
 31 32  1  0  0  0
 32 33  1  0  0  0
 33 34  1  0  0  0
 34 36  1  0  0  0
 36 37  1  0  0  0
 36 38  2  0  0  0
 23 24  1  0  0  0
 24 25  2  0  0  0
 24 26  1  0  0  0
 26 27  2  0  0  0
 27 28  1  0  0  0
 28 29  2  0  0  0
 29 30  1  0  0  0
 17 11  1  0  0  0
 48 43  1  0  0  0
 30 26  1  0  0  0
  6  8  1  0  0  0
  6  9  1  0  0  0
 15 18  1  0  0  0
  4  5  1  0  0  0
 21 22  1  0  0  0
 34 35  1  0  0  0
 37 39  1  0  0  0
 37 40  1  0  0  0
 38 41  1  0  0  0
M  END
> <minimizedAffinity>
-7.28632

> <CNNscore>
0.4740988016

> <CNNaffinity>
6.8828954697

> <CNN_VS>
3.2631723881

> <CNNaffinity_variance>
0.1294355094

$$$$
[H]N=C(N([H])[H])N([H])C([H])([H])C([H])([H])C([H])([H])[C@@]([H])(C(=O)c1nc([H])c([H])s1)N([H])C(=O)[C@@]([H])(N([H])C(=O)[C@@]([H])(N([H])[H])C([H])([H])c1c([H])c([H])c(O[H])c([H])c1[H])C([H])([H])c1c([H])c([H])c([H])c([H])c1[H]


 48 50  0  0  0  0  0  0  0  0999 V2000
    4.4178    4.8596   17.7644 C   0  0  0  0  0  0  0  0  0  0  0  0
    2.7569    5.5734   16.1039 C   0  0  0  0  0  0  0  0  0  0  0  0
    1.8704    4.9968   16.7667 O   0  0  0  0  0  0  0  0  0  0  0  0
    4.0904    5.5602   16.5294 N   0  0  0  0  0  0  0  0  0  0  0  0
    4.8806    6.0224   16.0265 H   0  0  0  0  0  0  0  0  0  0  0  0
    2.7449    7.6813   14.9609 N   0  0  0  0  0  0  0  0  0  0  0  0
    2.3851    6.2760   14.8575 C   0  0  0  0  0  0  0  0  0  0  0  0
    1.9076    8.2734   15.0716 H   0  0  0  0  0  0  0  0  0  0  0  0
    3.4801    7.8387   15.6859 H   0  0  0  0  0  0  0  0  0  0  0  0
    3.2065    5.6330   13.7523 C   0  0  0  0  0  0  0  0  0  0  0  0
    2.5057    4.4828   13.1409 C   0  0  0  0  0  0  0  0  0  0  0  0
    3.2397    3.3575   12.8397 C   0  0  0  0  0  0  0  0  0  0  0  0
    2.5864    2.2706   12.2644 C   0  0  0  0  0  0  0  0  0  0  0  0
    1.2280    2.3456   12.0112 C   0  0  0  0  0  0  0  0  0  0  0  0
    0.5817    1.2541   11.4354 O   0  0  0  0  0  0  0  0  0  0  0  0
    0.4930    3.4783   12.3152 C   0  0  0  0  0  0  0  0  0  0  0  0
    1.1512    4.5628   12.8906 C   0  0  0  0  0  0  0  0  0  0  0  0
   -0.4052    1.2848   11.2426 H   0  0  0  0  0  0  0  0  0  0  0  0
    5.1620    5.7606   18.6396 C   0  0  0  0  0  0  0  0  0  0  0  0
    6.1584    6.4026   18.1778 O   0  0  0  0  0  0  0  0  0  0  0  0
    4.8280    5.9664   20.0009 N   0  0  0  0  0  0  0  0  0  0  0  0
    4.0371    5.4951   20.4797 H   0  0  0  0  0  0  0  0  0  0  0  0
    5.6539    6.9008   20.7691 C   0  0  0  0  0  0  0  0  0  0  0  0
    6.1196    6.2050   21.9698 C   0  0  0  0  0  0  0  0  0  0  0  0
    7.1297    6.5725   22.6266 O   0  0  0  0  0  0  0  0  0  0  0  0
    5.3829    5.0163   22.4484 C   0  0  0  0  0  0  0  0  0  0  0  0
    4.1566    4.9203   22.9297 N   0  0  0  0  0  0  0  0  0  0  0  0
    3.6899    3.7722   23.3002 C   0  0  0  0  0  0  0  0  0  0  0  0
    4.5051    2.6786   23.1755 C   0  0  0  0  0  0  0  0  0  0  0  0
    5.9193    3.3790   22.5207 S   0  0  0  0  0  0  0  0  0  0  0  0
    4.8225    8.1360   21.1114 C   0  0  0  0  0  0  0  0  0  0  0  0
    5.7422    9.3424   20.8753 C   0  0  0  0  0  0  0  0  0  0  0  0
    5.6013    9.7815   19.4215 C   0  0  0  0  0  0  0  0  0  0  0  0
    4.2098    9.6505   19.0489 N   0  0  0  0  0  0  0  0  0  0  0  0
    3.4885    9.6521   19.7961 H   0  0  0  0  0  0  0  0  0  0  0  0
    3.9134    9.5268   17.6730 C   0  0  0  0  0  0  0  0  0  0  0  0
    2.8508   10.2122   17.0405 N   0  0  0  0  0  0  0  0  0  0  0  0
    4.6816    8.7309   16.9841 N   0  0  0  0  0  0  0  0  0  0  0  0
    2.4768   11.1083   17.4037 H   0  0  0  0  0  0  0  0  0  0  0  0
    2.4078    9.8241   16.1740 H   0  0  0  0  0  0  0  0  0  0  0  0
    4.4992    8.6098   15.9658 H   0  0  0  0  0  0  0  0  0  0  0  0
    5.1354    3.6067   17.3574 C   0  0  0  0  0  0  0  0  0  0  0  0
    4.2675    2.4090   17.2653 C   0  0  0  0  0  0  0  0  0  0  0  0
    3.6424    2.0136   16.0872 C   0  0  0  0  0  0  0  0  0  0  0  0
    2.8311    0.9035   15.9946 C   0  0  0  0  0  0  0  0  0  0  0  0
    2.6108    0.1284   17.1094 C   0  0  0  0  0  0  0  0  0  0  0  0
    3.2082    0.4816   18.2952 C   0  0  0  0  0  0  0  0  0  0  0  0
    4.0222    1.6073   18.3596 C   0  0  0  0  0  0  0  0  0  0  0  0
  6  7  1  0  0  0
  7 10  1  0  0  0
 10 11  1  0  0  0
 11 12  2  0  0  0
 12 13  1  0  0  0
 13 14  2  0  0  0
 14 15  1  0  0  0
 14 16  1  0  0  0
 16 17  2  0  0  0
  7  2  1  0  0  0
  2  3  2  0  0  0
  2  4  1  0  0  0
  4  1  1  0  0  0
  1 42  1  0  0  0
 42 43  1  0  0  0
 43 44  2  0  0  0
 44 45  1  0  0  0
 45 46  2  0  0  0
 46 47  1  0  0  0
 47 48  2  0  0  0
  1 19  1  0  0  0
 19 20  2  0  0  0
 19 21  1  0  0  0
 21 23  1  0  0  0
 23 31  1  0  0  0
 31 32  1  0  0  0
 32 33  1  0  0  0
 33 34  1  0  0  0
 34 36  1  0  0  0
 36 37  1  0  0  0
 36 38  2  0  0  0
 23 24  1  0  0  0
 24 25  2  0  0  0
 24 26  1  0  0  0
 26 27  2  0  0  0
 27 28  1  0  0  0
 28 29  2  0  0  0
 29 30  1  0  0  0
 17 11  1  0  0  0
 48 43  1  0  0  0
 30 26  1  0  0  0
  6  8  1  0  0  0
  6  9  1  0  0  0
 15 18  1  0  0  0
  4  5  1  0  0  0
 21 22  1  0  0  0
 34 35  1  0  0  0
 37 39  1  0  0  0
 37 40  1  0  0  0
 38 41  1  0  0  0
M  END
> <minimizedAffinity>
-8.03175

> <CNNscore>
0.4616842270

> <CNNaffinity>
6.7292280197

> <CNN_VS>
3.1067783833

> <CNNaffinity_variance>
0.4463196695

$$$$
[H]N=C(N([H])[H])N([H])C([H])([H])C([H])([H])C([H])([H])[C@@]([H])(C(=O)c1nc([H])c([H])s1)N([H])C(=O)[C@@]([H])(N([H])C(=O)[C@@]([H])(N([H])[H])C([H])([H])c1c([H])c([H])c(O[H])c([H])c1[H])C([H])([H])c1c([H])c([H])c([H])c([H])c1[H]


 48 50  0  0  0  0  0  0  0  0999 V2000
    3.2797    3.1732   17.2764 C   0  0  0  0  0  0  0  0  0  0  0  0
    2.3778    2.1636   15.2288 C   0  0  0  0  0  0  0  0  0  0  0  0
    1.7502    1.3431   15.9292 O   0  0  0  0  0  0  0  0  0  0  0  0
    3.1882    3.1383   15.8226 N   0  0  0  0  0  0  0  0  0  0  0  0
    3.7380    3.8555   15.2988 H   0  0  0  0  0  0  0  0  0  0  0  0
    0.9448    1.5869   13.3948 N   0  0  0  0  0  0  0  0  0  0  0  0
    2.2574    2.0980   13.7569 C   0  0  0  0  0  0  0  0  0  0  0  0
    1.0069    0.6233   13.0323 H   0  0  0  0  0  0  0  0  0  0  0  0
    0.2559    1.7098   14.1701 H   0  0  0  0  0  0  0  0  0  0  0  0
    2.3875    3.5286   13.2610 C   0  0  0  0  0  0  0  0  0  0  0  0
    3.3436    3.6392   12.1378 C   0  0  0  0  0  0  0  0  0  0  0  0
    3.1253    2.8688   11.0177 C   0  0  0  0  0  0  0  0  0  0  0  0
    4.0211    2.9682    9.9562 C   0  0  0  0  0  0  0  0  0  0  0  0
    5.0995    3.8302   10.0505 C   0  0  0  0  0  0  0  0  0  0  0  0
    5.9913    3.9240    8.9844 O   0  0  0  0  0  0  0  0  0  0  0  0
    5.3162    4.6033   11.1780 C   0  0  0  0  0  0  0  0  0  0  0  0
    4.4172    4.5002   12.2370 C   0  0  0  0  0  0  0  0  0  0  0  0
    6.7822    4.5441    9.0294 H   0  0  0  0  0  0  0  0  0  0  0  0
    3.3192    4.5643   17.7175 C   0  0  0  0  0  0  0  0  0  0  0  0
    2.3146    5.3169   17.5099 O   0  0  0  0  0  0  0  0  0  0  0  0
    4.4345    5.1339   18.3796 N   0  0  0  0  0  0  0  0  0  0  0  0
    5.3048    4.6127   18.5987 H   0  0  0  0  0  0  0  0  0  0  0  0
    4.3446    6.5417   18.7735 C   0  0  0  0  0  0  0  0  0  0  0  0
    5.4303    7.2637   18.1082 C   0  0  0  0  0  0  0  0  0  0  0  0
    5.3694    7.6380   16.9070 O   0  0  0  0  0  0  0  0  0  0  0  0
    6.6606    7.5776   18.8651 C   0  0  0  0  0  0  0  0  0  0  0  0
    7.7344    6.8377   19.0752 N   0  0  0  0  0  0  0  0  0  0  0  0
    8.7181    7.3009   19.7760 C   0  0  0  0  0  0  0  0  0  0  0  0
    8.6029    8.5681   20.2828 C   0  0  0  0  0  0  0  0  0  0  0  0
    7.0595    9.0264   19.7109 S   0  0  0  0  0  0  0  0  0  0  0  0
    4.4411    6.6411   20.2949 C   0  0  0  0  0  0  0  0  0  0  0  0
    4.6268    5.2035   20.8008 C   0  0  0  0  0  0  0  0  0  0  0  0
    5.5781    5.2288   21.9927 C   0  0  0  0  0  0  0  0  0  0  0  0
    4.7807    5.2531   23.1993 N   0  0  0  0  0  0  0  0  0  0  0  0
    4.6652    6.1524   23.7057 H   0  0  0  0  0  0  0  0  0  0  0  0
    4.2004    4.0357   23.6204 C   0  0  0  0  0  0  0  0  0  0  0  0
    4.9565    2.9036   24.0023 N   0  0  0  0  0  0  0  0  0  0  0  0
    2.8983    3.9925   23.6455 N   0  0  0  0  0  0  0  0  0  0  0  0
    5.9215    2.9824   24.3728 H   0  0  0  0  0  0  0  0  0  0  0  0
    4.5525    1.9404   23.9182 H   0  0  0  0  0  0  0  0  0  0  0  0
    2.4281    3.1143   23.9496 H   0  0  0  0  0  0  0  0  0  0  0  0
    4.4727    2.3401   17.6410 C   0  0  0  0  0  0  0  0  0  0  0  0
    4.2996    1.5317   18.8709 C   0  0  0  0  0  0  0  0  0  0  0  0
    5.1571    1.6181   19.9628 C   0  0  0  0  0  0  0  0  0  0  0  0
    5.0048    0.8671   21.1083 C   0  0  0  0  0  0  0  0  0  0  0  0
    3.9594   -0.0217   21.2035 C   0  0  0  0  0  0  0  0  0  0  0  0
    3.0873   -0.1403   20.1485 C   0  0  0  0  0  0  0  0  0  0  0  0
    3.2652    0.6303   19.0047 C   0  0  0  0  0  0  0  0  0  0  0  0
  6  7  1  0  0  0
  7 10  1  0  0  0
 10 11  1  0  0  0
 11 12  2  0  0  0
 12 13  1  0  0  0
 13 14  2  0  0  0
 14 15  1  0  0  0
 14 16  1  0  0  0
 16 17  2  0  0  0
  7  2  1  0  0  0
  2  3  2  0  0  0
  2  4  1  0  0  0
  4  1  1  0  0  0
  1 42  1  0  0  0
 42 43  1  0  0  0
 43 44  2  0  0  0
 44 45  1  0  0  0
 45 46  2  0  0  0
 46 47  1  0  0  0
 47 48  2  0  0  0
  1 19  1  0  0  0
 19 20  2  0  0  0
 19 21  1  0  0  0
 21 23  1  0  0  0
 23 31  1  0  0  0
 31 32  1  0  0  0
 32 33  1  0  0  0
 33 34  1  0  0  0
 34 36  1  0  0  0
 36 37  1  0  0  0
 36 38  2  0  0  0
 23 24  1  0  0  0
 24 25  2  0  0  0
 24 26  1  0  0  0
 26 27  2  0  0  0
 27 28  1  0  0  0
 28 29  2  0  0  0
 29 30  1  0  0  0
 17 11  1  0  0  0
 48 43  1  0  0  0
 30 26  1  0  0  0
  6  8  1  0  0  0
  6  9  1  0  0  0
 15 18  1  0  0  0
  4  5  1  0  0  0
 21 22  1  0  0  0
 34 35  1  0  0  0
 37 39  1  0  0  0
 37 40  1  0  0  0
 38 41  1  0  0  0
M  END
> <minimizedAffinity>
-7.63066

> <CNNscore>
0.4283601344

> <CNNaffinity>
6.9976286888

> <CNN_VS>
2.9975051880

> <CNNaffinity_variance>
0.1600048095

$$$$
[H]N=C(N([H])[H])N([H])C([H])([H])C([H])([H])C([H])([H])[C@@]([H])(C(=O)c1nc([H])c([H])s1)N([H])C(=O)[C@@]([H])(N([H])C(=O)[C@@]([H])(N([H])[H])C([H])([H])c1c([H])c([H])c(O[H])c([H])c1[H])C([H])([H])c1c([H])c([H])c([H])c([H])c1[H]


 48 50  0  0  0  0  0  0  0  0999 V2000
    4.9353    6.3258   18.2438 C   0  0  0  0  0  0  0  0  0  0  0  0
    5.2089    8.3615   19.5877 C   0  0  0  0  0  0  0  0  0  0  0  0
    6.0610    8.7668   18.7709 O   0  0  0  0  0  0  0  0  0  0  0  0
    4.5767    7.1257   19.4077 N   0  0  0  0  0  0  0  0  0  0  0  0
    3.8549    6.7270   20.0489 H   0  0  0  0  0  0  0  0  0  0  0  0
    4.4383    8.3593   21.8584 N   0  0  0  0  0  0  0  0  0  0  0  0
    4.8698    9.2029   20.7550 C   0  0  0  0  0  0  0  0  0  0  0  0
    3.4213    8.4372   22.0117 H   0  0  0  0  0  0  0  0  0  0  0  0
    4.7819    7.3788   21.7513 H   0  0  0  0  0  0  0  0  0  0  0  0
    6.1541    9.9146   21.1467 C   0  0  0  0  0  0  0  0  0  0  0  0
    6.8545    9.2229   22.2507 C   0  0  0  0  0  0  0  0  0  0  0  0
    6.5741    9.6075   23.5428 C   0  0  0  0  0  0  0  0  0  0  0  0
    7.2295    8.9603   24.5872 C   0  0  0  0  0  0  0  0  0  0  0  0
    8.1383    7.9555   24.3054 C   0  0  0  0  0  0  0  0  0  0  0  0
    8.7898    7.3128   25.3558 O   0  0  0  0  0  0  0  0  0  0  0  0
    8.4179    7.5712   23.0055 C   0  0  0  0  0  0  0  0  0  0  0  0
    7.7597    8.2218   21.9643 C   0  0  0  0  0  0  0  0  0  0  0  0
    9.4541    6.5790   25.1758 H   0  0  0  0  0  0  0  0  0  0  0  0
    3.7149    5.8458   17.6020 C   0  0  0  0  0  0  0  0  0  0  0  0
    2.6769    5.6350   18.3066 O   0  0  0  0  0  0  0  0  0  0  0  0
    3.6191    5.5996   16.2102 N   0  0  0  0  0  0  0  0  0  0  0  0
    4.4025    5.7369   15.5436 H   0  0  0  0  0  0  0  0  0  0  0  0
    2.3349    5.1228   15.6916 C   0  0  0  0  0  0  0  0  0  0  0  0
    2.5569    3.8110   15.0813 C   0  0  0  0  0  0  0  0  0  0  0  0
    2.5435    3.6234   13.8357 O   0  0  0  0  0  0  0  0  0  0  0  0
    2.8110    2.6426   15.9503 C   0  0  0  0  0  0  0  0  0  0  0  0
    2.0237    1.6247   16.2479 N   0  0  0  0  0  0  0  0  0  0  0  0
    2.4382    0.6902   17.0405 C   0  0  0  0  0  0  0  0  0  0  0  0
    3.7049    0.7973   17.5501 C   0  0  0  0  0  0  0  0  0  0  0  0
    4.2342    2.2614   16.8462 S   0  0  0  0  0  0  0  0  0  0  0  0
    1.7963    6.1373   14.6844 C   0  0  0  0  0  0  0  0  0  0  0  0
    3.0023    6.9824   14.2504 C   0  0  0  0  0  0  0  0  0  0  0  0
    2.4890    8.2928   13.6626 C   0  0  0  0  0  0  0  0  0  0  0  0
    2.9556    8.3817   12.2962 N   0  0  0  0  0  0  0  0  0  0  0  0
    3.9696    8.5220   12.1209 H   0  0  0  0  0  0  0  0  0  0  0  0
    1.9903    8.2707   11.2705 C   0  0  0  0  0  0  0  0  0  0  0  0
    2.2606    8.5563    9.9124 N   0  0  0  0  0  0  0  0  0  0  0  0
    0.8008    7.8819   11.6339 N   0  0  0  0  0  0  0  0  0  0  0  0
    3.2135    8.4825    9.5109 H   0  0  0  0  0  0  0  0  0  0  0  0
    1.4906    8.8548    9.2676 H   0  0  0  0  0  0  0  0  0  0  0  0
    0.0579    7.7864   10.9101 H   0  0  0  0  0  0  0  0  0  0  0  0
    5.8723    5.2639   18.7382 C   0  0  0  0  0  0  0  0  0  0  0  0
    5.5165    4.7051   20.0639 C   0  0  0  0  0  0  0  0  0  0  0  0
    4.6345    3.6420   20.2273 C   0  0  0  0  0  0  0  0  0  0  0  0
    4.2958    3.1194   21.4568 C   0  0  0  0  0  0  0  0  0  0  0  0
    4.8436    3.6580   22.5978 C   0  0  0  0  0  0  0  0  0  0  0  0
    5.7200    4.7099   22.4838 C   0  0  0  0  0  0  0  0  0  0  0  0
    6.0439    5.2171   21.2301 C   0  0  0  0  0  0  0  0  0  0  0  0
  6  7  1  0  0  0
  7 10  1  0  0  0
 10 11  1  0  0  0
 11 12  2  0  0  0
 12 13  1  0  0  0
 13 14  2  0  0  0
 14 15  1  0  0  0
 14 16  1  0  0  0
 16 17  2  0  0  0
  7  2  1  0  0  0
  2  3  2  0  0  0
  2  4  1  0  0  0
  4  1  1  0  0  0
  1 42  1  0  0  0
 42 43  1  0  0  0
 43 44  2  0  0  0
 44 45  1  0  0  0
 45 46  2  0  0  0
 46 47  1  0  0  0
 47 48  2  0  0  0
  1 19  1  0  0  0
 19 20  2  0  0  0
 19 21  1  0  0  0
 21 23  1  0  0  0
 23 31  1  0  0  0
 31 32  1  0  0  0
 32 33  1  0  0  0
 33 34  1  0  0  0
 34 36  1  0  0  0
 36 37  1  0  0  0
 36 38  2  0  0  0
 23 24  1  0  0  0
 24 25  2  0  0  0
 24 26  1  0  0  0
 26 27  2  0  0  0
 27 28  1  0  0  0
 28 29  2  0  0  0
 29 30  1  0  0  0
 17 11  1  0  0  0
 48 43  1  0  0  0
 30 26  1  0  0  0
  6  8  1  0  0  0
  6  9  1  0  0  0
 15 18  1  0  0  0
  4  5  1  0  0  0
 21 22  1  0  0  0
 34 35  1  0  0  0
 37 39  1  0  0  0
 37 40  1  0  0  0
 38 41  1  0  0  0
M  END
> <minimizedAffinity>
-7.71602

> <CNNscore>
0.4170187414

> <CNNaffinity>
6.7668867111

> <CNN_VS>
2.8219184875

> <CNNaffinity_variance>
0.2925363183

$$$$
[H]N=C(N([H])[H])N([H])C([H])([H])C([H])([H])C([H])([H])[C@@]([H])(C(=O)c1nc([H])c([H])s1)N([H])C(=O)[C@@]([H])(N([H])C(=O)[C@@]([H])(N([H])[H])C([H])([H])c1c([H])c([H])c(O[H])c([H])c1[H])C([H])([H])c1c([H])c([H])c([H])c([H])c1[H]


 48 50  0  0  0  0  0  0  0  0999 V2000
    4.5475    4.8904   17.7567 C   0  0  0  0  0  0  0  0  0  0  0  0
    2.9956    5.6708   16.0224 C   0  0  0  0  0  0  0  0  0  0  0  0
    2.0490    5.1816   16.6722 O   0  0  0  0  0  0  0  0  0  0  0  0
    4.3108    5.5736   16.4917 N   0  0  0  0  0  0  0  0  0  0  0  0
    5.1480    5.9608   16.0017 H   0  0  0  0  0  0  0  0  0  0  0  0
    3.9456    6.9203   14.2097 N   0  0  0  0  0  0  0  0  0  0  0  0
    2.7152    6.3588   14.7444 C   0  0  0  0  0  0  0  0  0  0  0  0
    3.9565    7.9477   14.2994 H   0  0  0  0  0  0  0  0  0  0  0  0
    4.7888    6.4466   14.6041 H   0  0  0  0  0  0  0  0  0  0  0  0
    2.2039    5.2883   13.7947 C   0  0  0  0  0  0  0  0  0  0  0  0
    0.7827    5.4960   13.4415 C   0  0  0  0  0  0  0  0  0  0  0  0
    0.1842    4.5948   12.5897 C   0  0  0  0  0  0  0  0  0  0  0  0
   -1.1538    4.7839   12.2533 C   0  0  0  0  0  0  0  0  0  0  0  0
   -1.8444    5.8625   12.7775 C   0  0  0  0  0  0  0  0  0  0  0  0
   -3.1826    6.0449   12.4362 O   0  0  0  0  0  0  0  0  0  0  0  0
   -1.2399    6.7666   13.6336 C   0  0  0  0  0  0  0  0  0  0  0  0
    0.0987    6.5730   13.9670 C   0  0  0  0  0  0  0  0  0  0  0  0
   -3.7056    6.8210   12.8052 H   0  0  0  0  0  0  0  0  0  0  0  0
    5.2707    5.7870   18.6538 C   0  0  0  0  0  0  0  0  0  0  0  0
    6.2660    6.4458   18.2137 O   0  0  0  0  0  0  0  0  0  0  0  0
    4.9172    5.9705   20.0132 N   0  0  0  0  0  0  0  0  0  0  0  0
    4.1253    5.4842   20.4753 H   0  0  0  0  0  0  0  0  0  0  0  0
    5.7231    6.9028   20.8048 C   0  0  0  0  0  0  0  0  0  0  0  0
    6.1535    6.2055   22.0178 C   0  0  0  0  0  0  0  0  0  0  0  0
    7.1394    6.5766   22.7084 O   0  0  0  0  0  0  0  0  0  0  0  0
    5.4085    5.0109   22.4682 C   0  0  0  0  0  0  0  0  0  0  0  0
    4.2148    4.9212   23.0264 N   0  0  0  0  0  0  0  0  0  0  0  0
    3.7332    3.7659   23.3530 C   0  0  0  0  0  0  0  0  0  0  0  0
    4.4984    2.6583   23.1010 C   0  0  0  0  0  0  0  0  0  0  0  0
    5.8895    3.3565   22.3963 S   0  0  0  0  0  0  0  0  0  0  0  0
    4.8851    8.1396   21.1242 C   0  0  0  0  0  0  0  0  0  0  0  0
    5.2925    9.2029   20.0944 C   0  0  0  0  0  0  0  0  0  0  0  0
    4.0383    9.6814   19.3704 C   0  0  0  0  0  0  0  0  0  0  0  0
    3.7113    8.7065   18.3530 N   0  0  0  0  0  0  0  0  0  0  0  0
    3.2906    7.8021   18.6421 H   0  0  0  0  0  0  0  0  0  0  0  0
    3.9882    9.0492   17.0105 C   0  0  0  0  0  0  0  0  0  0  0  0
    3.0616    9.7037   16.1668 N   0  0  0  0  0  0  0  0  0  0  0  0
    5.1695    8.7296   16.5628 N   0  0  0  0  0  0  0  0  0  0  0  0
    2.3081   10.3109   16.5388 H   0  0  0  0  0  0  0  0  0  0  0  0
    3.1149    9.5887   15.1267 H   0  0  0  0  0  0  0  0  0  0  0  0
    5.4164    8.9634   15.5783 H   0  0  0  0  0  0  0  0  0  0  0  0
    5.2462    3.6076   17.4154 C   0  0  0  0  0  0  0  0  0  0  0  0
    4.3430    2.4423   17.2645 C   0  0  0  0  0  0  0  0  0  0  0  0
    4.0327    1.5820   18.3126 C   0  0  0  0  0  0  0  0  0  0  0  0
    3.1968    0.4944   18.1792 C   0  0  0  0  0  0  0  0  0  0  0  0
    2.6263    0.2222   16.9576 C   0  0  0  0  0  0  0  0  0  0  0  0
    2.9050    1.0457   15.8936 C   0  0  0  0  0  0  0  0  0  0  0  0
    3.7522    2.1363   16.0572 C   0  0  0  0  0  0  0  0  0  0  0  0
  6  7  1  0  0  0
  7 10  1  0  0  0
 10 11  1  0  0  0
 11 12  2  0  0  0
 12 13  1  0  0  0
 13 14  2  0  0  0
 14 15  1  0  0  0
 14 16  1  0  0  0
 16 17  2  0  0  0
  7  2  1  0  0  0
  2  3  2  0  0  0
  2  4  1  0  0  0
  4  1  1  0  0  0
  1 42  1  0  0  0
 42 43  1  0  0  0
 43 44  2  0  0  0
 44 45  1  0  0  0
 45 46  2  0  0  0
 46 47  1  0  0  0
 47 48  2  0  0  0
  1 19  1  0  0  0
 19 20  2  0  0  0
 19 21  1  0  0  0
 21 23  1  0  0  0
 23 31  1  0  0  0
 31 32  1  0  0  0
 32 33  1  0  0  0
 33 34  1  0  0  0
 34 36  1  0  0  0
 36 37  1  0  0  0
 36 38  2  0  0  0
 23 24  1  0  0  0
 24 25  2  0  0  0
 24 26  1  0  0  0
 26 27  2  0  0  0
 27 28  1  0  0  0
 28 29  2  0  0  0
 29 30  1  0  0  0
 17 11  1  0  0  0
 48 43  1  0  0  0
 30 26  1  0  0  0
  6  8  1  0  0  0
  6  9  1  0  0  0
 15 18  1  0  0  0
  4  5  1  0  0  0
 21 22  1  0  0  0
 34 35  1  0  0  0
 37 39  1  0  0  0
 37 40  1  0  0  0
 38 41  1  0  0  0
M  END
> <minimizedAffinity>
-8.45394

> <CNNscore>
0.4122874439

> <CNNaffinity>
6.6547417641

> <CNN_VS>
2.7436664104

> <CNNaffinity_variance>
0.4348323941

$$$$
[H]N=C(N([H])[H])N([H])C([H])([H])C([H])([H])C([H])([H])[C@@]([H])(C(=O)c1nc([H])c([H])s1)N([H])C(=O)[C@@]([H])(N([H])C(=O)[C@@]([H])(N([H])[H])C([H])([H])c1c([H])c([H])c(O[H])c([H])c1[H])C([H])([H])c1c([H])c([H])c([H])c([H])c1[H]


 48 50  0  0  0  0  0  0  0  0999 V2000
    3.9348    2.7387   17.0200 C   0  0  0  0  0  0  0  0  0  0  0  0
    5.0612    4.4930   18.3156 C   0  0  0  0  0  0  0  0  0  0  0  0
    5.9247    4.5784   17.4187 O   0  0  0  0  0  0  0  0  0  0  0  0
    4.0039    3.5822   18.2061 N   0  0  0  0  0  0  0  0  0  0  0  0
    3.2474    3.4597   18.9158 H   0  0  0  0  0  0  0  0  0  0  0  0
    4.9636    6.7536   19.1095 N   0  0  0  0  0  0  0  0  0  0  0  0
    5.1639    5.3678   19.5029 C   0  0  0  0  0  0  0  0  0  0  0  0
    5.8490    7.2816   19.1402 H   0  0  0  0  0  0  0  0  0  0  0  0
    4.4520    6.8265   18.2018 H   0  0  0  0  0  0  0  0  0  0  0  0
    4.0376    4.9476   20.4326 C   0  0  0  0  0  0  0  0  0  0  0  0
    4.5395    4.1988   21.6053 C   0  0  0  0  0  0  0  0  0  0  0  0
    3.6296    3.7825   22.5511 C   0  0  0  0  0  0  0  0  0  0  0  0
    4.0950    3.0766   23.6576 C   0  0  0  0  0  0  0  0  0  0  0  0
    5.4478    2.8123   23.7800 C   0  0  0  0  0  0  0  0  0  0  0  0
    5.9056    2.1055   24.8898 O   0  0  0  0  0  0  0  0  0  0  0  0
    6.3600    3.2321   22.8273 C   0  0  0  0  0  0  0  0  0  0  0  0
    5.8893    3.9379   21.7224 C   0  0  0  0  0  0  0  0  0  0  0  0
    6.8844    1.9008   25.0003 H   0  0  0  0  0  0  0  0  0  0  0  0
    3.2408    3.4641   15.9600 C   0  0  0  0  0  0  0  0  0  0  0  0
    2.2176    4.1642   16.2452 O   0  0  0  0  0  0  0  0  0  0  0  0
    3.6529    3.4339   14.6050 N   0  0  0  0  0  0  0  0  0  0  0  0
    4.4714    2.8963   14.2616 H   0  0  0  0  0  0  0  0  0  0  0  0
    2.8709    4.2099   13.6397 C   0  0  0  0  0  0  0  0  0  0  0  0
    2.1264    3.2665   12.8040 C   0  0  0  0  0  0  0  0  0  0  0  0
    2.4973    2.0776   12.6152 O   0  0  0  0  0  0  0  0  0  0  0  0
    0.8802    3.7113   12.1452 C   0  0  0  0  0  0  0  0  0  0  0  0
   -0.1687    4.3320   12.6542 N   0  0  0  0  0  0  0  0  0  0  0  0
   -1.1741    4.6382   11.9002 C   0  0  0  0  0  0  0  0  0  0  0  0
   -1.1081    4.2984   10.5750 C   0  0  0  0  0  0  0  0  0  0  0  0
    0.4234    3.5457   10.4907 S   0  0  0  0  0  0  0  0  0  0  0  0
    3.8181    5.0792   12.8145 C   0  0  0  0  0  0  0  0  0  0  0  0
    3.2210    6.4934   12.8375 C   0  0  0  0  0  0  0  0  0  0  0  0
    4.3570    7.4959   13.0123 C   0  0  0  0  0  0  0  0  0  0  0  0
    4.6973    7.5438   14.4175 N   0  0  0  0  0  0  0  0  0  0  0  0
    5.6739    7.3375   14.7039 H   0  0  0  0  0  0  0  0  0  0  0  0
    3.6662    7.8726   15.3258 C   0  0  0  0  0  0  0  0  0  0  0  0
    2.9019    9.0590   15.2402 N   0  0  0  0  0  0  0  0  0  0  0  0
    3.4369    7.0130   16.2780 N   0  0  0  0  0  0  0  0  0  0  0  0
    2.7573    9.5601   14.3443 H   0  0  0  0  0  0  0  0  0  0  0  0
    2.4555    9.4676   16.0955 H   0  0  0  0  0  0  0  0  0  0  0  0
    2.6854    7.2151   16.9703 H   0  0  0  0  0  0  0  0  0  0  0  0
    3.2953    1.4539   17.4566 C   0  0  0  0  0  0  0  0  0  0  0  0
    3.6624    1.0243   18.8267 C   0  0  0  0  0  0  0  0  0  0  0  0
    4.9564    1.1148   19.3292 C   0  0  0  0  0  0  0  0  0  0  0  0
    5.3062    0.7140   20.6005 C   0  0  0  0  0  0  0  0  0  0  0  0
    4.3459    0.1940   21.4369 C   0  0  0  0  0  0  0  0  0  0  0  0
    3.0539    0.0859   20.9823 C   0  0  0  0  0  0  0  0  0  0  0  0
    2.7293    0.4984   19.6945 C   0  0  0  0  0  0  0  0  0  0  0  0
  6  7  1  0  0  0
  7 10  1  0  0  0
 10 11  1  0  0  0
 11 12  2  0  0  0
 12 13  1  0  0  0
 13 14  2  0  0  0
 14 15  1  0  0  0
 14 16  1  0  0  0
 16 17  2  0  0  0
  7  2  1  0  0  0
  2  3  2  0  0  0
  2  4  1  0  0  0
  4  1  1  0  0  0
  1 42  1  0  0  0
 42 43  1  0  0  0
 43 44  2  0  0  0
 44 45  1  0  0  0
 45 46  2  0  0  0
 46 47  1  0  0  0
 47 48  2  0  0  0
  1 19  1  0  0  0
 19 20  2  0  0  0
 19 21  1  0  0  0
 21 23  1  0  0  0
 23 31  1  0  0  0
 31 32  1  0  0  0
 32 33  1  0  0  0
 33 34  1  0  0  0
 34 36  1  0  0  0
 36 37  1  0  0  0
 36 38  2  0  0  0
 23 24  1  0  0  0
 24 25  2  0  0  0
 24 26  1  0  0  0
 26 27  2  0  0  0
 27 28  1  0  0  0
 28 29  2  0  0  0
 29 30  1  0  0  0
 17 11  1  0  0  0
 48 43  1  0  0  0
 30 26  1  0  0  0
  6  8  1  0  0  0
  6  9  1  0  0  0
 15 18  1  0  0  0
  4  5  1  0  0  0
 21 22  1  0  0  0
 34 35  1  0  0  0
 37 39  1  0  0  0
 37 40  1  0  0  0
 38 41  1  0  0  0
M  END
> <minimizedAffinity>
-7.19439

> <CNNscore>
0.3977237642

> <CNNaffinity>
6.7564821243

> <CNN_VS>
2.6872134209

> <CNNaffinity_variance>
0.1376591623

$$$$
[H]N=C(N([H])[H])N([H])C([H])([H])C([H])([H])C([H])([H])[C@@]([H])(C(=O)c1nc([H])c([H])s1)N([H])C(=O)[C@@]([H])(N([H])C(=O)[C@@]([H])(N([H])[H])C([H])([H])c1c([H])c([H])c(O[H])c([H])c1[H])C([H])([H])c1c([H])c([H])c([H])c([H])c1[H]


 48 50  0  0  0  0  0  0  0  0999 V2000
    4.3714    4.5527   16.7081 C   0  0  0  0  0  0  0  0  0  0  0  0
    4.9229    5.9326   18.6617 C   0  0  0  0  0  0  0  0  0  0  0  0
    5.7933    6.5160   17.9837 O   0  0  0  0  0  0  0  0  0  0  0  0
    4.1437    4.9138   18.1012 N   0  0  0  0  0  0  0  0  0  0  0  0
    3.3985    4.3864   18.6086 H   0  0  0  0  0  0  0  0  0  0  0  0
    4.1793    7.6782   20.1280 N   0  0  0  0  0  0  0  0  0  0  0  0
    4.7195    6.3291   20.0713 C   0  0  0  0  0  0  0  0  0  0  0  0
    4.8882    8.3500   20.4594 H   0  0  0  0  0  0  0  0  0  0  0  0
    3.7202    7.9477   19.2293 H   0  0  0  0  0  0  0  0  0  0  0  0
    3.6947    5.3595   20.6362 C   0  0  0  0  0  0  0  0  0  0  0  0
    4.2759    4.4872   21.6798 C   0  0  0  0  0  0  0  0  0  0  0  0
    5.4932    3.8942   21.4300 C   0  0  0  0  0  0  0  0  0  0  0  0
    6.0466    3.0720   22.4081 C   0  0  0  0  0  0  0  0  0  0  0  0
    5.3673    2.8718   23.5970 C   0  0  0  0  0  0  0  0  0  0  0  0
    5.9275    2.0479   24.5707 O   0  0  0  0  0  0  0  0  0  0  0  0
    4.1438    3.4695   23.8451 C   0  0  0  0  0  0  0  0  0  0  0  0
    3.5945    4.2910   22.8634 C   0  0  0  0  0  0  0  0  0  0  0  0
    5.4528    1.8878   25.4431 H   0  0  0  0  0  0  0  0  0  0  0  0
    3.0984    4.5843   15.9940 C   0  0  0  0  0  0  0  0  0  0  0  0
    2.0202    4.7733   16.6423 O   0  0  0  0  0  0  0  0  0  0  0  0
    2.9946    4.4160   14.5913 N   0  0  0  0  0  0  0  0  0  0  0  0
    3.8076    4.2553   13.9666 H   0  0  0  0  0  0  0  0  0  0  0  0
    1.6569    4.4729   13.9974 C   0  0  0  0  0  0  0  0  0  0  0  0
    1.5364    3.3586   13.0559 C   0  0  0  0  0  0  0  0  0  0  0  0
    1.8385    2.1728   13.3551 O   0  0  0  0  0  0  0  0  0  0  0  0
    1.0382    3.6176   11.6885 C   0  0  0  0  0  0  0  0  0  0  0  0
   -0.1980    3.8001   11.2609 N   0  0  0  0  0  0  0  0  0  0  0  0
   -0.4286    4.0155   10.0064 C   0  0  0  0  0  0  0  0  0  0  0  0
    0.6430    4.0459    9.1540 C   0  0  0  0  0  0  0  0  0  0  0  0
    1.9416    3.7584   10.2265 S   0  0  0  0  0  0  0  0  0  0  0  0
    1.4740    5.8244   13.3089 C   0  0  0  0  0  0  0  0  0  0  0  0
    0.2766    6.4917   14.0002 C   0  0  0  0  0  0  0  0  0  0  0  0
   -0.7023    6.9594   12.9284 C   0  0  0  0  0  0  0  0  0  0  0  0
   -1.8246    6.0468   12.9205 N   0  0  0  0  0  0  0  0  0  0  0  0
   -1.6704    5.0654   12.6176 H   0  0  0  0  0  0  0  0  0  0  0  0
   -3.0782    6.5533   13.3306 C   0  0  0  0  0  0  0  0  0  0  0  0
   -4.2819    6.3157   12.6280 N   0  0  0  0  0  0  0  0  0  0  0  0
   -3.0852    7.2720   14.4177 N   0  0  0  0  0  0  0  0  0  0  0  0
   -4.4167    5.4806   12.0287 H   0  0  0  0  0  0  0  0  0  0  0  0
   -5.0809    6.9899   12.6974 H   0  0  0  0  0  0  0  0  0  0  0  0
   -3.9879    7.6656   14.7567 H   0  0  0  0  0  0  0  0  0  0  0  0
    5.0741    3.2275   16.7285 C   0  0  0  0  0  0  0  0  0  0  0  0
    4.2465    2.1057   17.2313 C   0  0  0  0  0  0  0  0  0  0  0  0
    3.4132    1.3509   16.4122 C   0  0  0  0  0  0  0  0  0  0  0  0
    2.6378    0.3089   16.8729 C   0  0  0  0  0  0  0  0  0  0  0  0
    2.6704   -0.0234   18.2073 C   0  0  0  0  0  0  0  0  0  0  0  0
    3.4795    0.6956   19.0536 C   0  0  0  0  0  0  0  0  0  0  0  0
    4.2513    1.7422   18.5610 C   0  0  0  0  0  0  0  0  0  0  0  0
  6  7  1  0  0  0
  7 10  1  0  0  0
 10 11  1  0  0  0
 11 12  2  0  0  0
 12 13  1  0  0  0
 13 14  2  0  0  0
 14 15  1  0  0  0
 14 16  1  0  0  0
 16 17  2  0  0  0
  7  2  1  0  0  0
  2  3  2  0  0  0
  2  4  1  0  0  0
  4  1  1  0  0  0
  1 42  1  0  0  0
 42 43  1  0  0  0
 43 44  2  0  0  0
 44 45  1  0  0  0
 45 46  2  0  0  0
 46 47  1  0  0  0
 47 48  2  0  0  0
  1 19  1  0  0  0
 19 20  2  0  0  0
 19 21  1  0  0  0
 21 23  1  0  0  0
 23 31  1  0  0  0
 31 32  1  0  0  0
 32 33  1  0  0  0
 33 34  1  0  0  0
 34 36  1  0  0  0
 36 37  1  0  0  0
 36 38  2  0  0  0
 23 24  1  0  0  0
 24 25  2  0  0  0
 24 26  1  0  0  0
 26 27  2  0  0  0
 27 28  1  0  0  0
 28 29  2  0  0  0
 29 30  1  0  0  0
 17 11  1  0  0  0
 48 43  1  0  0  0
 30 26  1  0  0  0
  6  8  1  0  0  0
  6  9  1  0  0  0
 15 18  1  0  0  0
  4  5  1  0  0  0
 21 22  1  0  0  0
 34 35  1  0  0  0
 37 39  1  0  0  0
 37 40  1  0  0  0
 38 41  1  0  0  0
M  END
> <minimizedAffinity>
-8.30419

> <CNNscore>
0.3922594786

> <CNNaffinity>
6.7264680862

> <CNN_VS>
2.6385209560

> <CNNaffinity_variance>
0.1613147855

$$$$
[H]N=C(N([H])[H])N([H])C([H])([H])C([H])([H])C([H])([H])[C@@]([H])(C(=O)c1nc([H])c([H])s1)N([H])C(=O)[C@@]([H])(N([H])C(=O)[C@@]([H])(N([H])[H])C([H])([H])c1c([H])c([H])c(O[H])c([H])c1[H])C([H])([H])c1c([H])c([H])c([H])c([H])c1[H]


 48 50  0  0  0  0  0  0  0  0999 V2000
    5.0545    6.4395   18.2048 C   0  0  0  0  0  0  0  0  0  0  0  0
    5.2117    8.4868   19.5498 C   0  0  0  0  0  0  0  0  0  0  0  0
    6.0082    8.9569   18.7117 O   0  0  0  0  0  0  0  0  0  0  0  0
    4.6692    7.2075   19.3816 N   0  0  0  0  0  0  0  0  0  0  0  0
    3.9973    6.7542   20.0405 H   0  0  0  0  0  0  0  0  0  0  0  0
    4.4067    8.4241   21.8076 N   0  0  0  0  0  0  0  0  0  0  0  0
    4.8428    9.2976   20.7296 C   0  0  0  0  0  0  0  0  0  0  0  0
    3.3865    8.4843   21.9467 H   0  0  0  0  0  0  0  0  0  0  0  0
    4.7661    7.4511   21.6847 H   0  0  0  0  0  0  0  0  0  0  0  0
    6.1106   10.0186   21.1565 C   0  0  0  0  0  0  0  0  0  0  0  0
    6.8158    9.3011   22.2407 C   0  0  0  0  0  0  0  0  0  0  0  0
    7.7783    8.3796   21.8940 C   0  0  0  0  0  0  0  0  0  0  0  0
    8.4466    7.7006   22.9097 C   0  0  0  0  0  0  0  0  0  0  0  0
    8.1313    7.9651   24.2309 C   0  0  0  0  0  0  0  0  0  0  0  0
    8.8044    7.2818   25.2412 O   0  0  0  0  0  0  0  0  0  0  0  0
    7.1633    8.8922   24.5761 C   0  0  0  0  0  0  0  0  0  0  0  0
    6.4976    9.5686   23.5564 C   0  0  0  0  0  0  0  0  0  0  0  0
    8.5931    7.4575   26.2090 H   0  0  0  0  0  0  0  0  0  0  0  0
    3.8496    5.9654   17.5304 C   0  0  0  0  0  0  0  0  0  0  0  0
    2.7903    5.7652   18.2059 O   0  0  0  0  0  0  0  0  0  0  0  0
    3.7917    5.7138   16.1375 N   0  0  0  0  0  0  0  0  0  0  0  0
    4.5948    5.8425   15.4930 H   0  0  0  0  0  0  0  0  0  0  0  0
    2.5195    5.2440   15.5843 C   0  0  0  0  0  0  0  0  0  0  0  0
    2.7604    3.9519   14.9400 C   0  0  0  0  0  0  0  0  0  0  0  0
    2.6828    3.7822   13.6943 O   0  0  0  0  0  0  0  0  0  0  0  0
    3.1129    2.7829   15.7731 C   0  0  0  0  0  0  0  0  0  0  0  0
    4.0506    2.6547   16.6944 N   0  0  0  0  0  0  0  0  0  0  0  0
    4.2011    1.5322   17.3194 C   0  0  0  0  0  0  0  0  0  0  0  0
    3.3630    0.4994   16.9925 C   0  0  0  0  0  0  0  0  0  0  0  0
    2.3908    1.2170   15.7846 S   0  0  0  0  0  0  0  0  0  0  0  0
    1.9901    6.2838   14.5982 C   0  0  0  0  0  0  0  0  0  0  0  0
    3.2159    7.0761   14.1218 C   0  0  0  0  0  0  0  0  0  0  0  0
    2.8474    8.5552   14.0729 C   0  0  0  0  0  0  0  0  0  0  0  0
    4.0467    9.3224   14.3288 N   0  0  0  0  0  0  0  0  0  0  0  0
    4.6342    9.6173   13.5248 H   0  0  0  0  0  0  0  0  0  0  0  0
    4.3493    9.6273   15.6748 C   0  0  0  0  0  0  0  0  0  0  0  0
    3.4246    9.4778   16.7340 N   0  0  0  0  0  0  0  0  0  0  0  0
    5.5530   10.0659   15.9131 N   0  0  0  0  0  0  0  0  0  0  0  0
    2.6406    8.8010   16.6922 H   0  0  0  0  0  0  0  0  0  0  0  0
    3.5111   10.0581   17.6021 H   0  0  0  0  0  0  0  0  0  0  0  0
    5.8192   10.3031   16.8918 H   0  0  0  0  0  0  0  0  0  0  0  0
    5.9922    5.3734   18.6891 C   0  0  0  0  0  0  0  0  0  0  0  0
    5.6306    4.7945   20.0046 C   0  0  0  0  0  0  0  0  0  0  0  0
    4.7629    3.7166   20.1466 C   0  0  0  0  0  0  0  0  0  0  0  0
    4.4190    3.1752   21.3664 C   0  0  0  0  0  0  0  0  0  0  0  0
    4.9464    3.7089   22.5192 C   0  0  0  0  0  0  0  0  0  0  0  0
    5.8082    4.7750   22.4265 C   0  0  0  0  0  0  0  0  0  0  0  0
    6.1378    5.3011   21.1821 C   0  0  0  0  0  0  0  0  0  0  0  0
  6  7  1  0  0  0
  7 10  1  0  0  0
 10 11  1  0  0  0
 11 12  2  0  0  0
 12 13  1  0  0  0
 13 14  2  0  0  0
 14 15  1  0  0  0
 14 16  1  0  0  0
 16 17  2  0  0  0
  7  2  1  0  0  0
  2  3  2  0  0  0
  2  4  1  0  0  0
  4  1  1  0  0  0
  1 42  1  0  0  0
 42 43  1  0  0  0
 43 44  2  0  0  0
 44 45  1  0  0  0
 45 46  2  0  0  0
 46 47  1  0  0  0
 47 48  2  0  0  0
  1 19  1  0  0  0
 19 20  2  0  0  0
 19 21  1  0  0  0
 21 23  1  0  0  0
 23 31  1  0  0  0
 31 32  1  0  0  0
 32 33  1  0  0  0
 33 34  1  0  0  0
 34 36  1  0  0  0
 36 37  1  0  0  0
 36 38  2  0  0  0
 23 24  1  0  0  0
 24 25  2  0  0  0
 24 26  1  0  0  0
 26 27  2  0  0  0
 27 28  1  0  0  0
 28 29  2  0  0  0
 29 30  1  0  0  0
 17 11  1  0  0  0
 48 43  1  0  0  0
 30 26  1  0  0  0
  6  8  1  0  0  0
  6  9  1  0  0  0
 15 18  1  0  0  0
  4  5  1  0  0  0
 21 22  1  0  0  0
 34 35  1  0  0  0
 37 39  1  0  0  0
 37 40  1  0  0  0
 38 41  1  0  0  0
M  END
> <minimizedAffinity>
-7.40841

> <CNNscore>
0.3412440717

> <CNNaffinity>
6.6692276001

> <CNN_VS>
2.2758343220

> <CNNaffinity_variance>
0.3697107434

$$$$
[H]c1nc2c([H])c([H])c([H])c([H])c2c(N([H])C(=O)c2c([H])c([H])c([H])c([H])c2F)c1C([H])([H])[H]


 22 24  0  0  0  0  0  0  0  0999 V2000
    3.9099    1.4935   18.4389 C   0  0  0  0  0  0  0  0  0  0  0  0
    4.4190    2.3109   17.4732 C   0  0  0  0  0  0  0  0  0  0  0  0
    4.0310    2.2305   16.1607 C   0  0  0  0  0  0  0  0  0  0  0  0
    3.0902    1.2922   15.7834 C   0  0  0  0  0  0  0  0  0  0  0  0
    2.5522    0.4472   16.7330 C   0  0  0  0  0  0  0  0  0  0  0  0
    2.9561    0.5431   18.0536 C   0  0  0  0  0  0  0  0  0  0  0  0
    2.4435   -0.2707   18.9910 N   0  0  0  0  0  0  0  0  0  0  0  0
    2.8427   -0.1708   20.2768 C   0  0  0  0  0  0  0  0  0  0  0  0
    3.7889    0.7663   20.6808 C   0  0  0  0  0  0  0  0  0  0  0  0
    4.1876    0.8269   22.1130 C   0  0  0  0  0  0  0  0  0  0  0  0
    4.3242    1.6066   19.7381 C   0  0  0  0  0  0  0  0  0  0  0  0
    5.3087    2.6034   20.0764 N   0  0  0  0  0  0  0  0  0  0  0  0
    4.9318    3.8987   20.4437 C   0  0  0  0  0  0  0  0  0  0  0  0
    3.6736    4.1851   20.4700 O   0  0  0  0  0  0  0  0  0  0  0  0
    6.2783    2.2698   20.0132 H   0  0  0  0  0  0  0  0  0  0  0  0
    5.8058    4.9891   20.8069 C   0  0  0  0  0  0  0  0  0  0  0  0
    6.6914    4.9895   21.8577 C   0  0  0  0  0  0  0  0  0  0  0  0
    6.7979    3.9401   22.6777 F   0  0  0  0  0  0  0  0  0  0  0  0
    7.5259    6.0733   22.1510 C   0  0  0  0  0  0  0  0  0  0  0  0
    7.4945    7.1956   21.3930 C   0  0  0  0  0  0  0  0  0  0  0  0
    6.6245    7.2440   20.3304 C   0  0  0  0  0  0  0  0  0  0  0  0
    5.8087    6.1764   20.0483 C   0  0  0  0  0  0  0  0  0  0  0  0
  1  2  2  0  0  0
  2  3  1  0  0  0
  3  4  2  0  0  0
  4  5  1  0  0  0
  5  6  2  0  0  0
  6  7  1  0  0  0
  7  8  2  0  0  0
  8  9  1  0  0  0
  9 10  1  0  0  0
  9 11  2  0  0  0
 11 12  1  0  0  0
 12 13  1  0  0  0
 13 16  1  0  0  0
 16 17  2  0  0  0
 17 18  1  0  0  0
 17 19  1  0  0  0
 19 20  2  0  0  0
 20 21  1  0  0  0
 21 22  2  0  0  0
 13 14  2  0  0  0
  6  1  1  0  0  0
 22 16  1  0  0  0
 11  1  1  0  0  0
 12 15  1  0  0  0
M  END
> <minimizedAffinity>
-8.43596

> <CNNscore>
0.6428897977

> <CNNaffinity>
5.8147835732

> <CNN_VS>
3.7382650375

> <CNNaffinity_variance>
0.2419491261

$$$$
[H]c1nc2c([H])c([H])c([H])c([H])c2c(N([H])C(=O)c2c([H])c([H])c([H])c([H])c2F)c1C([H])([H])[H]


 22 24  0  0  0  0  0  0  0  0999 V2000
    0.2340    6.7014   11.5302 C   0  0  0  0  0  0  0  0  0  0  0  0
   -0.3607    6.5198   10.3164 C   0  0  0  0  0  0  0  0  0  0  0  0
   -1.4043    5.6504   10.1305 C   0  0  0  0  0  0  0  0  0  0  0  0
   -1.8850    4.9222   11.2012 C   0  0  0  0  0  0  0  0  0  0  0  0
   -1.3085    5.0793   12.4455 C   0  0  0  0  0  0  0  0  0  0  0  0
   -0.2555    5.9619   12.6142 C   0  0  0  0  0  0  0  0  0  0  0  0
    0.3177    6.1276   13.8175 N   0  0  0  0  0  0  0  0  0  0  0  0
    1.3442    6.9903   13.9737 C   0  0  0  0  0  0  0  0  0  0  0  0
    1.8458    7.7348   12.9102 C   0  0  0  0  0  0  0  0  0  0  0  0
    2.9792    8.6693   13.1465 C   0  0  0  0  0  0  0  0  0  0  0  0
    1.2736    7.5796   11.6733 C   0  0  0  0  0  0  0  0  0  0  0  0
    1.7354    8.3137   10.5221 N   0  0  0  0  0  0  0  0  0  0  0  0
    2.7487    7.8106    9.7006 C   0  0  0  0  0  0  0  0  0  0  0  0
    3.2676    6.6675   10.0001 O   0  0  0  0  0  0  0  0  0  0  0  0
    1.2599    9.2137   10.3835 H   0  0  0  0  0  0  0  0  0  0  0  0
    3.3035    8.4342    8.5224 C   0  0  0  0  0  0  0  0  0  0  0  0
    2.5858    8.8745    7.4363 C   0  0  0  0  0  0  0  0  0  0  0  0
    1.2592    8.7289    7.3740 F   0  0  0  0  0  0  0  0  0  0  0  0
    3.1797    9.4871    6.3276 C   0  0  0  0  0  0  0  0  0  0  0  0
    4.5201    9.6760    6.2771 C   0  0  0  0  0  0  0  0  0  0  0  0
    5.2817    9.2521    7.3395 C   0  0  0  0  0  0  0  0  0  0  0  0
    4.6920    8.6519    8.4243 C   0  0  0  0  0  0  0  0  0  0  0  0
  1  2  2  0  0  0
  2  3  1  0  0  0
  3  4  2  0  0  0
  4  5  1  0  0  0
  5  6  2  0  0  0
  6  7  1  0  0  0
  7  8  2  0  0  0
  8  9  1  0  0  0
  9 10  1  0  0  0
  9 11  2  0  0  0
 11 12  1  0  0  0
 12 13  1  0  0  0
 13 16  1  0  0  0
 16 17  2  0  0  0
 17 18  1  0  0  0
 17 19  1  0  0  0
 19 20  2  0  0  0
 20 21  1  0  0  0
 21 22  2  0  0  0
 13 14  2  0  0  0
  6  1  1  0  0  0
 22 16  1  0  0  0
 11  1  1  0  0  0
 12 15  1  0  0  0
M  END
> <minimizedAffinity>
-5.52778

> <CNNscore>
0.4074809253

> <CNNaffinity>
4.4006247520

> <CNN_VS>
1.7931706905

> <CNNaffinity_variance>
0.2374394685

$$$$
[H]c1nc2c([H])c([H])c([H])c([H])c2c(N([H])C(=O)c2c([H])c([H])c([H])c([H])c2F)c1C([H])([H])[H]


 22 24  0  0  0  0  0  0  0  0999 V2000
    4.1179    2.8859   17.8984 C   0  0  0  0  0  0  0  0  0  0  0  0
    4.1485    3.7404   16.8360 C   0  0  0  0  0  0  0  0  0  0  0  0
    3.7703    3.3604   15.5742 C   0  0  0  0  0  0  0  0  0  0  0  0
    3.3392    2.0672   15.3513 C   0  0  0  0  0  0  0  0  0  0  0  0
    3.2945    1.1736   16.4024 C   0  0  0  0  0  0  0  0  0  0  0  0
    3.6804    1.5753   17.6697 C   0  0  0  0  0  0  0  0  0  0  0  0
    3.6434    0.7194   18.7040 N   0  0  0  0  0  0  0  0  0  0  0  0
    4.0214    1.1190   19.9370 C   0  0  0  0  0  0  0  0  0  0  0  0
    4.4592    2.4163   20.1860 C   0  0  0  0  0  0  0  0  0  0  0  0
    4.8623    2.7958   21.5670 C   0  0  0  0  0  0  0  0  0  0  0  0
    4.5040    3.3052   19.1424 C   0  0  0  0  0  0  0  0  0  0  0  0
    4.9454    4.6660   19.3184 N   0  0  0  0  0  0  0  0  0  0  0  0
    4.0558    5.6714   19.7090 C   0  0  0  0  0  0  0  0  0  0  0  0
    2.8209    5.3524   19.9064 O   0  0  0  0  0  0  0  0  0  0  0  0
    5.9444    4.8083   19.1260 H   0  0  0  0  0  0  0  0  0  0  0  0
    4.3595    7.0667   19.9233 C   0  0  0  0  0  0  0  0  0  0  0  0
    5.0309    7.5828   21.0056 C   0  0  0  0  0  0  0  0  0  0  0  0
    5.4515    6.7982   22.0018 F   0  0  0  0  0  0  0  0  0  0  0  0
    5.3101    8.9460   21.1503 C   0  0  0  0  0  0  0  0  0  0  0  0
    4.9202    9.8360   20.2065 C   0  0  0  0  0  0  0  0  0  0  0  0
    4.2446    9.3685   19.1048 C   0  0  0  0  0  0  0  0  0  0  0  0
    3.9743    8.0294   18.9695 C   0  0  0  0  0  0  0  0  0  0  0  0
  1  2  2  0  0  0
  2  3  1  0  0  0
  3  4  2  0  0  0
  4  5  1  0  0  0
  5  6  2  0  0  0
  6  7  1  0  0  0
  7  8  2  0  0  0
  8  9  1  0  0  0
  9 10  1  0  0  0
  9 11  2  0  0  0
 11 12  1  0  0  0
 12 13  1  0  0  0
 13 16  1  0  0  0
 16 17  2  0  0  0
 17 18  1  0  0  0
 17 19  1  0  0  0
 19 20  2  0  0  0
 20 21  1  0  0  0
 21 22  2  0  0  0
 13 14  2  0  0  0
  6  1  1  0  0  0
 22 16  1  0  0  0
 11  1  1  0  0  0
 12 15  1  0  0  0
M  END
> <minimizedAffinity>
-8.20367

> <CNNscore>
0.3488785923

> <CNNaffinity>
5.2413749695

> <CNN_VS>
1.8286035061

> <CNNaffinity_variance>
0.6174519658

$$$$
[H]c1nc2c([H])c([H])c([H])c([H])c2c(N([H])C(=O)c2c([H])c([H])c([H])c([H])c2F)c1C([H])([H])[H]


 22 24  0  0  0  0  0  0  0  0999 V2000
    3.9429    1.3150   19.5328 C   0  0  0  0  0  0  0  0  0  0  0  0
    4.2916    1.6405   18.2552 C   0  0  0  0  0  0  0  0  0  0  0  0
    3.7581    1.0076   17.1623 C   0  0  0  0  0  0  0  0  0  0  0  0
    2.8310   -0.0004   17.3425 C   0  0  0  0  0  0  0  0  0  0  0  0
    2.4532   -0.3577   18.6211 C   0  0  0  0  0  0  0  0  0  0  0  0
    3.0027    0.2926   19.7126 C   0  0  0  0  0  0  0  0  0  0  0  0
    2.6469   -0.0418   20.9638 N   0  0  0  0  0  0  0  0  0  0  0  0
    3.1875    0.5973   22.0231 C   0  0  0  0  0  0  0  0  0  0  0  0
    4.1230    1.6156   21.8667 C   0  0  0  0  0  0  0  0  0  0  0  0
    4.6822    2.2817   23.0740 C   0  0  0  0  0  0  0  0  0  0  0  0
    4.4992    1.9716   20.5967 C   0  0  0  0  0  0  0  0  0  0  0  0
    5.4620    3.0158   20.3511 N   0  0  0  0  0  0  0  0  0  0  0  0
    5.0707    4.3548   20.2578 C   0  0  0  0  0  0  0  0  0  0  0  0
    3.8186    4.6368   20.3940 O   0  0  0  0  0  0  0  0  0  0  0  0
    6.4268    2.6777   20.2501 H   0  0  0  0  0  0  0  0  0  0  0  0
    5.9228    5.4956   20.0187 C   0  0  0  0  0  0  0  0  0  0  0  0
    6.5906    6.2122   20.9826 C   0  0  0  0  0  0  0  0  0  0  0  0
    6.4761    5.9089   22.2787 F   0  0  0  0  0  0  0  0  0  0  0  0
    7.4169    7.3017   20.6871 C   0  0  0  0  0  0  0  0  0  0  0  0
    7.5974    7.7059   19.4068 C   0  0  0  0  0  0  0  0  0  0  0  0
    6.9502    7.0211   18.4065 C   0  0  0  0  0  0  0  0  0  0  0  0
    6.1409    5.9527   18.7040 C   0  0  0  0  0  0  0  0  0  0  0  0
  1  2  2  0  0  0
  2  3  1  0  0  0
  3  4  2  0  0  0
  4  5  1  0  0  0
  5  6  2  0  0  0
  6  7  1  0  0  0
  7  8  2  0  0  0
  8  9  1  0  0  0
  9 10  1  0  0  0
  9 11  2  0  0  0
 11 12  1  0  0  0
 12 13  1  0  0  0
 13 16  1  0  0  0
 16 17  2  0  0  0
 17 18  1  0  0  0
 17 19  1  0  0  0
 19 20  2  0  0  0
 20 21  1  0  0  0
 21 22  2  0  0  0
 13 14  2  0  0  0
  6  1  1  0  0  0
 22 16  1  0  0  0
 11  1  1  0  0  0
 12 15  1  0  0  0
M  END
> <minimizedAffinity>
-8.34932

> <CNNscore>
0.3462264538

> <CNNaffinity>
5.4864201546

> <CNN_VS>
1.8995437622

> <CNNaffinity_variance>
0.3207488954

$$$$
[H]c1nc2c([H])c([H])c([H])c([H])c2c(N([H])C(=O)c2c([H])c([H])c([H])c([H])c2F)c1C([H])([H])[H]


 22 24  0  0  0  0  0  0  0  0999 V2000
    4.1231    3.0130   17.6768 C   0  0  0  0  0  0  0  0  0  0  0  0
    4.1764    3.9146   16.6550 C   0  0  0  0  0  0  0  0  0  0  0  0
    3.8064    3.5980   15.3735 C   0  0  0  0  0  0  0  0  0  0  0  0
    3.3602    2.3224   15.0874 C   0  0  0  0  0  0  0  0  0  0  0  0
    3.2924    1.3824   16.0959 C   0  0  0  0  0  0  0  0  0  0  0  0
    3.6703    1.7205   17.3840 C   0  0  0  0  0  0  0  0  0  0  0  0
    3.6109    0.8188   18.3777 N   0  0  0  0  0  0  0  0  0  0  0  0
    3.9813    1.1564   19.6313 C   0  0  0  0  0  0  0  0  0  0  0  0
    4.4340    2.4348   19.9437 C   0  0  0  0  0  0  0  0  0  0  0  0
    4.8277    2.7451   21.3446 C   0  0  0  0  0  0  0  0  0  0  0  0
    4.5018    3.3697   18.9425 C   0  0  0  0  0  0  0  0  0  0  0  0
    4.9596    4.7147   19.1849 N   0  0  0  0  0  0  0  0  0  0  0  0
    4.0801    5.7130   19.6148 C   0  0  0  0  0  0  0  0  0  0  0  0
    2.8395    5.4020   19.7876 O   0  0  0  0  0  0  0  0  0  0  0  0
    5.9620    4.8521   19.0072 H   0  0  0  0  0  0  0  0  0  0  0  0
    4.4005    7.0925   19.8961 C   0  0  0  0  0  0  0  0  0  0  0  0
    4.2282    8.1468   19.0316 C   0  0  0  0  0  0  0  0  0  0  0  0
    3.7521    7.9630   17.7969 F   0  0  0  0  0  0  0  0  0  0  0  0
    4.5433    9.4677   19.3679 C   0  0  0  0  0  0  0  0  0  0  0  0
    5.0442    9.7699   20.5897 C   0  0  0  0  0  0  0  0  0  0  0  0
    5.2353    8.7492   21.4899 C   0  0  0  0  0  0  0  0  0  0  0  0
    4.9235    7.4554   21.1530 C   0  0  0  0  0  0  0  0  0  0  0  0
  1  2  2  0  0  0
  2  3  1  0  0  0
  3  4  2  0  0  0
  4  5  1  0  0  0
  5  6  2  0  0  0
  6  7  1  0  0  0
  7  8  2  0  0  0
  8  9  1  0  0  0
  9 10  1  0  0  0
  9 11  2  0  0  0
 11 12  1  0  0  0
 12 13  1  0  0  0
 13 16  1  0  0  0
 16 17  2  0  0  0
 17 18  1  0  0  0
 17 19  1  0  0  0
 19 20  2  0  0  0
 20 21  1  0  0  0
 21 22  2  0  0  0
 13 14  2  0  0  0
  6  1  1  0  0  0
 22 16  1  0  0  0
 11  1  1  0  0  0
 12 15  1  0  0  0
M  END
> <minimizedAffinity>
-8.23362

> <CNNscore>
0.3436751962

> <CNNaffinity>
5.1867628098

> <CNN_VS>
1.7825617790

> <CNNaffinity_variance>
0.5544143915

$$$$
[H]c1nc2c([H])c([H])c([H])c([H])c2c(N([H])C(=O)c2c([H])c([H])c([H])c([H])c2F)c1C([H])([H])[H]


 22 24  0  0  0  0  0  0  0  0999 V2000
    4.2609    3.1187   20.9231 C   0  0  0  0  0  0  0  0  0  0  0  0
    4.1640    2.2504   19.8760 C   0  0  0  0  0  0  0  0  0  0  0  0
    3.8867    0.9187   20.0469 C   0  0  0  0  0  0  0  0  0  0  0  0
    3.6952    0.4194   21.3204 C   0  0  0  0  0  0  0  0  0  0  0  0
    3.7853    1.2681   22.4053 C   0  0  0  0  0  0  0  0  0  0  0  0
    4.0662    2.6099   22.2133 C   0  0  0  0  0  0  0  0  0  0  0  0
    4.1577    3.4501   23.2571 N   0  0  0  0  0  0  0  0  0  0  0  0
    4.4320    4.7574   23.0614 C   0  0  0  0  0  0  0  0  0  0  0  0
    4.6289    5.2835   21.7881 C   0  0  0  0  0  0  0  0  0  0  0  0
    4.9282    6.7332   21.6379 C   0  0  0  0  0  0  0  0  0  0  0  0
    4.5395    4.4412   20.7093 C   0  0  0  0  0  0  0  0  0  0  0  0
    4.7302    4.9086   19.3592 N   0  0  0  0  0  0  0  0  0  0  0  0
    3.6854    5.5004   18.6429 C   0  0  0  0  0  0  0  0  0  0  0  0
    2.5371    5.6165   19.2204 O   0  0  0  0  0  0  0  0  0  0  0  0
    5.6793    4.7579   18.9962 H   0  0  0  0  0  0  0  0  0  0  0  0
    3.7359    6.0117   17.2936 C   0  0  0  0  0  0  0  0  0  0  0  0
    3.0241    5.5224   16.2247 C   0  0  0  0  0  0  0  0  0  0  0  0
    2.2116    4.4697   16.3537 F   0  0  0  0  0  0  0  0  0  0  0  0
    3.1031    6.0715   14.9405 C   0  0  0  0  0  0  0  0  0  0  0  0
    3.9048    7.1345   14.6908 C   0  0  0  0  0  0  0  0  0  0  0  0
    4.6377    7.6600   15.7277 C   0  0  0  0  0  0  0  0  0  0  0  0
    4.5549    7.1160   16.9855 C   0  0  0  0  0  0  0  0  0  0  0  0
  1  2  2  0  0  0
  2  3  1  0  0  0
  3  4  2  0  0  0
  4  5  1  0  0  0
  5  6  2  0  0  0
  6  7  1  0  0  0
  7  8  2  0  0  0
  8  9  1  0  0  0
  9 10  1  0  0  0
  9 11  2  0  0  0
 11 12  1  0  0  0
 12 13  1  0  0  0
 13 16  1  0  0  0
 16 17  2  0  0  0
 17 18  1  0  0  0
 17 19  1  0  0  0
 19 20  2  0  0  0
 20 21  1  0  0  0
 21 22  2  0  0  0
 13 14  2  0  0  0
  6  1  1  0  0  0
 22 16  1  0  0  0
 11  1  1  0  0  0
 12 15  1  0  0  0
M  END
> <minimizedAffinity>
-7.24668

> <CNNscore>
0.3013803065

> <CNNaffinity>
5.2634463310

> <CNN_VS>
1.5862990618

> <CNNaffinity_variance>
0.2293446064

$$$$
[H]c1nc2c([H])c([H])c([H])c([H])c2c(N([H])C(=O)c2c([H])c([H])c([H])c([H])c2F)c1C([H])([H])[H]


 22 24  0  0  0  0  0  0  0  0999 V2000
    4.3422    2.4865   20.2435 C   0  0  0  0  0  0  0  0  0  0  0  0
    4.3243    2.8223   21.5651 C   0  0  0  0  0  0  0  0  0  0  0  0
    3.9087    1.9528   22.5403 C   0  0  0  0  0  0  0  0  0  0  0  0
    3.4885    0.6846   22.1899 C   0  0  0  0  0  0  0  0  0  0  0  0
    3.4926    0.3084   20.8617 C   0  0  0  0  0  0  0  0  0  0  0  0
    3.9157    1.1999   19.8910 C   0  0  0  0  0  0  0  0  0  0  0  0
    3.9264    0.8512   18.5940 N   0  0  0  0  0  0  0  0  0  0  0  0
    4.3405    1.7265   17.6532 C   0  0  0  0  0  0  0  0  0  0  0  0
    4.7682    3.0094   17.9818 C   0  0  0  0  0  0  0  0  0  0  0  0
    5.2129    3.9279   16.8991 C   0  0  0  0  0  0  0  0  0  0  0  0
    4.7647    3.3843   19.3012 C   0  0  0  0  0  0  0  0  0  0  0  0
    5.1924    4.6946   19.7226 N   0  0  0  0  0  0  0  0  0  0  0  0
    4.3001    5.7702   19.7624 C   0  0  0  0  0  0  0  0  0  0  0  0
    3.0767    5.5631   19.4073 O   0  0  0  0  0  0  0  0  0  0  0  0
    6.1872    4.7475   19.9737 H   0  0  0  0  0  0  0  0  0  0  0  0
    4.5899    7.1267   20.1631 C   0  0  0  0  0  0  0  0  0  0  0  0
    5.1785    7.5037   21.3463 C   0  0  0  0  0  0  0  0  0  0  0  0
    5.5204    6.6021   22.2710 F   0  0  0  0  0  0  0  0  0  0  0  0
    5.4491    8.8369   21.6724 C   0  0  0  0  0  0  0  0  0  0  0  0
    5.1339    9.8366   20.8143 C   0  0  0  0  0  0  0  0  0  0  0  0
    4.5428    9.5104   19.6174 C   0  0  0  0  0  0  0  0  0  0  0  0
    4.2804    8.1998   19.3041 C   0  0  0  0  0  0  0  0  0  0  0  0
  1  2  2  0  0  0
  2  3  1  0  0  0
  3  4  2  0  0  0
  4  5  1  0  0  0
  5  6  2  0  0  0
  6  7  1  0  0  0
  7  8  2  0  0  0
  8  9  1  0  0  0
  9 10  1  0  0  0
  9 11  2  0  0  0
 11 12  1  0  0  0
 12 13  1  0  0  0
 13 16  1  0  0  0
 16 17  2  0  0  0
 17 18  1  0  0  0
 17 19  1  0  0  0
 19 20  2  0  0  0
 20 21  1  0  0  0
 21 22  2  0  0  0
 13 14  2  0  0  0
  6  1  1  0  0  0
 22 16  1  0  0  0
 11  1  1  0  0  0
 12 15  1  0  0  0
M  END
> <minimizedAffinity>
-8.76815

> <CNNscore>
0.2902683020

> <CNNaffinity>
5.1534032822

> <CNN_VS>
1.4958696365

> <CNNaffinity_variance>
0.4104819894

$$$$
[H]c1nc2c([H])c([H])c([H])c([H])c2c(N([H])C(=O)c2c([H])c([H])c([H])c([H])c2F)c1C([H])([H])[H]


 22 24  0  0  0  0  0  0  0  0999 V2000
    4.2517    2.1945   19.8843 C   0  0  0  0  0  0  0  0  0  0  0  0
    3.7079    1.0279   19.4335 C   0  0  0  0  0  0  0  0  0  0  0  0
    3.2153    0.0692   20.2807 C   0  0  0  0  0  0  0  0  0  0  0  0
    3.2631    0.2750   21.6457 C   0  0  0  0  0  0  0  0  0  0  0  0
    3.8063    1.4439   22.1396 C   0  0  0  0  0  0  0  0  0  0  0  0
    4.2989    2.4006   21.2688 C   0  0  0  0  0  0  0  0  0  0  0  0
    4.8309    3.5437   21.7315 N   0  0  0  0  0  0  0  0  0  0  0  0
    5.3091    4.4718   20.8756 C   0  0  0  0  0  0  0  0  0  0  0  0
    5.2720    4.2870   19.4967 C   0  0  0  0  0  0  0  0  0  0  0  0
    5.8152    5.3474   18.6055 C   0  0  0  0  0  0  0  0  0  0  0  0
    4.7324    3.1259   19.0047 C   0  0  0  0  0  0  0  0  0  0  0  0
    4.6574    2.8595   17.5902 N   0  0  0  0  0  0  0  0  0  0  0  0
    3.6404    3.4075   16.8027 C   0  0  0  0  0  0  0  0  0  0  0  0
    2.7619    4.1600   17.3751 O   0  0  0  0  0  0  0  0  0  0  0  0
    5.4010    2.2419   17.2424 H   0  0  0  0  0  0  0  0  0  0  0  0
    3.4465    3.2274   15.3832 C   0  0  0  0  0  0  0  0  0  0  0  0
    2.9516    2.0961   14.7800 C   0  0  0  0  0  0  0  0  0  0  0  0
    2.6203    1.0160   15.4932 F   0  0  0  0  0  0  0  0  0  0  0  0
    2.7710    1.9864   13.3971 C   0  0  0  0  0  0  0  0  0  0  0  0
    3.0847    3.0161   12.5746 C   0  0  0  0  0  0  0  0  0  0  0  0
    3.5839    4.1695   13.1304 C   0  0  0  0  0  0  0  0  0  0  0  0
    3.7582    4.2701   14.4885 C   0  0  0  0  0  0  0  0  0  0  0  0
  1  2  2  0  0  0
  2  3  1  0  0  0
  3  4  2  0  0  0
  4  5  1  0  0  0
  5  6  2  0  0  0
  6  7  1  0  0  0
  7  8  2  0  0  0
  8  9  1  0  0  0
  9 10  1  0  0  0
  9 11  2  0  0  0
 11 12  1  0  0  0
 12 13  1  0  0  0
 13 16  1  0  0  0
 16 17  2  0  0  0
 17 18  1  0  0  0
 17 19  1  0  0  0
 19 20  2  0  0  0
 20 21  1  0  0  0
 21 22  2  0  0  0
 13 14  2  0  0  0
  6  1  1  0  0  0
 22 16  1  0  0  0
 11  1  1  0  0  0
 12 15  1  0  0  0
M  END
> <minimizedAffinity>
-8.07894

> <CNNscore>
0.2887516618

> <CNNaffinity>
5.4039258957

> <CNN_VS>
1.5603926182

> <CNNaffinity_variance>
0.1869104952

$$$$
[H]c1nc2c([H])c([H])c([H])c([H])c2c(N([H])C(=O)c2c([H])c([H])c([H])c([H])c2F)c1C([H])([H])[H]


 22 24  0  0  0  0  0  0  0  0999 V2000
    4.7380    2.6872   19.6764 C   0  0  0  0  0  0  0  0  0  0  0  0
    5.0854    3.4751   18.6189 C   0  0  0  0  0  0  0  0  0  0  0  0
    4.8029    3.1331   17.3217 C   0  0  0  0  0  0  0  0  0  0  0  0
    4.1421    1.9495   17.0563 C   0  0  0  0  0  0  0  0  0  0  0  0
    3.7743    1.1258   18.1012 C   0  0  0  0  0  0  0  0  0  0  0  0
    4.0680    1.4877   19.4046 C   0  0  0  0  0  0  0  0  0  0  0  0
    3.7178    0.6987   20.4335 N   0  0  0  0  0  0  0  0  0  0  0  0
    4.0080    1.0588   21.7019 C   0  0  0  0  0  0  0  0  0  0  0  0
    4.6728    2.2460   21.9940 C   0  0  0  0  0  0  0  0  0  0  0  0
    4.9639    2.5870   23.4127 C   0  0  0  0  0  0  0  0  0  0  0  0
    5.0387    3.0653   20.9567 C   0  0  0  0  0  0  0  0  0  0  0  0
    5.7298    4.3110   21.1762 N   0  0  0  0  0  0  0  0  0  0  0  0
    5.0306    5.4850   21.4726 C   0  0  0  0  0  0  0  0  0  0  0  0
    3.7431    5.4288   21.5423 O   0  0  0  0  0  0  0  0  0  0  0  0
    6.7509    4.2424   21.0874 H   0  0  0  0  0  0  0  0  0  0  0  0
    5.5908    6.7933   21.7162 C   0  0  0  0  0  0  0  0  0  0  0  0
    6.8060    7.0468   22.3058 C   0  0  0  0  0  0  0  0  0  0  0  0
    7.5874    6.0550   22.7425 F   0  0  0  0  0  0  0  0  0  0  0  0
    7.3037    8.3396   22.5011 C   0  0  0  0  0  0  0  0  0  0  0  0
    6.5906    9.4221   22.1078 C   0  0  0  0  0  0  0  0  0  0  0  0
    5.3682    9.2204   21.5131 C   0  0  0  0  0  0  0  0  0  0  0  0
    4.8863    7.9488   21.3245 C   0  0  0  0  0  0  0  0  0  0  0  0
  1  2  2  0  0  0
  2  3  1  0  0  0
  3  4  2  0  0  0
  4  5  1  0  0  0
  5  6  2  0  0  0
  6  7  1  0  0  0
  7  8  2  0  0  0
  8  9  1  0  0  0
  9 10  1  0  0  0
  9 11  2  0  0  0
 11 12  1  0  0  0
 12 13  1  0  0  0
 13 16  1  0  0  0
 16 17  2  0  0  0
 17 18  1  0  0  0
 17 19  1  0  0  0
 19 20  2  0  0  0
 20 21  1  0  0  0
 21 22  2  0  0  0
 13 14  2  0  0  0
  6  1  1  0  0  0
 22 16  1  0  0  0
 11  1  1  0  0  0
 12 15  1  0  0  0
M  END
> <minimizedAffinity>
-8.36390

> <CNNscore>
0.2517807782

> <CNNaffinity>
5.0177607536

> <CNN_VS>
1.2633757591

> <CNNaffinity_variance>
0.3221798539

$$$$
[H]OC(=O)[C@@]([H])(N([H])C(=O)[C@@]([H])(N([H])C(=O)[C@@]([H])(N([H])C(=O)OC([H])([H])c1c([H])c([H])c([H])c([H])c1[H])C([H])([H])c1c([H])c([H])c([H])c([H])c1[H])C([H])([H])C([H])(C([H])([H])[H])C([H])([H])[H])C([H])([H])c1c([H])c([H])c([H])c([H])c1[H]


 45 47  0  0  0  0  0  0  0  0999 V2000
    4.1436    7.3226   18.6218 N   0  0  0  0  0  0  0  0  0  0  0  0
    4.9110    6.4113   17.8207 C   0  0  0  0  0  0  0  0  0  0  0  0
    6.1926    6.4509   17.8798 O   0  0  0  0  0  0  0  0  0  0  0  0
    3.1213    7.2430   18.5672 H   0  0  0  0  0  0  0  0  0  0  0  0
    4.7546    8.2901   19.4690 C   0  0  0  0  0  0  0  0  0  0  0  0
    5.1574    7.8392   20.8037 C   0  0  0  0  0  0  0  0  0  0  0  0
    4.7705    8.4456   21.8197 O   0  0  0  0  0  0  0  0  0  0  0  0
    5.9872    6.7065   20.9929 N   0  0  0  0  0  0  0  0  0  0  0  0
    6.3264    6.1928   20.1705 H   0  0  0  0  0  0  0  0  0  0  0  0
    6.3733    6.2503   22.3383 C   0  0  0  0  0  0  0  0  0  0  0  0
    7.2269    7.2096   23.0096 C   0  0  0  0  0  0  0  0  0  0  0  0
    6.8593    7.8747   24.1571 O   0  0  0  0  0  0  0  0  0  0  0  0
    8.3908    7.5025   22.5650 O   0  0  0  0  0  0  0  0  0  0  0  0
    7.5370    8.1445   24.8529 H   0  0  0  0  0  0  0  0  0  0  0  0
    6.9142    4.8733   22.1275 C   0  0  0  0  0  0  0  0  0  0  0  0
    5.8819    3.8498   22.2872 C   0  0  0  0  0  0  0  0  0  0  0  0
    6.0744    2.5720   21.7818 C   0  0  0  0  0  0  0  0  0  0  0  0
    5.0938    1.6267   21.9321 C   0  0  0  0  0  0  0  0  0  0  0  0
    3.9334    1.9390   22.5749 C   0  0  0  0  0  0  0  0  0  0  0  0
    3.7372    3.2256   23.0850 C   0  0  0  0  0  0  0  0  0  0  0  0
    4.7138    4.1869   22.9422 C   0  0  0  0  0  0  0  0  0  0  0  0
    4.0463    9.6177   19.4877 C   0  0  0  0  0  0  0  0  0  0  0  0
    2.3492   11.1063   18.3366 C   0  0  0  0  0  0  0  0  0  0  0  0
    3.4450   10.1094   18.2398 C   0  0  0  0  0  0  0  0  0  0  0  0
    4.4210   10.5667   17.1733 C   0  0  0  0  0  0  0  0  0  0  0  0
    4.3334    5.4251   16.9175 C   0  0  0  0  0  0  0  0  0  0  0  0
    4.0376    6.0242   15.6059 N   0  0  0  0  0  0  0  0  0  0  0  0
    2.7401    5.9683   15.1003 C   0  0  0  0  0  0  0  0  0  0  0  0
    1.8301    5.4125   15.7484 O   0  0  0  0  0  0  0  0  0  0  0  0
    4.7966    6.4813   15.0729 H   0  0  0  0  0  0  0  0  0  0  0  0
    2.4424    6.5281   13.8756 O   0  0  0  0  0  0  0  0  0  0  0  0
    1.5114    7.5761   13.7154 C   0  0  0  0  0  0  0  0  0  0  0  0
    0.3725    7.0039   12.9292 C   0  0  0  0  0  0  0  0  0  0  0  0
   -0.8022    6.7463   13.6156 C   0  0  0  0  0  0  0  0  0  0  0  0
   -1.8807    6.2200   12.9132 C   0  0  0  0  0  0  0  0  0  0  0  0
   -1.7735    5.9632   11.5593 C   0  0  0  0  0  0  0  0  0  0  0  0
   -0.6028    6.2195   10.8735 C   0  0  0  0  0  0  0  0  0  0  0  0
    0.4582    6.7395   11.5755 C   0  0  0  0  0  0  0  0  0  0  0  0
    5.1492    4.1924   16.7532 C   0  0  0  0  0  0  0  0  0  0  0  0
    4.4159    2.9336   16.9485 C   0  0  0  0  0  0  0  0  0  0  0  0
    3.6816    2.2970   15.9799 C   0  0  0  0  0  0  0  0  0  0  0  0
    3.0150    1.1283   16.2136 C   0  0  0  0  0  0  0  0  0  0  0  0
    3.0570    0.5374   17.4497 C   0  0  0  0  0  0  0  0  0  0  0  0
    3.7903    1.1724   18.4179 C   0  0  0  0  0  0  0  0  0  0  0  0
    4.4665    2.3433   18.2079 C   0  0  0  0  0  0  0  0  0  0  0  0
 23 24  1  0  0  0
 24 25  1  0  0  0
 24 22  1  0  0  0
 22  5  1  0  0  0
  5  1  1  0  0  0
  1  2  1  0  0  0
  2  3  2  0  0  0
  2 26  1  0  0  0
 26 39  1  0  0  0
 39 40  1  0  0  0
 40 41  2  0  0  0
 41 42  1  0  0  0
 42 43  2  0  0  0
 43 44  1  0  0  0
 44 45  2  0  0  0
 26 27  1  0  0  0
 27 28  1  0  0  0
 28 29  2  0  0  0
 28 31  1  0  0  0
 31 32  1  0  0  0
 32 33  1  0  0  0
 33 34  2  0  0  0
 34 35  1  0  0  0
 35 36  2  0  0  0
 36 37  1  0  0  0
 37 38  2  0  0  0
  5  6  1  0  0  0
  6  7  2  0  0  0
  6  8  1  0  0  0
  8 10  1  0  0  0
 10 15  1  0  0  0
 15 16  1  0  0  0
 16 17  2  0  0  0
 17 18  1  0  0  0
 18 19  2  0  0  0
 19 20  1  0  0  0
 20 21  2  0  0  0
 10 11  1  0  0  0
 11 12  1  0  0  0
 11 13  2  0  0  0
 45 40  1  0  0  0
 38 33  1  0  0  0
 21 16  1  0  0  0
  1  4  1  0  0  0
 27 30  1  0  0  0
  8  9  1  0  0  0
 12 14  1  0  0  0
M  END
> <minimizedAffinity>
-9.15889

> <CNNscore>
0.5062082410

> <CNNaffinity>
6.7221860886

> <CNN_VS>
3.4028260708

> <CNNaffinity_variance>
0.4189356863

$$$$
[H]OC(=O)[C@@]([H])(N([H])C(=O)[C@@]([H])(N([H])C(=O)[C@@]([H])(N([H])C(=O)OC([H])([H])c1c([H])c([H])c([H])c([H])c1[H])C([H])([H])c1c([H])c([H])c([H])c([H])c1[H])C([H])([H])C([H])(C([H])([H])[H])C([H])([H])[H])C([H])([H])c1c([H])c([H])c([H])c([H])c1[H]


 45 47  0  0  0  0  0  0  0  0999 V2000
    3.7013    4.8216   20.0508 N   0  0  0  0  0  0  0  0  0  0  0  0
    4.5236    4.4594   18.9311 C   0  0  0  0  0  0  0  0  0  0  0  0
    5.7604    4.8027   18.9244 O   0  0  0  0  0  0  0  0  0  0  0  0
    2.7241    4.5068   20.0318 H   0  0  0  0  0  0  0  0  0  0  0  0
    4.2037    5.5712   21.1520 C   0  0  0  0  0  0  0  0  0  0  0  0
    4.6374    6.9430   20.8746 C   0  0  0  0  0  0  0  0  0  0  0  0
    5.1477    7.6387   21.7720 O   0  0  0  0  0  0  0  0  0  0  0  0
    4.5022    7.5261   19.5904 N   0  0  0  0  0  0  0  0  0  0  0  0
    4.0773    6.9758   18.8342 H   0  0  0  0  0  0  0  0  0  0  0  0
    4.9562    8.8994   19.3161 C   0  0  0  0  0  0  0  0  0  0  0  0
    3.8975    9.7169   18.7589 C   0  0  0  0  0  0  0  0  0  0  0  0
    2.5691    9.5544   19.0802 O   0  0  0  0  0  0  0  0  0  0  0  0
    4.1394   10.6512   17.9182 O   0  0  0  0  0  0  0  0  0  0  0  0
    1.9294   10.3333   19.0974 H   0  0  0  0  0  0  0  0  0  0  0  0
    6.1983    8.7294   18.5027 C   0  0  0  0  0  0  0  0  0  0  0  0
    7.3674    8.4614   19.3393 C   0  0  0  0  0  0  0  0  0  0  0  0
    8.1159    7.3080   19.1532 C   0  0  0  0  0  0  0  0  0  0  0  0
    9.2036    7.0673   19.9511 C   0  0  0  0  0  0  0  0  0  0  0  0
    9.5499    7.9563   20.9243 C   0  0  0  0  0  0  0  0  0  0  0  0
    8.7975    9.1191   21.1136 C   0  0  0  0  0  0  0  0  0  0  0  0
    7.7014    9.3754   20.3193 C   0  0  0  0  0  0  0  0  0  0  0  0
    5.1765    4.8117   22.0129 C   0  0  0  0  0  0  0  0  0  0  0  0
    5.7348    2.6595   23.2286 C   0  0  0  0  0  0  0  0  0  0  0  0
    4.7131    3.5881   22.6829 C   0  0  0  0  0  0  0  0  0  0  0  0
    3.6275    3.7776   23.7243 C   0  0  0  0  0  0  0  0  0  0  0  0
    4.0493    3.7202   17.7689 C   0  0  0  0  0  0  0  0  0  0  0  0
    4.3004    4.4733   16.5294 N   0  0  0  0  0  0  0  0  0  0  0  0
    3.4689    4.2826   15.4274 C   0  0  0  0  0  0  0  0  0  0  0  0
    2.5172    3.4774   15.4826 O   0  0  0  0  0  0  0  0  0  0  0  0
    5.0920    5.1373   16.4894 H   0  0  0  0  0  0  0  0  0  0  0  0
    3.6852    4.9825   14.2590 O   0  0  0  0  0  0  0  0  0  0  0  0
    3.1332    4.5975   13.0189 C   0  0  0  0  0  0  0  0  0  0  0  0
    2.0085    5.5493   12.7511 C   0  0  0  0  0  0  0  0  0  0  0  0
    0.7211    5.0722   12.9308 C   0  0  0  0  0  0  0  0  0  0  0  0
   -0.3455    5.9327   12.6959 C   0  0  0  0  0  0  0  0  0  0  0  0
   -0.1162    7.2346   12.2924 C   0  0  0  0  0  0  0  0  0  0  0  0
    1.1670    7.7119   12.1127 C   0  0  0  0  0  0  0  0  0  0  0  0
    2.2154    6.8545   12.3469 C   0  0  0  0  0  0  0  0  0  0  0  0
    4.5922    2.3400   17.6569 C   0  0  0  0  0  0  0  0  0  0  0  0
    3.9742    1.3564   18.5574 C   0  0  0  0  0  0  0  0  0  0  0  0
    2.9664    0.4953   18.2029 C   0  0  0  0  0  0  0  0  0  0  0  0
    2.4233   -0.3997   19.0798 C   0  0  0  0  0  0  0  0  0  0  0  0
    2.8755   -0.4713   20.3719 C   0  0  0  0  0  0  0  0  0  0  0  0
    3.8823    0.3882   20.7269 C   0  0  0  0  0  0  0  0  0  0  0  0
    4.4421    1.2931   19.8667 C   0  0  0  0  0  0  0  0  0  0  0  0
 23 24  1  0  0  0
 24 25  1  0  0  0
 24 22  1  0  0  0
 22  5  1  0  0  0
  5  1  1  0  0  0
  1  2  1  0  0  0
  2  3  2  0  0  0
  2 26  1  0  0  0
 26 39  1  0  0  0
 39 40  1  0  0  0
 40 41  2  0  0  0
 41 42  1  0  0  0
 42 43  2  0  0  0
 43 44  1  0  0  0
 44 45  2  0  0  0
 26 27  1  0  0  0
 27 28  1  0  0  0
 28 29  2  0  0  0
 28 31  1  0  0  0
 31 32  1  0  0  0
 32 33  1  0  0  0
 33 34  2  0  0  0
 34 35  1  0  0  0
 35 36  2  0  0  0
 36 37  1  0  0  0
 37 38  2  0  0  0
  5  6  1  0  0  0
  6  7  2  0  0  0
  6  8  1  0  0  0
  8 10  1  0  0  0
 10 15  1  0  0  0
 15 16  1  0  0  0
 16 17  2  0  0  0
 17 18  1  0  0  0
 18 19  2  0  0  0
 19 20  1  0  0  0
 20 21  2  0  0  0
 10 11  1  0  0  0
 11 12  1  0  0  0
 11 13  2  0  0  0
 45 40  1  0  0  0
 38 33  1  0  0  0
 21 16  1  0  0  0
  1  4  1  0  0  0
 27 30  1  0  0  0
  8  9  1  0  0  0
 12 14  1  0  0  0
M  END
> <minimizedAffinity>
-7.97628

> <CNNscore>
0.4775949717

> <CNNaffinity>
6.9395513535

> <CNN_VS>
3.3142948151

> <CNNaffinity_variance>
0.1604753435

$$$$
[H]OC(=O)[C@@]([H])(N([H])C(=O)[C@@]([H])(N([H])C(=O)[C@@]([H])(N([H])C(=O)OC([H])([H])c1c([H])c([H])c([H])c([H])c1[H])C([H])([H])c1c([H])c([H])c([H])c([H])c1[H])C([H])([H])C([H])(C([H])([H])[H])C([H])([H])[H])C([H])([H])c1c([H])c([H])c([H])c([H])c1[H]


 45 47  0  0  0  0  0  0  0  0999 V2000
    4.8871    6.2002   16.9405 N   0  0  0  0  0  0  0  0  0  0  0  0
    4.0450    5.0965   17.3064 C   0  0  0  0  0  0  0  0  0  0  0  0
    3.3047    5.1919   18.3506 O   0  0  0  0  0  0  0  0  0  0  0  0
    5.4449    6.0964   16.0847 H   0  0  0  0  0  0  0  0  0  0  0  0
    4.9488    7.3969   17.7094 C   0  0  0  0  0  0  0  0  0  0  0  0
    5.4107    7.2694   19.0941 C   0  0  0  0  0  0  0  0  0  0  0  0
    6.6273    7.2715   19.3578 O   0  0  0  0  0  0  0  0  0  0  0  0
    4.5056    7.1464   20.1772 N   0  0  0  0  0  0  0  0  0  0  0  0
    3.4964    7.1345   19.9861 H   0  0  0  0  0  0  0  0  0  0  0  0
    4.9779    7.0359   21.5672 C   0  0  0  0  0  0  0  0  0  0  0  0
    5.4140    8.3139   22.0926 C   0  0  0  0  0  0  0  0  0  0  0  0
    6.3282    8.4386   23.1139 O   0  0  0  0  0  0  0  0  0  0  0  0
    4.9640    9.4203   21.6326 O   0  0  0  0  0  0  0  0  0  0  0  0
    6.9603    9.2221   23.1660 H   0  0  0  0  0  0  0  0  0  0  0  0
    5.9762    5.9243   21.5379 C   0  0  0  0  0  0  0  0  0  0  0  0
    5.4938    4.7371   22.2424 C   0  0  0  0  0  0  0  0  0  0  0  0
    6.2446    3.5703   22.2502 C   0  0  0  0  0  0  0  0  0  0  0  0
    5.7745    2.4638   22.9078 C   0  0  0  0  0  0  0  0  0  0  0  0
    4.5743    2.5076   23.5519 C   0  0  0  0  0  0  0  0  0  0  0  0
    3.8162    3.6821   23.5457 C   0  0  0  0  0  0  0  0  0  0  0  0
    4.2754    4.8030   22.8892 C   0  0  0  0  0  0  0  0  0  0  0  0
    3.7308    8.2705   17.5758 C   0  0  0  0  0  0  0  0  0  0  0  0
    3.6509   10.5683   18.6412 C   0  0  0  0  0  0  0  0  0  0  0  0
    3.9198    9.7229   17.4509 C   0  0  0  0  0  0  0  0  0  0  0  0
    5.2302   10.1661   16.8299 C   0  0  0  0  0  0  0  0  0  0  0  0
    3.9694    3.8418   16.5700 C   0  0  0  0  0  0  0  0  0  0  0  0
    4.2403    4.0559   15.1391 N   0  0  0  0  0  0  0  0  0  0  0  0
    3.4034    3.4784   14.1861 C   0  0  0  0  0  0  0  0  0  0  0  0
    2.4303    2.7801   14.5360 O   0  0  0  0  0  0  0  0  0  0  0  0
    5.0496    4.6336   14.8556 H   0  0  0  0  0  0  0  0  0  0  0  0
    3.6381    3.6713   12.8409 O   0  0  0  0  0  0  0  0  0  0  0  0
    2.6151    3.9758   11.9181 C   0  0  0  0  0  0  0  0  0  0  0  0
    2.3909    2.7289   11.1195 C   0  0  0  0  0  0  0  0  0  0  0  0
    1.1513    2.1223   11.2308 C   0  0  0  0  0  0  0  0  0  0  0  0
    0.9091    0.9658   10.4977 C   0  0  0  0  0  0  0  0  0  0  0  0
    1.8902    0.4407    9.6780 C   0  0  0  0  0  0  0  0  0  0  0  0
    3.1270    1.0446    9.5660 C   0  0  0  0  0  0  0  0  0  0  0  0
    3.3578    2.1871   10.2942 C   0  0  0  0  0  0  0  0  0  0  0  0
    4.8399    2.7623   17.1075 C   0  0  0  0  0  0  0  0  0  0  0  0
    4.1534    1.7778   17.9560 C   0  0  0  0  0  0  0  0  0  0  0  0
    3.2904    0.8151   17.4968 C   0  0  0  0  0  0  0  0  0  0  0  0
    2.6747   -0.0760   18.3286 C   0  0  0  0  0  0  0  0  0  0  0  0
    2.9023   -0.0395   19.6799 C   0  0  0  0  0  0  0  0  0  0  0  0
    3.7644    0.9216   20.1396 C   0  0  0  0  0  0  0  0  0  0  0  0
    4.3929    1.8248   19.3263 C   0  0  0  0  0  0  0  0  0  0  0  0
 23 24  1  0  0  0
 24 25  1  0  0  0
 24 22  1  0  0  0
 22  5  1  0  0  0
  5  1  1  0  0  0
  1  2  1  0  0  0
  2  3  2  0  0  0
  2 26  1  0  0  0
 26 39  1  0  0  0
 39 40  1  0  0  0
 40 41  2  0  0  0
 41 42  1  0  0  0
 42 43  2  0  0  0
 43 44  1  0  0  0
 44 45  2  0  0  0
 26 27  1  0  0  0
 27 28  1  0  0  0
 28 29  2  0  0  0
 28 31  1  0  0  0
 31 32  1  0  0  0
 32 33  1  0  0  0
 33 34  2  0  0  0
 34 35  1  0  0  0
 35 36  2  0  0  0
 36 37  1  0  0  0
 37 38  2  0  0  0
  5  6  1  0  0  0
  6  7  2  0  0  0
  6  8  1  0  0  0
  8 10  1  0  0  0
 10 15  1  0  0  0
 15 16  1  0  0  0
 16 17  2  0  0  0
 17 18  1  0  0  0
 18 19  2  0  0  0
 19 20  1  0  0  0
 20 21  2  0  0  0
 10 11  1  0  0  0
 11 12  1  0  0  0
 11 13  2  0  0  0
 45 40  1  0  0  0
 38 33  1  0  0  0
 21 16  1  0  0  0
  1  4  1  0  0  0
 27 30  1  0  0  0
  8  9  1  0  0  0
 12 14  1  0  0  0
M  END
> <minimizedAffinity>
-8.24516

> <CNNscore>
0.4766895771

> <CNNaffinity>
6.8436722755

> <CNN_VS>
3.2623071671

> <CNNaffinity_variance>
0.2268773615

$$$$
[H]OC(=O)[C@@]([H])(N([H])C(=O)[C@@]([H])(N([H])C(=O)[C@@]([H])(N([H])C(=O)OC([H])([H])c1c([H])c([H])c([H])c([H])c1[H])C([H])([H])c1c([H])c([H])c([H])c([H])c1[H])C([H])([H])C([H])(C([H])([H])[H])C([H])([H])[H])C([H])([H])c1c([H])c([H])c([H])c([H])c1[H]


 45 47  0  0  0  0  0  0  0  0999 V2000
    4.7173    7.8877   21.6107 N   0  0  0  0  0  0  0  0  0  0  0  0
    5.0366    6.4952   21.4683 C   0  0  0  0  0  0  0  0  0  0  0  0
    6.2448    6.1530   21.2023 O   0  0  0  0  0  0  0  0  0  0  0  0
    3.7461    8.1205   21.8491 H   0  0  0  0  0  0  0  0  0  0  0  0
    5.6923    8.9120   21.4457 C   0  0  0  0  0  0  0  0  0  0  0  0
    6.5490    9.2006   22.5989 C   0  0  0  0  0  0  0  0  0  0  0  0
    6.1794   10.0025   23.4764 O   0  0  0  0  0  0  0  0  0  0  0  0
    7.8136    8.5837   22.7656 N   0  0  0  0  0  0  0  0  0  0  0  0
    8.1454    7.9237   22.0518 H   0  0  0  0  0  0  0  0  0  0  0  0
    8.6606    8.8666   23.9360 C   0  0  0  0  0  0  0  0  0  0  0  0
    9.8739    9.5679   23.5677 C   0  0  0  0  0  0  0  0  0  0  0  0
   10.3318    9.6562   22.2727 O   0  0  0  0  0  0  0  0  0  0  0  0
   10.6053   10.1527   24.4402 O   0  0  0  0  0  0  0  0  0  0  0  0
   10.8420   10.4617   21.9453 H   0  0  0  0  0  0  0  0  0  0  0  0
    8.8067    7.5472   24.6221 C   0  0  0  0  0  0  0  0  0  0  0  0
    9.8340    6.7159   23.9960 C   0  0  0  0  0  0  0  0  0  0  0  0
    9.5750    6.0577   22.8022 C   0  0  0  0  0  0  0  0  0  0  0  0
   10.5454    5.2756   22.2327 C   0  0  0  0  0  0  0  0  0  0  0  0
   11.7605    5.1434   22.8354 C   0  0  0  0  0  0  0  0  0  0  0  0
   12.0239    5.8057   24.0380 C   0  0  0  0  0  0  0  0  0  0  0  0
   11.0587    6.5959   24.6228 C   0  0  0  0  0  0  0  0  0  0  0  0
    5.1641   10.1550   20.7823 C   0  0  0  0  0  0  0  0  0  0  0  0
    5.7544    9.1750   18.5212 C   0  0  0  0  0  0  0  0  0  0  0  0
    4.9670   10.1429   19.3256 C   0  0  0  0  0  0  0  0  0  0  0  0
    3.5260   10.1018   18.8558 C   0  0  0  0  0  0  0  0  0  0  0  0
    4.0695    5.4135   21.5980 C   0  0  0  0  0  0  0  0  0  0  0  0
    3.8866    4.7163   20.3147 N   0  0  0  0  0  0  0  0  0  0  0  0
    3.5022    5.4393   19.1870 C   0  0  0  0  0  0  0  0  0  0  0  0
    3.3094    6.6701   19.2579 O   0  0  0  0  0  0  0  0  0  0  0  0
    4.0457    3.6959   20.2631 H   0  0  0  0  0  0  0  0  0  0  0  0
    3.3304    4.8047   17.9748 O   0  0  0  0  0  0  0  0  0  0  0  0
    4.3572    4.0793   17.3345 C   0  0  0  0  0  0  0  0  0  0  0  0
    3.8077    2.7075   17.0913 C   0  0  0  0  0  0  0  0  0  0  0  0
    3.8349    1.8191   18.1529 C   0  0  0  0  0  0  0  0  0  0  0  0
    3.3268    0.5389   17.9614 C   0  0  0  0  0  0  0  0  0  0  0  0
    2.8076    0.1704   16.7347 C   0  0  0  0  0  0  0  0  0  0  0  0
    2.7798    1.0552   15.6750 C   0  0  0  0  0  0  0  0  0  0  0  0
    3.2842    2.3183   15.8730 C   0  0  0  0  0  0  0  0  0  0  0  0
    4.3805    4.4397   22.6784 C   0  0  0  0  0  0  0  0  0  0  0  0
    4.6923    3.0799   22.2157 C   0  0  0  0  0  0  0  0  0  0  0  0
    3.7825    2.0570   22.1223 C   0  0  0  0  0  0  0  0  0  0  0  0
    4.1242    0.8081   21.6881 C   0  0  0  0  0  0  0  0  0  0  0  0
    5.4149    0.5266   21.3223 C   0  0  0  0  0  0  0  0  0  0  0  0
    6.3244    1.5477   21.4150 C   0  0  0  0  0  0  0  0  0  0  0  0
    6.0061    2.8065   21.8468 C   0  0  0  0  0  0  0  0  0  0  0  0
 23 24  1  0  0  0
 24 25  1  0  0  0
 24 22  1  0  0  0
 22  5  1  0  0  0
  5  1  1  0  0  0
  1  2  1  0  0  0
  2  3  2  0  0  0
  2 26  1  0  0  0
 26 39  1  0  0  0
 39 40  1  0  0  0
 40 41  2  0  0  0
 41 42  1  0  0  0
 42 43  2  0  0  0
 43 44  1  0  0  0
 44 45  2  0  0  0
 26 27  1  0  0  0
 27 28  1  0  0  0
 28 29  2  0  0  0
 28 31  1  0  0  0
 31 32  1  0  0  0
 32 33  1  0  0  0
 33 34  2  0  0  0
 34 35  1  0  0  0
 35 36  2  0  0  0
 36 37  1  0  0  0
 37 38  2  0  0  0
  5  6  1  0  0  0
  6  7  2  0  0  0
  6  8  1  0  0  0
  8 10  1  0  0  0
 10 15  1  0  0  0
 15 16  1  0  0  0
 16 17  2  0  0  0
 17 18  1  0  0  0
 18 19  2  0  0  0
 19 20  1  0  0  0
 20 21  2  0  0  0
 10 11  1  0  0  0
 11 12  1  0  0  0
 11 13  2  0  0  0
 45 40  1  0  0  0
 38 33  1  0  0  0
 21 16  1  0  0  0
  1  4  1  0  0  0
 27 30  1  0  0  0
  8  9  1  0  0  0
 12 14  1  0  0  0
M  END
> <minimizedAffinity>
-9.22938

> <CNNscore>
0.4564032853

> <CNNaffinity>
6.7947745323

> <CNN_VS>
3.1011574268

> <CNNaffinity_variance>
0.1141627580

$$$$
[H]OC(=O)[C@@]([H])(N([H])C(=O)[C@@]([H])(N([H])C(=O)[C@@]([H])(N([H])C(=O)OC([H])([H])c1c([H])c([H])c([H])c([H])c1[H])C([H])([H])c1c([H])c([H])c([H])c([H])c1[H])C([H])([H])C([H])(C([H])([H])[H])C([H])([H])[H])C([H])([H])c1c([H])c([H])c([H])c([H])c1[H]


 45 47  0  0  0  0  0  0  0  0999 V2000
    4.1532    7.2182   18.6003 N   0  0  0  0  0  0  0  0  0  0  0  0
    4.8574    6.2832   17.7690 C   0  0  0  0  0  0  0  0  0  0  0  0
    6.1381    6.3413   17.7057 O   0  0  0  0  0  0  0  0  0  0  0  0
    3.1317    7.1236   18.6453 H   0  0  0  0  0  0  0  0  0  0  0  0
    4.8246    8.2283   19.3458 C   0  0  0  0  0  0  0  0  0  0  0  0
    5.2986    7.8583   20.6821 C   0  0  0  0  0  0  0  0  0  0  0  0
    4.7974    8.3765   21.6969 O   0  0  0  0  0  0  0  0  0  0  0  0
    6.3284    6.9043   20.8739 N   0  0  0  0  0  0  0  0  0  0  0  0
    6.7640    6.4674   20.0526 H   0  0  0  0  0  0  0  0  0  0  0  0
    6.7869    6.5258   22.2207 C   0  0  0  0  0  0  0  0  0  0  0  0
    7.8288    7.4090   22.7045 C   0  0  0  0  0  0  0  0  0  0  0  0
    7.6980    8.7784   22.7488 O   0  0  0  0  0  0  0  0  0  0  0  0
    8.9523    6.9600   23.1222 O   0  0  0  0  0  0  0  0  0  0  0  0
    8.1516    9.3309   23.4596 H   0  0  0  0  0  0  0  0  0  0  0  0
    7.1098    5.0708   22.1129 C   0  0  0  0  0  0  0  0  0  0  0  0
    5.9339    4.2313   22.3387 C   0  0  0  0  0  0  0  0  0  0  0  0
    4.8247    4.7381   23.0006 C   0  0  0  0  0  0  0  0  0  0  0  0
    3.7339    3.9360   23.2120 C   0  0  0  0  0  0  0  0  0  0  0  0
    3.7372    2.6453   22.7746 C   0  0  0  0  0  0  0  0  0  0  0  0
    4.8535    2.1325   22.1073 C   0  0  0  0  0  0  0  0  0  0  0  0
    5.9576    2.9265   21.8870 C   0  0  0  0  0  0  0  0  0  0  0  0
    4.1355    9.5658   19.3179 C   0  0  0  0  0  0  0  0  0  0  0  0
    5.5956   10.2643   17.3681 C   0  0  0  0  0  0  0  0  0  0  0  0
    4.3504   10.4413   18.1567 C   0  0  0  0  0  0  0  0  0  0  0  0
    3.1832   10.5604   17.1962 C   0  0  0  0  0  0  0  0  0  0  0  0
    4.2142    5.2524   16.9653 C   0  0  0  0  0  0  0  0  0  0  0  0
    3.7958    5.7891   15.6601 N   0  0  0  0  0  0  0  0  0  0  0  0
    2.4497    5.7548   15.3011 C   0  0  0  0  0  0  0  0  0  0  0  0
    1.5989    5.2706   16.0748 O   0  0  0  0  0  0  0  0  0  0  0  0
    4.5060    6.1869   15.0226 H   0  0  0  0  0  0  0  0  0  0  0  0
    2.0376    6.2571   14.0847 O   0  0  0  0  0  0  0  0  0  0  0  0
    1.0197    5.6599   13.3114 C   0  0  0  0  0  0  0  0  0  0  0  0
    1.6041    4.3964   12.7594 C   0  0  0  0  0  0  0  0  0  0  0  0
    0.9329    3.2172   13.0348 C   0  0  0  0  0  0  0  0  0  0  0  0
    1.4464    2.0269   12.5319 C   0  0  0  0  0  0  0  0  0  0  0  0
    2.6022    2.0306   11.7740 C   0  0  0  0  0  0  0  0  0  0  0  0
    3.2728    3.2057   11.4984 C   0  0  0  0  0  0  0  0  0  0  0  0
    2.7583    4.3775   11.9996 C   0  0  0  0  0  0  0  0  0  0  0  0
    5.0275    4.0204   16.7836 C   0  0  0  0  0  0  0  0  0  0  0  0
    4.2751    2.7615   16.8809 C   0  0  0  0  0  0  0  0  0  0  0  0
    4.1779    1.9933   18.0137 C   0  0  0  0  0  0  0  0  0  0  0  0
    3.4672    0.8278   18.0513 C   0  0  0  0  0  0  0  0  0  0  0  0
    2.8119    0.3749   16.9357 C   0  0  0  0  0  0  0  0  0  0  0  0
    2.9083    1.1417   15.8038 C   0  0  0  0  0  0  0  0  0  0  0  0
    3.6138    2.3124   15.7416 C   0  0  0  0  0  0  0  0  0  0  0  0
 23 24  1  0  0  0
 24 25  1  0  0  0
 24 22  1  0  0  0
 22  5  1  0  0  0
  5  1  1  0  0  0
  1  2  1  0  0  0
  2  3  2  0  0  0
  2 26  1  0  0  0
 26 39  1  0  0  0
 39 40  1  0  0  0
 40 41  2  0  0  0
 41 42  1  0  0  0
 42 43  2  0  0  0
 43 44  1  0  0  0
 44 45  2  0  0  0
 26 27  1  0  0  0
 27 28  1  0  0  0
 28 29  2  0  0  0
 28 31  1  0  0  0
 31 32  1  0  0  0
 32 33  1  0  0  0
 33 34  2  0  0  0
 34 35  1  0  0  0
 35 36  2  0  0  0
 36 37  1  0  0  0
 37 38  2  0  0  0
  5  6  1  0  0  0
  6  7  2  0  0  0
  6  8  1  0  0  0
  8 10  1  0  0  0
 10 15  1  0  0  0
 15 16  1  0  0  0
 16 17  2  0  0  0
 17 18  1  0  0  0
 18 19  2  0  0  0
 19 20  1  0  0  0
 20 21  2  0  0  0
 10 11  1  0  0  0
 11 12  1  0  0  0
 11 13  2  0  0  0
 45 40  1  0  0  0
 38 33  1  0  0  0
 21 16  1  0  0  0
  1  4  1  0  0  0
 27 30  1  0  0  0
  8  9  1  0  0  0
 12 14  1  0  0  0
M  END
> <minimizedAffinity>
-8.35846

> <CNNscore>
0.4163629413

> <CNNaffinity>
6.6189641953

> <CNN_VS>
2.7558913231

> <CNNaffinity_variance>
0.4958401620

$$$$
[H]OC(=O)[C@@]([H])(N([H])C(=O)[C@@]([H])(N([H])C(=O)[C@@]([H])(N([H])C(=O)OC([H])([H])c1c([H])c([H])c([H])c([H])c1[H])C([H])([H])c1c([H])c([H])c([H])c([H])c1[H])C([H])([H])C([H])(C([H])([H])[H])C([H])([H])[H])C([H])([H])c1c([H])c([H])c([H])c([H])c1[H]


 45 47  0  0  0  0  0  0  0  0999 V2000
    3.0043    5.6448   16.4980 N   0  0  0  0  0  0  0  0  0  0  0  0
    4.1067    6.5030   16.1673 C   0  0  0  0  0  0  0  0  0  0  0  0
    5.2335    6.3322   16.7580 O   0  0  0  0  0  0  0  0  0  0  0  0
    2.1272    5.7954   15.9859 H   0  0  0  0  0  0  0  0  0  0  0  0
    3.1079    4.6179   17.4788 C   0  0  0  0  0  0  0  0  0  0  0  0
    3.3931    5.0422   18.8520 C   0  0  0  0  0  0  0  0  0  0  0  0
    2.5800    5.7469   19.4780 O   0  0  0  0  0  0  0  0  0  0  0  0
    4.5862    4.6689   19.5188 N   0  0  0  0  0  0  0  0  0  0  0  0
    5.2773    4.0939   19.0218 H   0  0  0  0  0  0  0  0  0  0  0  0
    4.8571    5.0855   20.9046 C   0  0  0  0  0  0  0  0  0  0  0  0
    5.3375    6.4508   20.9739 C   0  0  0  0  0  0  0  0  0  0  0  0
    4.5129    7.5318   21.1881 O   0  0  0  0  0  0  0  0  0  0  0  0
    6.5772    6.7366   20.8338 O   0  0  0  0  0  0  0  0  0  0  0  0
    4.8307    8.3502   21.6835 H   0  0  0  0  0  0  0  0  0  0  0  0
    5.7416    4.0134   21.4534 C   0  0  0  0  0  0  0  0  0  0  0  0
    5.0421    2.7346   21.5717 C   0  0  0  0  0  0  0  0  0  0  0  0
    5.4195    1.6516   20.7907 C   0  0  0  0  0  0  0  0  0  0  0  0
    4.7484    0.4626   20.9073 C   0  0  0  0  0  0  0  0  0  0  0  0
    3.7138    0.3428   21.7862 C   0  0  0  0  0  0  0  0  0  0  0  0
    3.3318    1.4324   22.5743 C   0  0  0  0  0  0  0  0  0  0  0  0
    3.9969    2.6343   22.4688 C   0  0  0  0  0  0  0  0  0  0  0  0
    3.9397    3.4417   17.0440 C   0  0  0  0  0  0  0  0  0  0  0  0
    3.2548    2.0653   15.0297 C   0  0  0  0  0  0  0  0  0  0  0  0
    3.2540    2.2601   16.5014 C   0  0  0  0  0  0  0  0  0  0  0  0
    3.5934    0.9391   17.1636 C   0  0  0  0  0  0  0  0  0  0  0  0
    4.0418    7.5851   15.1942 C   0  0  0  0  0  0  0  0  0  0  0  0
    5.3219    7.7277   14.4817 N   0  0  0  0  0  0  0  0  0  0  0  0
    5.9086    8.9865   14.3654 C   0  0  0  0  0  0  0  0  0  0  0  0
    5.3564    9.9917   14.8570 O   0  0  0  0  0  0  0  0  0  0  0  0
    5.7733    6.8912   14.0746 H   0  0  0  0  0  0  0  0  0  0  0  0
    7.1100    9.1395   13.7057 O   0  0  0  0  0  0  0  0  0  0  0  0
    7.3732    8.5643   12.4446 C   0  0  0  0  0  0  0  0  0  0  0  0
    8.8418    8.2726   12.4190 C   0  0  0  0  0  0  0  0  0  0  0  0
    9.2735    7.2803   11.5552 C   0  0  0  0  0  0  0  0  0  0  0  0
   10.6322    6.9892   11.5033 C   0  0  0  0  0  0  0  0  0  0  0  0
   11.5251    7.6806   12.3001 C   0  0  0  0  0  0  0  0  0  0  0  0
   11.0962    8.6704   13.1621 C   0  0  0  0  0  0  0  0  0  0  0  0
    9.7516    8.9516   13.2070 C   0  0  0  0  0  0  0  0  0  0  0  0
    2.9184    7.4723   14.2261 C   0  0  0  0  0  0  0  0  0  0  0  0
    2.9362    6.2599   13.3952 C   0  0  0  0  0  0  0  0  0  0  0  0
    4.0133    5.8287   12.6627 C   0  0  0  0  0  0  0  0  0  0  0  0
    3.9776    4.6945   11.9030 C   0  0  0  0  0  0  0  0  0  0  0  0
    2.8409    3.9306   11.8444 C   0  0  0  0  0  0  0  0  0  0  0  0
    1.7645    4.3604   12.5759 C   0  0  0  0  0  0  0  0  0  0  0  0
    1.7762    5.4926   13.3441 C   0  0  0  0  0  0  0  0  0  0  0  0
 23 24  1  0  0  0
 24 25  1  0  0  0
 24 22  1  0  0  0
 22  5  1  0  0  0
  5  1  1  0  0  0
  1  2  1  0  0  0
  2  3  2  0  0  0
  2 26  1  0  0  0
 26 39  1  0  0  0
 39 40  1  0  0  0
 40 41  2  0  0  0
 41 42  1  0  0  0
 42 43  2  0  0  0
 43 44  1  0  0  0
 44 45  2  0  0  0
 26 27  1  0  0  0
 27 28  1  0  0  0
 28 29  2  0  0  0
 28 31  1  0  0  0
 31 32  1  0  0  0
 32 33  1  0  0  0
 33 34  2  0  0  0
 34 35  1  0  0  0
 35 36  2  0  0  0
 36 37  1  0  0  0
 37 38  2  0  0  0
  5  6  1  0  0  0
  6  7  2  0  0  0
  6  8  1  0  0  0
  8 10  1  0  0  0
 10 15  1  0  0  0
 15 16  1  0  0  0
 16 17  2  0  0  0
 17 18  1  0  0  0
 18 19  2  0  0  0
 19 20  1  0  0  0
 20 21  2  0  0  0
 10 11  1  0  0  0
 11 12  1  0  0  0
 11 13  2  0  0  0
 45 40  1  0  0  0
 38 33  1  0  0  0
 21 16  1  0  0  0
  1  4  1  0  0  0
 27 30  1  0  0  0
  8  9  1  0  0  0
 12 14  1  0  0  0
M  END
> <minimizedAffinity>
-8.55475

> <CNNscore>
0.3498042822

> <CNNaffinity>
6.3165922165

> <CNN_VS>
2.2095711231

> <CNNaffinity_variance>
0.4411976933

$$$$
[H]OC(=O)[C@@]([H])(N([H])C(=O)[C@@]([H])(N([H])C(=O)[C@@]([H])(N([H])C(=O)OC([H])([H])c1c([H])c([H])c([H])c([H])c1[H])C([H])([H])c1c([H])c([H])c([H])c([H])c1[H])C([H])([H])C([H])(C([H])([H])[H])C([H])([H])[H])C([H])([H])c1c([H])c([H])c([H])c([H])c1[H]


 45 47  0  0  0  0  0  0  0  0999 V2000
    5.1164    4.3206   20.2617 N   0  0  0  0  0  0  0  0  0  0  0  0
    4.1922    4.8692   19.3098 C   0  0  0  0  0  0  0  0  0  0  0  0
    3.5661    5.9524   19.5964 O   0  0  0  0  0  0  0  0  0  0  0  0
    5.6173    3.4677   19.9858 H   0  0  0  0  0  0  0  0  0  0  0  0
    5.3504    4.9249   21.5293 C   0  0  0  0  0  0  0  0  0  0  0  0
    6.0971    6.1857   21.5324 C   0  0  0  0  0  0  0  0  0  0  0  0
    7.2909    6.2146   21.1808 O   0  0  0  0  0  0  0  0  0  0  0  0
    5.4994    7.4091   21.9240 N   0  0  0  0  0  0  0  0  0  0  0  0
    4.5175    7.4114   22.2258 H   0  0  0  0  0  0  0  0  0  0  0  0
    6.2521    8.6743   21.9080 C   0  0  0  0  0  0  0  0  0  0  0  0
    6.7856    9.0019   23.2148 C   0  0  0  0  0  0  0  0  0  0  0  0
    6.0467    9.6170   24.1997 O   0  0  0  0  0  0  0  0  0  0  0  0
    7.9966    8.7374   23.5337 O   0  0  0  0  0  0  0  0  0  0  0  0
    6.2103    9.4330   25.1773 H   0  0  0  0  0  0  0  0  0  0  0  0
    5.3213    9.6576   21.2756 C   0  0  0  0  0  0  0  0  0  0  0  0
    5.1433    9.4015   19.8469 C   0  0  0  0  0  0  0  0  0  0  0  0
    6.2364    9.1116   19.0428 C   0  0  0  0  0  0  0  0  0  0  0  0
    6.0539    8.8825   17.7042 C   0  0  0  0  0  0  0  0  0  0  0  0
    4.8043    8.9391   17.1632 C   0  0  0  0  0  0  0  0  0  0  0  0
    3.7015    9.2307   17.9713 C   0  0  0  0  0  0  0  0  0  0  0  0
    3.8687    9.4631   19.3189 C   0  0  0  0  0  0  0  0  0  0  0  0
    5.8213    3.9622   22.5857 C   0  0  0  0  0  0  0  0  0  0  0  0
    3.4987    3.9067   23.5974 C   0  0  0  0  0  0  0  0  0  0  0  0
    4.8139    3.2514   23.3861 C   0  0  0  0  0  0  0  0  0  0  0  0
    4.5763    1.8018   23.0101 C   0  0  0  0  0  0  0  0  0  0  0  0
    3.8968    4.2725   18.0141 C   0  0  0  0  0  0  0  0  0  0  0  0
    4.0613    5.2576   16.9328 N   0  0  0  0  0  0  0  0  0  0  0  0
    2.9549    5.6422   16.1777 C   0  0  0  0  0  0  0  0  0  0  0  0
    1.8291    5.1564   16.4089 O   0  0  0  0  0  0  0  0  0  0  0  0
    4.9973    5.6547   16.7447 H   0  0  0  0  0  0  0  0  0  0  0  0
    3.0880    6.5673   15.1637 O   0  0  0  0  0  0  0  0  0  0  0  0
    3.6027    6.2436   13.8905 C   0  0  0  0  0  0  0  0  0  0  0  0
    2.9514    4.9546   13.4943 C   0  0  0  0  0  0  0  0  0  0  0  0
    1.6895    5.0322   12.9297 C   0  0  0  0  0  0  0  0  0  0  0  0
    1.0596    3.8536   12.5455 C   0  0  0  0  0  0  0  0  0  0  0  0
    1.6873    2.6356   12.7267 C   0  0  0  0  0  0  0  0  0  0  0  0
    2.9457    2.5566   13.2896 C   0  0  0  0  0  0  0  0  0  0  0  0
    3.5609    3.7263   13.6666 C   0  0  0  0  0  0  0  0  0  0  0  0
    4.6732    3.0395   17.7158 C   0  0  0  0  0  0  0  0  0  0  0  0
    3.9062    1.7886   17.8013 C   0  0  0  0  0  0  0  0  0  0  0  0
    3.3201    1.1553   16.7345 C   0  0  0  0  0  0  0  0  0  0  0  0
    2.6141   -0.0061   16.8677 C   0  0  0  0  0  0  0  0  0  0  0  0
    2.4631   -0.5925   18.0975 C   0  0  0  0  0  0  0  0  0  0  0  0
    3.0483    0.0392   19.1637 C   0  0  0  0  0  0  0  0  0  0  0  0
    3.7602    1.2027   19.0553 C   0  0  0  0  0  0  0  0  0  0  0  0
 23 24  1  0  0  0
 24 25  1  0  0  0
 24 22  1  0  0  0
 22  5  1  0  0  0
  5  1  1  0  0  0
  1  2  1  0  0  0
  2  3  2  0  0  0
  2 26  1  0  0  0
 26 39  1  0  0  0
 39 40  1  0  0  0
 40 41  2  0  0  0
 41 42  1  0  0  0
 42 43  2  0  0  0
 43 44  1  0  0  0
 44 45  2  0  0  0
 26 27  1  0  0  0
 27 28  1  0  0  0
 28 29  2  0  0  0
 28 31  1  0  0  0
 31 32  1  0  0  0
 32 33  1  0  0  0
 33 34  2  0  0  0
 34 35  1  0  0  0
 35 36  2  0  0  0
 36 37  1  0  0  0
 37 38  2  0  0  0
  5  6  1  0  0  0
  6  7  2  0  0  0
  6  8  1  0  0  0
  8 10  1  0  0  0
 10 15  1  0  0  0
 15 16  1  0  0  0
 16 17  2  0  0  0
 17 18  1  0  0  0
 18 19  2  0  0  0
 19 20  1  0  0  0
 20 21  2  0  0  0
 10 11  1  0  0  0
 11 12  1  0  0  0
 11 13  2  0  0  0
 45 40  1  0  0  0
 38 33  1  0  0  0
 21 16  1  0  0  0
  1  4  1  0  0  0
 27 30  1  0  0  0
  8  9  1  0  0  0
 12 14  1  0  0  0
M  END
> <minimizedAffinity>
-8.69057

> <CNNscore>
0.3362303674

> <CNNaffinity>
6.9939537048

> <CNN_VS>
2.3515796661

> <CNNaffinity_variance>
0.1417208314

$$$$
[H]OC(=O)[C@@]([H])(N([H])C(=O)[C@@]([H])(N([H])C(=O)[C@@]([H])(N([H])C(=O)OC([H])([H])c1c([H])c([H])c([H])c([H])c1[H])C([H])([H])c1c([H])c([H])c([H])c([H])c1[H])C([H])([H])C([H])(C([H])([H])[H])C([H])([H])[H])C([H])([H])c1c([H])c([H])c([H])c([H])c1[H]


 45 47  0  0  0  0  0  0  0  0999 V2000
    4.8307    4.6543   19.8940 N   0  0  0  0  0  0  0  0  0  0  0  0
    4.0966    5.3586   18.8810 C   0  0  0  0  0  0  0  0  0  0  0  0
    3.5638    6.4911   19.1659 O   0  0  0  0  0  0  0  0  0  0  0  0
    5.2642    3.7645   19.6208 H   0  0  0  0  0  0  0  0  0  0  0  0
    4.9731    5.1576   21.2182 C   0  0  0  0  0  0  0  0  0  0  0  0
    5.8464    6.3213   21.3923 C   0  0  0  0  0  0  0  0  0  0  0  0
    7.0801    6.2106   21.2681 O   0  0  0  0  0  0  0  0  0  0  0  0
    5.3312    7.6050   21.6989 N   0  0  0  0  0  0  0  0  0  0  0  0
    4.3172    7.7220   21.8142 H   0  0  0  0  0  0  0  0  0  0  0  0
    6.2145    8.7725   21.8555 C   0  0  0  0  0  0  0  0  0  0  0  0
    6.6785    8.9193   23.2203 C   0  0  0  0  0  0  0  0  0  0  0  0
    7.4638    7.9845   23.8558 O   0  0  0  0  0  0  0  0  0  0  0  0
    6.3770    9.9423   23.9279 O   0  0  0  0  0  0  0  0  0  0  0  0
    8.1431    8.2490   24.5521 H   0  0  0  0  0  0  0  0  0  0  0  0
    5.4457    9.9079   21.2615 C   0  0  0  0  0  0  0  0  0  0  0  0
    5.2381    9.7352   19.8242 C   0  0  0  0  0  0  0  0  0  0  0  0
    6.2921    9.3665   19.0007 C   0  0  0  0  0  0  0  0  0  0  0  0
    6.0832    9.2172   17.6547 C   0  0  0  0  0  0  0  0  0  0  0  0
    4.8454    9.4300   17.1254 C   0  0  0  0  0  0  0  0  0  0  0  0
    3.7819    9.8014   17.9531 C   0  0  0  0  0  0  0  0  0  0  0  0
    3.9761    9.9552   19.3084 C   0  0  0  0  0  0  0  0  0  0  0  0
    5.2047    4.0908   22.2539 C   0  0  0  0  0  0  0  0  0  0  0  0
    6.3634    1.8894   21.7717 C   0  0  0  0  0  0  0  0  0  0  0  0
    5.1105    2.6825   21.8433 C   0  0  0  0  0  0  0  0  0  0  0  0
    4.0567    1.8573   22.5558 C   0  0  0  0  0  0  0  0  0  0  0  0
    3.8979    4.8717   17.5225 C   0  0  0  0  0  0  0  0  0  0  0  0
    4.0944    5.9530   16.5433 N   0  0  0  0  0  0  0  0  0  0  0  0
    3.2694    6.0251   15.4224 C   0  0  0  0  0  0  0  0  0  0  0  0
    2.3696    5.1797   15.2416 O   0  0  0  0  0  0  0  0  0  0  0  0
    4.8432    6.6491   16.6978 H   0  0  0  0  0  0  0  0  0  0  0  0
    3.4348    7.0335   14.4964 O   0  0  0  0  0  0  0  0  0  0  0  0
    2.4729    8.0424   14.2785 C   0  0  0  0  0  0  0  0  0  0  0  0
    1.6722    7.6042   13.0913 C   0  0  0  0  0  0  0  0  0  0  0  0
    0.3719    7.1896   13.3249 C   0  0  0  0  0  0  0  0  0  0  0  0
   -0.4002    6.7818   12.2427 C   0  0  0  0  0  0  0  0  0  0  0  0
    0.1271    6.7937   10.9652 C   0  0  0  0  0  0  0  0  0  0  0  0
    1.4236    7.2068   10.7307 C   0  0  0  0  0  0  0  0  0  0  0  0
    2.1797    7.6081   11.8060 C   0  0  0  0  0  0  0  0  0  0  0  0
    4.7301    3.6914   17.1666 C   0  0  0  0  0  0  0  0  0  0  0  0
    4.0060    2.4130   17.1248 C   0  0  0  0  0  0  0  0  0  0  0  0
    3.3658    1.9118   16.0195 C   0  0  0  0  0  0  0  0  0  0  0  0
    2.7034    0.7177   16.0334 C   0  0  0  0  0  0  0  0  0  0  0  0
    2.6539   -0.0383   17.1758 C   0  0  0  0  0  0  0  0  0  0  0  0
    3.2932    0.4613   18.2803 C   0  0  0  0  0  0  0  0  0  0  0  0
    3.9631    1.6543   18.2908 C   0  0  0  0  0  0  0  0  0  0  0  0
 23 24  1  0  0  0
 24 25  1  0  0  0
 24 22  1  0  0  0
 22  5  1  0  0  0
  5  1  1  0  0  0
  1  2  1  0  0  0
  2  3  2  0  0  0
  2 26  1  0  0  0
 26 39  1  0  0  0
 39 40  1  0  0  0
 40 41  2  0  0  0
 41 42  1  0  0  0
 42 43  2  0  0  0
 43 44  1  0  0  0
 44 45  2  0  0  0
 26 27  1  0  0  0
 27 28  1  0  0  0
 28 29  2  0  0  0
 28 31  1  0  0  0
 31 32  1  0  0  0
 32 33  1  0  0  0
 33 34  2  0  0  0
 34 35  1  0  0  0
 35 36  2  0  0  0
 36 37  1  0  0  0
 37 38  2  0  0  0
  5  6  1  0  0  0
  6  7  2  0  0  0
  6  8  1  0  0  0
  8 10  1  0  0  0
 10 15  1  0  0  0
 15 16  1  0  0  0
 16 17  2  0  0  0
 17 18  1  0  0  0
 18 19  2  0  0  0
 19 20  1  0  0  0
 20 21  2  0  0  0
 10 11  1  0  0  0
 11 12  1  0  0  0
 11 13  2  0  0  0
 45 40  1  0  0  0
 38 33  1  0  0  0
 21 16  1  0  0  0
  1  4  1  0  0  0
 27 30  1  0  0  0
  8  9  1  0  0  0
 12 14  1  0  0  0
M  END
> <minimizedAffinity>
-8.36802

> <CNNscore>
0.3006401062

> <CNNaffinity>
6.6524810791

> <CNN_VS>
2.0000026226

> <CNNaffinity_variance>
0.2736585736

$$$$
[H]OC(=O)[C@@]([H])(N([H])C(=O)[C@@]([H])(N([H])C(=O)[C@@]([H])(N([H])C(=O)OC([H])([H])c1c([H])c([H])c([H])c([H])c1[H])C([H])([H])c1c([H])c([H])c([H])c([H])c1[H])C([H])([H])C([H])(C([H])([H])[H])C([H])([H])[H])C([H])([H])c1c([H])c([H])c([H])c([H])c1[H]


 45 47  0  0  0  0  0  0  0  0999 V2000
    3.3713    6.8868   18.2622 N   0  0  0  0  0  0  0  0  0  0  0  0
    4.3726    7.8463   17.8910 C   0  0  0  0  0  0  0  0  0  0  0  0
    5.5938    7.4670   17.7795 O   0  0  0  0  0  0  0  0  0  0  0  0
    2.4024    7.2222   18.3157 H   0  0  0  0  0  0  0  0  0  0  0  0
    3.6868    5.5253   18.5342 C   0  0  0  0  0  0  0  0  0  0  0  0
    3.0473    4.5166   17.6853 C   0  0  0  0  0  0  0  0  0  0  0  0
    2.0054    4.7853   17.0593 O   0  0  0  0  0  0  0  0  0  0  0  0
    3.5828    3.2133   17.5378 N   0  0  0  0  0  0  0  0  0  0  0  0
    4.4378    2.9635   18.0495 H   0  0  0  0  0  0  0  0  0  0  0  0
    2.9432    2.2111   16.6694 C   0  0  0  0  0  0  0  0  0  0  0  0
    2.7632    0.9440   17.3488 C   0  0  0  0  0  0  0  0  0  0  0  0
    1.9907   -0.0788   16.8475 O   0  0  0  0  0  0  0  0  0  0  0  0
    3.3182    0.6991   18.4758 O   0  0  0  0  0  0  0  0  0  0  0  0
    2.2143   -1.0461   17.0227 H   0  0  0  0  0  0  0  0  0  0  0  0
    3.7654    2.2151   15.4217 C   0  0  0  0  0  0  0  0  0  0  0  0
    3.0152    2.7234   14.2739 C   0  0  0  0  0  0  0  0  0  0  0  0
    3.4544    3.8469   13.5883 C   0  0  0  0  0  0  0  0  0  0  0  0
    2.7355    4.3157   12.5201 C   0  0  0  0  0  0  0  0  0  0  0  0
    1.5931    3.6822   12.1317 C   0  0  0  0  0  0  0  0  0  0  0  0
    1.1487    2.5500   12.8207 C   0  0  0  0  0  0  0  0  0  0  0  0
    1.8607    2.0663   13.8964 C   0  0  0  0  0  0  0  0  0  0  0  0
    3.6479    5.1712   19.9962 C   0  0  0  0  0  0  0  0  0  0  0  0
    5.1479    5.5322   22.0064 C   0  0  0  0  0  0  0  0  0  0  0  0
    4.9169    4.8959   20.6852 C   0  0  0  0  0  0  0  0  0  0  0  0
    5.3139    3.4354   20.7765 C   0  0  0  0  0  0  0  0  0  0  0  0
    4.1046    9.2546   17.6320 C   0  0  0  0  0  0  0  0  0  0  0  0
    3.1425    9.4116   16.5290 N   0  0  0  0  0  0  0  0  0  0  0  0
    3.5776    9.2784   15.2118 C   0  0  0  0  0  0  0  0  0  0  0  0
    4.7746    9.0309   14.9609 O   0  0  0  0  0  0  0  0  0  0  0  0
    2.1525    9.6189   16.7435 H   0  0  0  0  0  0  0  0  0  0  0  0
    2.6904    9.4173   14.1651 O   0  0  0  0  0  0  0  0  0  0  0  0
    2.7457    8.6233   13.0001 C   0  0  0  0  0  0  0  0  0  0  0  0
    1.4981    7.7948   13.0020 C   0  0  0  0  0  0  0  0  0  0  0  0
    0.8500    7.6265   11.7901 C   0  0  0  0  0  0  0  0  0  0  0  0
   -0.3082    6.8579   11.7568 C   0  0  0  0  0  0  0  0  0  0  0  0
   -0.7944    6.2779   12.9133 C   0  0  0  0  0  0  0  0  0  0  0  0
   -0.1493    6.4448   14.1227 C   0  0  0  0  0  0  0  0  0  0  0  0
    0.9947    7.2062   14.1465 C   0  0  0  0  0  0  0  0  0  0  0  0
    3.6574   10.0228   18.8244 C   0  0  0  0  0  0  0  0  0  0  0  0
    4.6557   10.1382   19.8970 C   0  0  0  0  0  0  0  0  0  0  0  0
    5.5645   11.1596   20.0139 C   0  0  0  0  0  0  0  0  0  0  0  0
    6.4751   11.2192   21.0299 C   0  0  0  0  0  0  0  0  0  0  0  0
    6.5139   10.2406   21.9890 C   0  0  0  0  0  0  0  0  0  0  0  0
    5.6064    9.2201   21.8733 C   0  0  0  0  0  0  0  0  0  0  0  0
    4.6849    9.1387   20.8650 C   0  0  0  0  0  0  0  0  0  0  0  0
 23 24  1  0  0  0
 24 25  1  0  0  0
 24 22  1  0  0  0
 22  5  1  0  0  0
  5  1  1  0  0  0
  1  2  1  0  0  0
  2  3  2  0  0  0
  2 26  1  0  0  0
 26 39  1  0  0  0
 39 40  1  0  0  0
 40 41  2  0  0  0
 41 42  1  0  0  0
 42 43  2  0  0  0
 43 44  1  0  0  0
 44 45  2  0  0  0
 26 27  1  0  0  0
 27 28  1  0  0  0
 28 29  2  0  0  0
 28 31  1  0  0  0
 31 32  1  0  0  0
 32 33  1  0  0  0
 33 34  2  0  0  0
 34 35  1  0  0  0
 35 36  2  0  0  0
 36 37  1  0  0  0
 37 38  2  0  0  0
  5  6  1  0  0  0
  6  7  2  0  0  0
  6  8  1  0  0  0
  8 10  1  0  0  0
 10 15  1  0  0  0
 15 16  1  0  0  0
 16 17  2  0  0  0
 17 18  1  0  0  0
 18 19  2  0  0  0
 19 20  1  0  0  0
 20 21  2  0  0  0
 10 11  1  0  0  0
 11 12  1  0  0  0
 11 13  2  0  0  0
 45 40  1  0  0  0
 38 33  1  0  0  0
 21 16  1  0  0  0
  1  4  1  0  0  0
 27 30  1  0  0  0
  8  9  1  0  0  0
 12 14  1  0  0  0
M  END
> <minimizedAffinity>
-8.95350

> <CNNscore>
0.2937121391

> <CNNaffinity>
6.3278555870

> <CNN_VS>
1.8585679531

> <CNNaffinity_variance>
0.1449798197

$$$$
[H]C1=C(C(=O)[O-])N2C(=O)/C(=C(\[H])c3oc4c([H])c([H])c([H])c([H])c4c3[H])[C@@]2([H])S1


 21 24  0  0  0  0  0  0  0  0999 V2000
    2.3919    5.3614   14.3382 C   0  0  0  0  0  0  0  0  0  0  0  0
    3.0010    5.9606   15.3420 C   0  0  0  0  0  0  0  0  0  0  0  0
    3.4972    4.6545   16.4618 S   0  0  0  0  0  0  0  0  0  0  0  0
    2.2268    3.4736   15.8168 C   0  0  0  0  0  0  0  0  0  0  0  0
    2.3364    3.9720   14.4152 N   0  0  0  0  0  0  0  0  0  0  0  0
    2.3153    2.5704   14.0665 C   0  0  0  0  0  0  0  0  0  0  0  0
    2.0581    1.9234   13.0292 O   0  0  0  0  0  0  0  0  0  0  0  0
    2.7176    2.1692   15.4119 C   0  0  0  0  0  0  0  0  0  0  0  0
    3.2633    1.1178   15.9685 C   0  0  0  0  0  0  0  0  0  0  0  0
    3.5246    1.0793   17.4092 C   0  0  0  0  0  0  0  0  0  0  0  0
    4.5498    1.7099   18.0821 C   0  0  0  0  0  0  0  0  0  0  0  0
    4.4273    1.4100   19.4353 C   0  0  0  0  0  0  0  0  0  0  0  0
    5.1612    1.7623   20.5476 C   0  0  0  0  0  0  0  0  0  0  0  0
    4.7581    1.2791   21.7798 C   0  0  0  0  0  0  0  0  0  0  0  0
    3.6436    0.4599   21.8990 C   0  0  0  0  0  0  0  0  0  0  0  0
    2.9466    0.1395   20.7529 C   0  0  0  0  0  0  0  0  0  0  0  0
    3.3128    0.5991   19.5024 C   0  0  0  0  0  0  0  0  0  0  0  0
    2.8091    0.4271   18.2920 O   0  0  0  0  0  0  0  0  0  0  0  0
    0.7710    5.6474   12.5232 O   0  0  0  0  0  0  0  0  0  0  0  0
    1.8496    6.1411   13.2302 C   0  0  0  0  0  0  0  0  0  0  0  0
    2.3185    7.2634   12.8721 O   0  0  0  0  0  0  0  0  0  0  0  0
 19 20  1  0  0  0
 20 21  2  0  0  0
 20  1  1  0  0  0
  1  2  2  0  0  0
  2  3  1  0  0  0
  3  4  1  0  0  0
  4  5  1  0  0  0
  5  6  1  0  0  0
  6  7  2  0  0  0
  6  8  1  0  0  0
  8  9  2  0  0  0
  9 10  1  0  0  0
 10 11  2  0  0  0
 11 12  1  0  0  0
 12 13  2  0  0  0
 13 14  1  0  0  0
 14 15  2  0  0  0
 15 16  1  0  0  0
 16 17  2  0  0  0
 17 18  1  0  0  0
  5  1  1  0  0  0
 18 10  1  0  0  0
  8  4  1  0  0  0
 17 12  1  0  0  0
M  CHG 1  19  -1
M  END
> <minimizedAffinity>
-7.12530

> <CNNscore>
0.5754046440

> <CNNaffinity>
5.1277222633

> <CNN_VS>
2.9505152702

> <CNNaffinity_variance>
0.3202462494

$$$$
[H]C1=C(C(=O)[O-])N2C(=O)/C(=C(\[H])c3oc4c([H])c([H])c([H])c([H])c4c3[H])[C@@]2([H])S1


 21 24  0  0  0  0  0  0  0  0999 V2000
    5.9460    2.8605    9.0364 C   0  0  0  0  0  0  0  0  0  0  0  0
    6.1173    4.0164    9.6466 C   0  0  0  0  0  0  0  0  0  0  0  0
    4.6744    4.2400   10.6829 S   0  0  0  0  0  0  0  0  0  0  0  0
    3.6395    3.0840    9.6744 C   0  0  0  0  0  0  0  0  0  0  0  0
    4.7815    2.1738    9.3709 N   0  0  0  0  0  0  0  0  0  0  0  0
    3.8340    1.1221    9.6581 C   0  0  0  0  0  0  0  0  0  0  0  0
    3.7578   -0.0949    9.3862 O   0  0  0  0  0  0  0  0  0  0  0  0
    2.9670    2.0273   10.4076 C   0  0  0  0  0  0  0  0  0  0  0  0
    2.0281    1.9146   11.3125 C   0  0  0  0  0  0  0  0  0  0  0  0
    1.3554    3.0992   11.8505 C   0  0  0  0  0  0  0  0  0  0  0  0
    0.1775    3.6582   11.4015 C   0  0  0  0  0  0  0  0  0  0  0  0
   -0.1030    4.7683   12.1922 C   0  0  0  0  0  0  0  0  0  0  0  0
   -1.1313    5.6863   12.1948 C   0  0  0  0  0  0  0  0  0  0  0  0
   -1.1073    6.6956   13.1408 C   0  0  0  0  0  0  0  0  0  0  0  0
   -0.0765    6.7865   14.0664 C   0  0  0  0  0  0  0  0  0  0  0  0
    0.9263    5.8409   14.0176 C   0  0  0  0  0  0  0  0  0  0  0  0
    0.9430    4.8163   13.0909 C   0  0  0  0  0  0  0  0  0  0  0  0
    1.7802    3.8194   12.8592 O   0  0  0  0  0  0  0  0  0  0  0  0
    6.5833    1.4169    7.1620 O   0  0  0  0  0  0  0  0  0  0  0  0
    6.9483    2.3625    8.0998 C   0  0  0  0  0  0  0  0  0  0  0  0
    8.1546    2.7530    8.0967 O   0  0  0  0  0  0  0  0  0  0  0  0
 19 20  1  0  0  0
 20 21  2  0  0  0
 20  1  1  0  0  0
  1  2  2  0  0  0
  2  3  1  0  0  0
  3  4  1  0  0  0
  4  5  1  0  0  0
  5  6  1  0  0  0
  6  7  2  0  0  0
  6  8  1  0  0  0
  8  9  2  0  0  0
  9 10  1  0  0  0
 10 11  2  0  0  0
 11 12  1  0  0  0
 12 13  2  0  0  0
 13 14  1  0  0  0
 14 15  2  0  0  0
 15 16  1  0  0  0
 16 17  2  0  0  0
 17 18  1  0  0  0
  5  1  1  0  0  0
 18 10  1  0  0  0
  8  4  1  0  0  0
 17 12  1  0  0  0
M  CHG 1  19  -1
M  END
> <minimizedAffinity>
-4.54346

> <CNNscore>
0.4118031561

> <CNNaffinity>
4.1729369164

> <CNN_VS>
1.7184286118

> <CNNaffinity_variance>
0.1784123927

$$$$
[H]C1=C(C(=O)[O-])N2C(=O)/C(=C(\[H])c3oc4c([H])c([H])c([H])c([H])c4c3[H])[C@@]2([H])S1


 21 24  0  0  0  0  0  0  0  0999 V2000
    2.9228    2.5190   14.4646 C   0  0  0  0  0  0  0  0  0  0  0  0
    3.6621    3.6104   14.4594 C   0  0  0  0  0  0  0  0  0  0  0  0
    4.2959    3.7787   16.1255 S   0  0  0  0  0  0  0  0  0  0  0  0
    2.9460    2.7460   16.8573 C   0  0  0  0  0  0  0  0  0  0  0  0
    2.8716    1.8365   15.6774 N   0  0  0  0  0  0  0  0  0  0  0  0
    2.7982    0.7889   16.6693 C   0  0  0  0  0  0  0  0  0  0  0  0
    2.4031   -0.3962   16.6728 O   0  0  0  0  0  0  0  0  0  0  0  0
    3.3730    1.6462   17.7026 C   0  0  0  0  0  0  0  0  0  0  0  0
    3.9826    1.4779   18.8484 C   0  0  0  0  0  0  0  0  0  0  0  0
    4.4319    2.6271   19.6377 C   0  0  0  0  0  0  0  0  0  0  0  0
    5.4822    2.6587   20.5307 C   0  0  0  0  0  0  0  0  0  0  0  0
    5.5623    3.9438   21.0583 C   0  0  0  0  0  0  0  0  0  0  0  0
    6.4043    4.5333   21.9766 C   0  0  0  0  0  0  0  0  0  0  0  0
    6.2053    5.8666   22.2880 C   0  0  0  0  0  0  0  0  0  0  0  0
    5.1851    6.5972   21.6937 C   0  0  0  0  0  0  0  0  0  0  0  0
    4.3727    5.9565   20.7818 C   0  0  0  0  0  0  0  0  0  0  0  0
    4.5348    4.6274   20.4409 C   0  0  0  0  0  0  0  0  0  0  0  0
    3.8927    3.8209   19.6129 O   0  0  0  0  0  0  0  0  0  0  0  0
    2.8846    2.2086   12.0345 O   0  0  0  0  0  0  0  0  0  0  0  0
    2.2425    2.0804   13.2503 C   0  0  0  0  0  0  0  0  0  0  0  0
    1.0771    1.5809   13.2457 O   0  0  0  0  0  0  0  0  0  0  0  0
 19 20  1  0  0  0
 20 21  2  0  0  0
 20  1  1  0  0  0
  1  2  2  0  0  0
  2  3  1  0  0  0
  3  4  1  0  0  0
  4  5  1  0  0  0
  5  6  1  0  0  0
  6  7  2  0  0  0
  6  8  1  0  0  0
  8  9  2  0  0  0
  9 10  1  0  0  0
 10 11  2  0  0  0
 11 12  1  0  0  0
 12 13  2  0  0  0
 13 14  1  0  0  0
 14 15  2  0  0  0
 15 16  1  0  0  0
 16 17  2  0  0  0
 17 18  1  0  0  0
  5  1  1  0  0  0
 18 10  1  0  0  0
  8  4  1  0  0  0
 17 12  1  0  0  0
M  CHG 1  19  -1
M  END
> <minimizedAffinity>
-7.46589

> <CNNscore>
0.3921213448

> <CNNaffinity>
4.9875650406

> <CNN_VS>
1.9557306767

> <CNNaffinity_variance>
0.4683386385

$$$$
[H]C1=C(C(=O)[O-])N2C(=O)/C(=C(\[H])c3oc4c([H])c([H])c([H])c([H])c4c3[H])[C@@]2([H])S1


 21 24  0  0  0  0  0  0  0  0999 V2000
    3.0719    4.2954   14.9538 C   0  0  0  0  0  0  0  0  0  0  0  0
    3.4039    3.3651   14.0807 C   0  0  0  0  0  0  0  0  0  0  0  0
    4.0499    4.2391   12.6578 S   0  0  0  0  0  0  0  0  0  0  0  0
    3.1700    5.8088   13.0891 C   0  0  0  0  0  0  0  0  0  0  0  0
    3.3278    5.6059   14.5583 N   0  0  0  0  0  0  0  0  0  0  0  0
    3.6703    7.0092   14.5710 C   0  0  0  0  0  0  0  0  0  0  0  0
    3.6933    7.9036   15.4429 O   0  0  0  0  0  0  0  0  0  0  0  0
    3.9913    7.0040   13.1462 C   0  0  0  0  0  0  0  0  0  0  0  0
    4.6935    7.7437   12.3260 C   0  0  0  0  0  0  0  0  0  0  0  0
    4.7838    7.4110   10.9024 C   0  0  0  0  0  0  0  0  0  0  0  0
    3.7879    7.5389    9.9573 C   0  0  0  0  0  0  0  0  0  0  0  0
    4.2955    7.1114    8.7342 C   0  0  0  0  0  0  0  0  0  0  0  0
    3.7535    7.0214    7.4700 C   0  0  0  0  0  0  0  0  0  0  0  0
    4.5510    6.5401    6.4470 C   0  0  0  0  0  0  0  0  0  0  0  0
    5.8644    6.1562    6.6818 C   0  0  0  0  0  0  0  0  0  0  0  0
    6.3546    6.2675    7.9660 C   0  0  0  0  0  0  0  0  0  0  0  0
    5.5946    6.7426    9.0176 C   0  0  0  0  0  0  0  0  0  0  0  0
    5.8455    6.9327   10.3018 O   0  0  0  0  0  0  0  0  0  0  0  0
    1.9242    4.9069   17.0303 O   0  0  0  0  0  0  0  0  0  0  0  0
    2.5008    3.9279   16.2454 C   0  0  0  0  0  0  0  0  0  0  0  0
    2.5033    2.7432   16.6972 O   0  0  0  0  0  0  0  0  0  0  0  0
 19 20  1  0  0  0
 20 21  2  0  0  0
 20  1  1  0  0  0
  1  2  2  0  0  0
  2  3  1  0  0  0
  3  4  1  0  0  0
  4  5  1  0  0  0
  5  6  1  0  0  0
  6  7  2  0  0  0
  6  8  1  0  0  0
  8  9  2  0  0  0
  9 10  1  0  0  0
 10 11  2  0  0  0
 11 12  1  0  0  0
 12 13  2  0  0  0
 13 14  1  0  0  0
 14 15  2  0  0  0
 15 16  1  0  0  0
 16 17  2  0  0  0
 17 18  1  0  0  0
  5  1  1  0  0  0
 18 10  1  0  0  0
  8  4  1  0  0  0
 17 12  1  0  0  0
M  CHG 1  19  -1
M  END
> <minimizedAffinity>
-4.51344

> <CNNscore>
0.3649847209

> <CNNaffinity>
4.4751539230

> <CNN_VS>
1.6333627701

> <CNNaffinity_variance>
0.9723243713

$$$$
[H]C1=C(C(=O)[O-])N2C(=O)/C(=C(\[H])c3oc4c([H])c([H])c([H])c([H])c4c3[H])[C@@]2([H])S1


 21 24  0  0  0  0  0  0  0  0999 V2000
    3.2750    0.5258   19.4672 C   0  0  0  0  0  0  0  0  0  0  0  0
    2.6402   -0.3154   18.6753 C   0  0  0  0  0  0  0  0  0  0  0  0
    2.6402    0.4453   17.0544 S   0  0  0  0  0  0  0  0  0  0  0  0
    2.8871    2.1478   17.7363 C   0  0  0  0  0  0  0  0  0  0  0  0
    3.7583    1.6781   18.8521 N   0  0  0  0  0  0  0  0  0  0  0  0
    4.5740    2.8187   18.5054 C   0  0  0  0  0  0  0  0  0  0  0  0
    5.4477    3.4898   19.0943 O   0  0  0  0  0  0  0  0  0  0  0  0
    3.9874    2.9067   17.1708 C   0  0  0  0  0  0  0  0  0  0  0  0
    4.3181    3.4315   16.0184 C   0  0  0  0  0  0  0  0  0  0  0  0
    3.4357    3.3112   14.8556 C   0  0  0  0  0  0  0  0  0  0  0  0
    3.3631    2.2507   13.9773 C   0  0  0  0  0  0  0  0  0  0  0  0
    2.3957    2.5464   13.0218 C   0  0  0  0  0  0  0  0  0  0  0  0
    1.9146    1.8617   11.9265 C   0  0  0  0  0  0  0  0  0  0  0  0
    0.9242    2.4558   11.1644 C   0  0  0  0  0  0  0  0  0  0  0  0
    0.4239    3.7093   11.4900 C   0  0  0  0  0  0  0  0  0  0  0  0
    0.9420    4.3488   12.5967 C   0  0  0  0  0  0  0  0  0  0  0  0
    1.9309    3.7936   13.3859 C   0  0  0  0  0  0  0  0  0  0  0  0
    2.5655    4.2109   14.4683 O   0  0  0  0  0  0  0  0  0  0  0  0
    3.5177    1.2504   21.7951 O   0  0  0  0  0  0  0  0  0  0  0  0
    3.4569    0.2165   20.8817 C   0  0  0  0  0  0  0  0  0  0  0  0
    3.5646   -0.9651   21.3288 O   0  0  0  0  0  0  0  0  0  0  0  0
 19 20  1  0  0  0
 20 21  2  0  0  0
 20  1  1  0  0  0
  1  2  2  0  0  0
  2  3  1  0  0  0
  3  4  1  0  0  0
  4  5  1  0  0  0
  5  6  1  0  0  0
  6  7  2  0  0  0
  6  8  1  0  0  0
  8  9  2  0  0  0
  9 10  1  0  0  0
 10 11  2  0  0  0
 11 12  1  0  0  0
 12 13  2  0  0  0
 13 14  1  0  0  0
 14 15  2  0  0  0
 15 16  1  0  0  0
 16 17  2  0  0  0
 17 18  1  0  0  0
  5  1  1  0  0  0
 18 10  1  0  0  0
  8  4  1  0  0  0
 17 12  1  0  0  0
M  CHG 1  19  -1
M  END
> <minimizedAffinity>
-6.21717

> <CNNscore>
0.3520674109

> <CNNaffinity>
5.0020222664

> <CNN_VS>
1.7610490322

> <CNNaffinity_variance>
0.2524169981

$$$$
[H]C1=C(C(=O)[O-])N2C(=O)/C(=C(\[H])c3oc4c([H])c([H])c([H])c([H])c4c3[H])[C@@]2([H])S1


 21 24  0  0  0  0  0  0  0  0999 V2000
    3.4163    7.4167   12.6554 C   0  0  0  0  0  0  0  0  0  0  0  0
    4.6451    7.1826   12.2395 C   0  0  0  0  0  0  0  0  0  0  0  0
    4.5550    5.6784   11.2725 S   0  0  0  0  0  0  0  0  0  0  0  0
    2.9934    5.1186   12.0924 C   0  0  0  0  0  0  0  0  0  0  0  0
    2.4557    6.5031   12.2286 N   0  0  0  0  0  0  0  0  0  0  0  0
    1.2144    5.9114   11.7861 C   0  0  0  0  0  0  0  0  0  0  0  0
    0.0094    6.2332   11.8570 O   0  0  0  0  0  0  0  0  0  0  0  0
    1.9016    4.7609   11.2056 C   0  0  0  0  0  0  0  0  0  0  0  0
    1.6359    3.8474   10.3068 C   0  0  0  0  0  0  0  0  0  0  0  0
    2.6142    2.8082    9.9779 C   0  0  0  0  0  0  0  0  0  0  0  0
    2.5408    1.4697   10.3010 C   0  0  0  0  0  0  0  0  0  0  0  0
    3.6755    0.8408    9.7977 C   0  0  0  0  0  0  0  0  0  0  0  0
    4.1184   -0.4642    9.8248 C   0  0  0  0  0  0  0  0  0  0  0  0
    5.3233   -0.7611    9.2128 C   0  0  0  0  0  0  0  0  0  0  0  0
    6.0714    0.2262    8.5859 C   0  0  0  0  0  0  0  0  0  0  0  0
    5.5802    1.5149    8.5893 C   0  0  0  0  0  0  0  0  0  0  0  0
    4.3826    1.8567    9.1876 C   0  0  0  0  0  0  0  0  0  0  0  0
    3.7277    2.9983    9.3140 O   0  0  0  0  0  0  0  0  0  0  0  0
    1.8566    8.7359   14.0083 O   0  0  0  0  0  0  0  0  0  0  0  0
    3.1252    8.5814   13.4850 C   0  0  0  0  0  0  0  0  0  0  0  0
    3.9824    9.4750   13.7578 O   0  0  0  0  0  0  0  0  0  0  0  0
 19 20  1  0  0  0
 20 21  2  0  0  0
 20  1  1  0  0  0
  1  2  2  0  0  0
  2  3  1  0  0  0
  3  4  1  0  0  0
  4  5  1  0  0  0
  5  6  1  0  0  0
  6  7  2  0  0  0
  6  8  1  0  0  0
  8  9  2  0  0  0
  9 10  1  0  0  0
 10 11  2  0  0  0
 11 12  1  0  0  0
 12 13  2  0  0  0
 13 14  1  0  0  0
 14 15  2  0  0  0
 15 16  1  0  0  0
 16 17  2  0  0  0
 17 18  1  0  0  0
  5  1  1  0  0  0
 18 10  1  0  0  0
  8  4  1  0  0  0
 17 12  1  0  0  0
M  CHG 1  19  -1
M  END
> <minimizedAffinity>
-4.78452

> <CNNscore>
0.3452975750

> <CNNaffinity>
4.3301110268

> <CNN_VS>
1.4951767921

> <CNNaffinity_variance>
0.4305182099

$$$$
[H]C1=C(C(=O)[O-])N2C(=O)/C(=C(\[H])c3oc4c([H])c([H])c([H])c([H])c4c3[H])[C@@]2([H])S1


 21 24  0  0  0  0  0  0  0  0999 V2000
    4.3863    2.7695   22.2066 C   0  0  0  0  0  0  0  0  0  0  0  0
    3.8609    1.7021   21.6388 C   0  0  0  0  0  0  0  0  0  0  0  0
    3.9783    1.9801   19.8740 S   0  0  0  0  0  0  0  0  0  0  0  0
    4.0930    3.8173   20.0634 C   0  0  0  0  0  0  0  0  0  0  0  0
    4.8768    3.7338   21.3296 N   0  0  0  0  0  0  0  0  0  0  0  0
    5.6740    4.7830   20.7379 C   0  0  0  0  0  0  0  0  0  0  0  0
    6.4626    5.6463   21.1779 O   0  0  0  0  0  0  0  0  0  0  0  0
    5.2087    4.4581   19.3922 C   0  0  0  0  0  0  0  0  0  0  0  0
    5.6219    4.6618   18.1671 C   0  0  0  0  0  0  0  0  0  0  0  0
    4.8550    4.1661   17.0220 C   0  0  0  0  0  0  0  0  0  0  0  0
    4.3539    4.9114   15.9757 C   0  0  0  0  0  0  0  0  0  0  0  0
    3.6919    4.0480   15.1081 C   0  0  0  0  0  0  0  0  0  0  0  0
    3.0155    4.2409   13.9227 C   0  0  0  0  0  0  0  0  0  0  0  0
    2.4585    3.1390   13.2983 C   0  0  0  0  0  0  0  0  0  0  0  0
    2.5748    1.8690   13.8470 C   0  0  0  0  0  0  0  0  0  0  0  0
    3.2625    1.7344   15.0349 C   0  0  0  0  0  0  0  0  0  0  0  0
    3.8346    2.8063   15.6928 C   0  0  0  0  0  0  0  0  0  0  0  0
    4.5237    2.9153   16.8160 O   0  0  0  0  0  0  0  0  0  0  0  0
    3.8016    3.9239   24.2872 O   0  0  0  0  0  0  0  0  0  0  0  0
    4.4505    2.8784   23.6605 C   0  0  0  0  0  0  0  0  0  0  0  0
    5.0778    2.0563   24.3942 O   0  0  0  0  0  0  0  0  0  0  0  0
 19 20  1  0  0  0
 20 21  2  0  0  0
 20  1  1  0  0  0
  1  2  2  0  0  0
  2  3  1  0  0  0
  3  4  1  0  0  0
  4  5  1  0  0  0
  5  6  1  0  0  0
  6  7  2  0  0  0
  6  8  1  0  0  0
  8  9  2  0  0  0
  9 10  1  0  0  0
 10 11  2  0  0  0
 11 12  1  0  0  0
 12 13  2  0  0  0
 13 14  1  0  0  0
 14 15  2  0  0  0
 15 16  1  0  0  0
 16 17  2  0  0  0
 17 18  1  0  0  0
  5  1  1  0  0  0
 18 10  1  0  0  0
  8  4  1  0  0  0
 17 12  1  0  0  0
M  CHG 1  19  -1
M  END
> <minimizedAffinity>
-7.47348

> <CNNscore>
0.3427507579

> <CNNaffinity>
5.2225637436

> <CNN_VS>
1.7900376320

> <CNNaffinity_variance>
0.3441744447

$$$$
[H]C1=C(C(=O)[O-])N2C(=O)/C(=C(\[H])c3oc4c([H])c([H])c([H])c([H])c4c3[H])[C@@]2([H])S1


 21 24  0  0  0  0  0  0  0  0999 V2000
    2.6323    2.3681   14.8401 C   0  0  0  0  0  0  0  0  0  0  0  0
    2.5537    1.2689   15.5636 C   0  0  0  0  0  0  0  0  0  0  0  0
    2.9831    1.7518   17.2334 S   0  0  0  0  0  0  0  0  0  0  0  0
    3.9066    3.2549   16.6750 C   0  0  0  0  0  0  0  0  0  0  0  0
    2.9765    3.5219   15.5399 N   0  0  0  0  0  0  0  0  0  0  0  0
    3.0676    4.8962   15.9753 C   0  0  0  0  0  0  0  0  0  0  0  0
    2.8467    6.0057   15.4453 O   0  0  0  0  0  0  0  0  0  0  0  0
    3.5272    4.5059   17.3054 C   0  0  0  0  0  0  0  0  0  0  0  0
    3.5684    5.0488   18.4956 C   0  0  0  0  0  0  0  0  0  0  0  0
    4.1280    4.3200   19.6362 C   0  0  0  0  0  0  0  0  0  0  0  0
    5.2284    3.4892   19.6289 C   0  0  0  0  0  0  0  0  0  0  0  0
    5.4127    3.0047   20.9203 C   0  0  0  0  0  0  0  0  0  0  0  0
    6.3391    2.1529   21.4827 C   0  0  0  0  0  0  0  0  0  0  0  0
    6.2353    1.8699   22.8330 C   0  0  0  0  0  0  0  0  0  0  0  0
    5.2260    2.4267   23.6068 C   0  0  0  0  0  0  0  0  0  0  0  0
    4.3265    3.2721   22.9918 C   0  0  0  0  0  0  0  0  0  0  0  0
    4.3920    3.5827   21.6471 C   0  0  0  0  0  0  0  0  0  0  0  0
    3.6576    4.3492   20.8588 O   0  0  0  0  0  0  0  0  0  0  0  0
    1.2361    1.6439   12.9614 O   0  0  0  0  0  0  0  0  0  0  0  0
    2.3446    2.3346   13.4098 C   0  0  0  0  0  0  0  0  0  0  0  0
    3.0647    2.9113   12.5400 O   0  0  0  0  0  0  0  0  0  0  0  0
 19 20  1  0  0  0
 20 21  2  0  0  0
 20  1  1  0  0  0
  1  2  2  0  0  0
  2  3  1  0  0  0
  3  4  1  0  0  0
  4  5  1  0  0  0
  5  6  1  0  0  0
  6  7  2  0  0  0
  6  8  1  0  0  0
  8  9  2  0  0  0
  9 10  1  0  0  0
 10 11  2  0  0  0
 11 12  1  0  0  0
 12 13  2  0  0  0
 13 14  1  0  0  0
 14 15  2  0  0  0
 15 16  1  0  0  0
 16 17  2  0  0  0
 17 18  1  0  0  0
  5  1  1  0  0  0
 18 10  1  0  0  0
  8  4  1  0  0  0
 17 12  1  0  0  0
M  CHG 1  19  -1
M  END
> <minimizedAffinity>
-6.60691

> <CNNscore>
0.3332602680

> <CNNaffinity>
5.1148500443

> <CNN_VS>
1.7045762539

> <CNNaffinity_variance>
0.6547123194

$$$$
[H]C1=C(C(=O)[O-])N2C(=O)/C(=C(\[H])c3oc4c([H])c([H])c([H])c([H])c4c3[H])[C@@]2([H])S1


 21 24  0  0  0  0  0  0  0  0999 V2000
    5.7322    7.6001   11.6341 C   0  0  0  0  0  0  0  0  0  0  0  0
    5.7077    7.0816   10.4224 C   0  0  0  0  0  0  0  0  0  0  0  0
    4.2092    6.1051   10.3393 S   0  0  0  0  0  0  0  0  0  0  0  0
    4.1011    5.9204   12.1774 C   0  0  0  0  0  0  0  0  0  0  0  0
    4.6428    7.2846   12.4423 N   0  0  0  0  0  0  0  0  0  0  0  0
    3.5865    7.3578   13.4249 C   0  0  0  0  0  0  0  0  0  0  0  0
    3.3727    8.0543   14.4397 O   0  0  0  0  0  0  0  0  0  0  0  0
    2.8325    6.2859   12.7804 C   0  0  0  0  0  0  0  0  0  0  0  0
    1.5921    5.8686   12.7685 C   0  0  0  0  0  0  0  0  0  0  0  0
    1.1960    4.7083   11.9672 C   0  0  0  0  0  0  0  0  0  0  0  0
    0.3545    4.7046   10.8748 C   0  0  0  0  0  0  0  0  0  0  0  0
    0.2500    3.3956   10.4143 C   0  0  0  0  0  0  0  0  0  0  0  0
   -0.4426    2.8169    9.3725 C   0  0  0  0  0  0  0  0  0  0  0  0
   -0.3260    1.4510    9.1857 C   0  0  0  0  0  0  0  0  0  0  0  0
    0.4671    0.6779   10.0229 C   0  0  0  0  0  0  0  0  0  0  0  0
    1.1377    1.3096   11.0491 C   0  0  0  0  0  0  0  0  0  0  0  0
    1.0506    2.6702   11.2729 C   0  0  0  0  0  0  0  0  0  0  0  0
    1.5898    3.4756   12.1722 O   0  0  0  0  0  0  0  0  0  0  0  0
    6.5812    9.5190   12.8992 O   0  0  0  0  0  0  0  0  0  0  0  0
    6.8351    8.4614   12.0482 C   0  0  0  0  0  0  0  0  0  0  0  0
    8.0323    8.2935   11.6660 O   0  0  0  0  0  0  0  0  0  0  0  0
 19 20  1  0  0  0
 20 21  2  0  0  0
 20  1  1  0  0  0
  1  2  2  0  0  0
  2  3  1  0  0  0
  3  4  1  0  0  0
  4  5  1  0  0  0
  5  6  1  0  0  0
  6  7  2  0  0  0
  6  8  1  0  0  0
  8  9  2  0  0  0
  9 10  1  0  0  0
 10 11  2  0  0  0
 11 12  1  0  0  0
 12 13  2  0  0  0
 13 14  1  0  0  0
 14 15  2  0  0  0
 15 16  1  0  0  0
 16 17  2  0  0  0
 17 18  1  0  0  0
  5  1  1  0  0  0
 18 10  1  0  0  0
  8  4  1  0  0  0
 17 12  1  0  0  0
M  CHG 1  19  -1
M  END
> <minimizedAffinity>
-4.49781

> <CNNscore>
0.3260109127

> <CNNaffinity>
4.3779134750

> <CNN_VS>
1.4272475243

> <CNNaffinity_variance>
0.6482110620

$$$$
[H]c1nc(N2C([H])([H])C([H])([H])N(c3c([H])c([H])c([H])c(OC(=O)C([H])([H])[H])c3Cl)C([H])([H])C2(C([H])([H])[H])C([H])([H])[H])c2c([H])c([H])c(Cl)c([H])c2n1


 30 33  0  0  0  0  0  0  0  0999 V2000
    3.2824    4.2068   15.5734 N   0  0  0  0  0  0  0  0  0  0  0  0
    4.0377    4.0704   14.3472 C   0  0  0  0  0  0  0  0  0  0  0  0
    3.1448    4.3010   13.1377 C   0  0  0  0  0  0  0  0  0  0  0  0
    2.3201    3.0895   12.8165 C   0  0  0  0  0  0  0  0  0  0  0  0
    4.1430    4.4864   11.9750 C   0  0  0  0  0  0  0  0  0  0  0  0
    2.3146    5.4539   13.2886 N   0  0  0  0  0  0  0  0  0  0  0  0
    2.0751    6.0289   14.5796 C   0  0  0  0  0  0  0  0  0  0  0  0
    2.0871    5.0111   15.6590 C   0  0  0  0  0  0  0  0  0  0  0  0
    1.7549    6.0298   12.1192 C   0  0  0  0  0  0  0  0  0  0  0  0
    0.4660    5.8165   11.7037 C   0  0  0  0  0  0  0  0  0  0  0  0
   -0.0101    6.3822   10.5169 C   0  0  0  0  0  0  0  0  0  0  0  0
   -1.3070    6.1735   10.1081 C   0  0  0  0  0  0  0  0  0  0  0  0
   -2.1661    5.4060   10.8538 C   0  0  0  0  0  0  0  0  0  0  0  0
   -3.8249    5.1527   10.3079 Cl  0  0  0  0  0  0  0  0  0  0  0  0
   -1.6960    4.8529   12.0185 C   0  0  0  0  0  0  0  0  0  0  0  0
   -0.3914    5.0541   12.4441 C   0  0  0  0  0  0  0  0  0  0  0  0
    0.8316    7.1547    9.7763 N   0  0  0  0  0  0  0  0  0  0  0  0
    2.0887    7.3633   10.1837 C   0  0  0  0  0  0  0  0  0  0  0  0
    2.5310    6.8189   11.3148 N   0  0  0  0  0  0  0  0  0  0  0  0
    3.9641    1.5703   18.0475 C   0  0  0  0  0  0  0  0  0  0  0  0
    3.5088    2.1738   16.8917 C   0  0  0  0  0  0  0  0  0  0  0  0
    2.6936    1.1847   15.7103 Cl  0  0  0  0  0  0  0  0  0  0  0  0
    3.7267    3.5209   16.7251 C   0  0  0  0  0  0  0  0  0  0  0  0
    4.3995    4.2353   17.7253 C   0  0  0  0  0  0  0  0  0  0  0  0
    4.8563    3.6389   18.8809 C   0  0  0  0  0  0  0  0  0  0  0  0
    4.6315    2.2871   19.0366 C   0  0  0  0  0  0  0  0  0  0  0  0
    3.7407    0.2108   18.2092 O   0  0  0  0  0  0  0  0  0  0  0  0
    2.6613   -0.1433   19.0381 C   0  0  0  0  0  0  0  0  0  0  0  0
    2.8045   -0.1767   20.5178 C   0  0  0  0  0  0  0  0  0  0  0  0
    1.5398   -0.4417   18.5248 O   0  0  0  0  0  0  0  0  0  0  0  0
 28 27  1  0  0  0
 27 20  1  0  0  0
 20 21  2  0  0  0
 21 22  1  0  0  0
 21 23  1  0  0  0
 23  1  1  0  0  0
  1  2  1  0  0  0
  2  3  1  0  0  0
  3  4  1  0  0  0
  3  5  1  0  0  0
  3  6  1  0  0  0
  6  9  1  0  0  0
  9 10  1  0  0  0
 10 11  1  0  0  0
 11 12  2  0  0  0
 12 13  1  0  0  0
 13 14  1  0  0  0
 13 15  2  0  0  0
 15 16  1  0  0  0
 11 17  1  0  0  0
 17 18  2  0  0  0
 18 19  1  0  0  0
  6  7  1  0  0  0
  7  8  1  0  0  0
 23 24  2  0  0  0
 24 25  1  0  0  0
 25 26  2  0  0  0
 28 29  1  0  0  0
 28 30  2  0  0  0
 26 20  1  0  0  0
  8  1  1  0  0  0
 19  9  2  0  0  0
 16 10  2  0  0  0
M  END
> <minimizedAffinity>
-7.79531

> <CNNscore>
0.3234725296

> <CNNaffinity>
6.3468379974

> <CNN_VS>
2.0530276299

> <CNNaffinity_variance>
0.1750240475

$$$$
[H]c1nc(N2C([H])([H])C([H])([H])N(c3c([H])c([H])c([H])c(OC(=O)C([H])([H])[H])c3Cl)C([H])([H])C2(C([H])([H])[H])C([H])([H])[H])c2c([H])c([H])c(Cl)c([H])c2n1


 30 33  0  0  0  0  0  0  0  0999 V2000
    6.2659    5.9772   22.1676 N   0  0  0  0  0  0  0  0  0  0  0  0
    5.0765    5.5808   22.8892 C   0  0  0  0  0  0  0  0  0  0  0  0
    4.2693    4.5748   22.0833 C   0  0  0  0  0  0  0  0  0  0  0  0
    3.4530    5.2436   21.0168 C   0  0  0  0  0  0  0  0  0  0  0  0
    3.2758    3.9937   23.1118 C   0  0  0  0  0  0  0  0  0  0  0  0
    5.0881    3.5459   21.5244 N   0  0  0  0  0  0  0  0  0  0  0  0
    6.5062    3.7143   21.4013 C   0  0  0  0  0  0  0  0  0  0  0  0
    6.8864    5.1308   21.1769 C   0  0  0  0  0  0  0  0  0  0  0  0
    4.4595    2.3405   21.1188 C   0  0  0  0  0  0  0  0  0  0  0  0
    4.1390    2.0454   19.8189 C   0  0  0  0  0  0  0  0  0  0  0  0
    3.4812    0.8555   19.4927 C   0  0  0  0  0  0  0  0  0  0  0  0
    3.1696    0.5586   18.1860 C   0  0  0  0  0  0  0  0  0  0  0  0
    3.4963    1.4214   17.1701 C   0  0  0  0  0  0  0  0  0  0  0  0
    3.0855    1.0181   15.5021 Cl  0  0  0  0  0  0  0  0  0  0  0  0
    4.1427    2.5880   17.4935 C   0  0  0  0  0  0  0  0  0  0  0  0
    4.4637    2.9015   18.8059 C   0  0  0  0  0  0  0  0  0  0  0  0
    3.1634   -0.0120   20.4927 N   0  0  0  0  0  0  0  0  0  0  0  0
    3.4780    0.2765   21.7605 C   0  0  0  0  0  0  0  0  0  0  0  0
    4.1035    1.4127   22.0591 N   0  0  0  0  0  0  0  0  0  0  0  0
    8.5909    8.6360   23.1981 C   0  0  0  0  0  0  0  0  0  0  0  0
    8.1025    7.3679   22.9521 C   0  0  0  0  0  0  0  0  0  0  0  0
    9.1313    6.0049   23.3022 Cl  0  0  0  0  0  0  0  0  0  0  0  0
    6.8343    7.2416   22.4367 C   0  0  0  0  0  0  0  0  0  0  0  0
    6.0816    8.3949   22.1781 C   0  0  0  0  0  0  0  0  0  0  0  0
    6.5633    9.6631   22.4214 C   0  0  0  0  0  0  0  0  0  0  0  0
    7.8367    9.7768   22.9388 C   0  0  0  0  0  0  0  0  0  0  0  0
    9.8712    8.7561   23.7184 O   0  0  0  0  0  0  0  0  0  0  0  0
    9.9550    9.0536   25.0902 C   0  0  0  0  0  0  0  0  0  0  0  0
    9.2171    8.2488   26.0998 C   0  0  0  0  0  0  0  0  0  0  0  0
   10.6703   10.0243   25.4854 O   0  0  0  0  0  0  0  0  0  0  0  0
 28 27  1  0  0  0
 27 20  1  0  0  0
 20 21  2  0  0  0
 21 22  1  0  0  0
 21 23  1  0  0  0
 23  1  1  0  0  0
  1  2  1  0  0  0
  2  3  1  0  0  0
  3  4  1  0  0  0
  3  5  1  0  0  0
  3  6  1  0  0  0
  6  9  1  0  0  0
  9 10  1  0  0  0
 10 11  1  0  0  0
 11 12  2  0  0  0
 12 13  1  0  0  0
 13 14  1  0  0  0
 13 15  2  0  0  0
 15 16  1  0  0  0
 11 17  1  0  0  0
 17 18  2  0  0  0
 18 19  1  0  0  0
  6  7  1  0  0  0
  7  8  1  0  0  0
 23 24  2  0  0  0
 24 25  1  0  0  0
 25 26  2  0  0  0
 28 29  1  0  0  0
 28 30  2  0  0  0
 26 20  1  0  0  0
  8  1  1  0  0  0
 19  9  2  0  0  0
 16 10  2  0  0  0
M  END
> <minimizedAffinity>
-7.98585

> <CNNscore>
0.2908668816

> <CNNaffinity>
6.6998953819

> <CNN_VS>
1.9487776756

> <CNNaffinity_variance>
0.3078302741

$$$$
[H]c1nc(N2C([H])([H])C([H])([H])N(c3c([H])c([H])c([H])c(OC(=O)C([H])([H])[H])c3Cl)C([H])([H])C2(C([H])([H])[H])C([H])([H])[H])c2c([H])c([H])c(Cl)c([H])c2n1


 30 33  0  0  0  0  0  0  0  0999 V2000
    3.1152    4.1295   15.2184 N   0  0  0  0  0  0  0  0  0  0  0  0
    1.9903    5.0284   15.3567 C   0  0  0  0  0  0  0  0  0  0  0  0
    1.9832    6.0568   14.2362 C   0  0  0  0  0  0  0  0  0  0  0  0
    2.9587    7.1671   14.4945 C   0  0  0  0  0  0  0  0  0  0  0  0
    0.5701    6.6731   14.3130 C   0  0  0  0  0  0  0  0  0  0  0  0
    2.2152    5.4657   12.9563 N   0  0  0  0  0  0  0  0  0  0  0  0
    2.7954    4.1603   12.8389 C   0  0  0  0  0  0  0  0  0  0  0  0
    3.7391    3.8632   13.9445 C   0  0  0  0  0  0  0  0  0  0  0  0
    1.8296    6.1982   11.8042 C   0  0  0  0  0  0  0  0  0  0  0  0
    0.7024    5.9317   11.0708 C   0  0  0  0  0  0  0  0  0  0  0  0
    0.4027    6.6668    9.9198 C   0  0  0  0  0  0  0  0  0  0  0  0
   -0.7343    6.4025    9.1917 C   0  0  0  0  0  0  0  0  0  0  0  0
   -1.6029    5.4121    9.5760 C   0  0  0  0  0  0  0  0  0  0  0  0
   -3.0544    5.0920    8.6251 Cl  0  0  0  0  0  0  0  0  0  0  0  0
   -1.3063    4.6930   10.7067 C   0  0  0  0  0  0  0  0  0  0  0  0
   -0.1642    4.9474   11.4513 C   0  0  0  0  0  0  0  0  0  0  0  0
    1.2527    7.6592    9.5372 N   0  0  0  0  0  0  0  0  0  0  0  0
    2.3514    7.9192   10.2546 C   0  0  0  0  0  0  0  0  0  0  0  0
    2.6269    7.2122   11.3481 N   0  0  0  0  0  0  0  0  0  0  0  0
    3.9430    1.6099   17.7685 C   0  0  0  0  0  0  0  0  0  0  0  0
    3.4211    2.1595   16.6140 C   0  0  0  0  0  0  0  0  0  0  0  0
    2.5422    1.1172   15.5279 Cl  0  0  0  0  0  0  0  0  0  0  0  0
    3.6259    3.4974   16.3732 C   0  0  0  0  0  0  0  0  0  0  0  0
    4.3530    4.2571   17.2994 C   0  0  0  0  0  0  0  0  0  0  0  0
    4.8764    3.7145   18.4533 C   0  0  0  0  0  0  0  0  0  0  0  0
    4.6640    2.3714   18.6838 C   0  0  0  0  0  0  0  0  0  0  0  0
    3.7324    0.2594   18.0052 O   0  0  0  0  0  0  0  0  0  0  0  0
    2.6958   -0.0561   18.9015 C   0  0  0  0  0  0  0  0  0  0  0  0
    2.9265   -0.0760   20.3705 C   0  0  0  0  0  0  0  0  0  0  0  0
    1.5383   -0.3306   18.4600 O   0  0  0  0  0  0  0  0  0  0  0  0
 28 27  1  0  0  0
 27 20  1  0  0  0
 20 21  2  0  0  0
 21 22  1  0  0  0
 21 23  1  0  0  0
 23  1  1  0  0  0
  1  2  1  0  0  0
  2  3  1  0  0  0
  3  4  1  0  0  0
  3  5  1  0  0  0
  3  6  1  0  0  0
  6  9  1  0  0  0
  9 10  1  0  0  0
 10 11  1  0  0  0
 11 12  2  0  0  0
 12 13  1  0  0  0
 13 14  1  0  0  0
 13 15  2  0  0  0
 15 16  1  0  0  0
 11 17  1  0  0  0
 17 18  2  0  0  0
 18 19  1  0  0  0
  6  7  1  0  0  0
  7  8  1  0  0  0
 23 24  2  0  0  0
 24 25  1  0  0  0
 25 26  2  0  0  0
 28 29  1  0  0  0
 28 30  2  0  0  0
 26 20  1  0  0  0
  8  1  1  0  0  0
 19  9  2  0  0  0
 16 10  2  0  0  0
M  END
> <minimizedAffinity>
-7.36917

> <CNNscore>
0.2871485949

> <CNNaffinity>
6.2656626701

> <CNN_VS>
1.7991762161

> <CNNaffinity_variance>
0.2329482138

$$$$
[H]c1nc(N2C([H])([H])C([H])([H])N(c3c([H])c([H])c([H])c(OC(=O)C([H])([H])[H])c3Cl)C([H])([H])C2(C([H])([H])[H])C([H])([H])[H])c2c([H])c([H])c(Cl)c([H])c2n1


 30 33  0  0  0  0  0  0  0  0999 V2000
    3.0435    4.0485   15.0906 N   0  0  0  0  0  0  0  0  0  0  0  0
    1.8735    4.8913   15.2053 C   0  0  0  0  0  0  0  0  0  0  0  0
    1.8043    5.8751   14.0475 C   0  0  0  0  0  0  0  0  0  0  0  0
    2.7213    7.0442   14.2560 C   0  0  0  0  0  0  0  0  0  0  0  0
    0.3610    6.4185   14.1137 C   0  0  0  0  0  0  0  0  0  0  0  0
    2.0588    5.2496   12.7885 N   0  0  0  0  0  0  0  0  0  0  0  0
    2.7066    3.9731   12.7145 C   0  0  0  0  0  0  0  0  0  0  0  0
    3.6721    3.7679   13.8221 C   0  0  0  0  0  0  0  0  0  0  0  0
    1.6271    5.9169   11.6134 C   0  0  0  0  0  0  0  0  0  0  0  0
    2.4598    6.6282   10.7886 C   0  0  0  0  0  0  0  0  0  0  0  0
    1.9611    7.2981    9.6672 C   0  0  0  0  0  0  0  0  0  0  0  0
    2.8014    8.0031    8.8368 C   0  0  0  0  0  0  0  0  0  0  0  0
    4.1492    8.0667    9.0869 C   0  0  0  0  0  0  0  0  0  0  0  0
    5.2061    8.9779    8.0070 Cl  0  0  0  0  0  0  0  0  0  0  0  0
    4.6356    7.4074   10.1879 C   0  0  0  0  0  0  0  0  0  0  0  0
    3.8015    6.6925   11.0345 C   0  0  0  0  0  0  0  0  0  0  0  0
    0.6269    7.2311    9.4045 N   0  0  0  0  0  0  0  0  0  0  0  0
   -0.1843    6.5354   10.2092 C   0  0  0  0  0  0  0  0  0  0  0  0
    0.3017    5.9025   11.2744 N   0  0  0  0  0  0  0  0  0  0  0  0
    3.9963    1.6796   17.7397 C   0  0  0  0  0  0  0  0  0  0  0  0
    3.4364    2.1574   16.5712 C   0  0  0  0  0  0  0  0  0  0  0  0
    2.5708    1.0383   15.5529 Cl  0  0  0  0  0  0  0  0  0  0  0  0
    3.5949    3.4879   16.2636 C   0  0  0  0  0  0  0  0  0  0  0  0
    4.3147    4.3126   17.1385 C   0  0  0  0  0  0  0  0  0  0  0  0
    4.8759    3.8419   18.3061 C   0  0  0  0  0  0  0  0  0  0  0  0
    4.7098    2.5054   18.6037 C   0  0  0  0  0  0  0  0  0  0  0  0
    3.8324    0.3362   18.0439 O   0  0  0  0  0  0  0  0  0  0  0  0
    2.7759    0.0254   18.9184 C   0  0  0  0  0  0  0  0  0  0  0  0
    2.9563    0.0761   20.3936 C   0  0  0  0  0  0  0  0  0  0  0  0
    1.6435   -0.3056   18.4514 O   0  0  0  0  0  0  0  0  0  0  0  0
 28 27  1  0  0  0
 27 20  1  0  0  0
 20 21  2  0  0  0
 21 22  1  0  0  0
 21 23  1  0  0  0
 23  1  1  0  0  0
  1  2  1  0  0  0
  2  3  1  0  0  0
  3  4  1  0  0  0
  3  5  1  0  0  0
  3  6  1  0  0  0
  6  9  1  0  0  0
  9 10  1  0  0  0
 10 11  1  0  0  0
 11 12  2  0  0  0
 12 13  1  0  0  0
 13 14  1  0  0  0
 13 15  2  0  0  0
 15 16  1  0  0  0
 11 17  1  0  0  0
 17 18  2  0  0  0
 18 19  1  0  0  0
  6  7  1  0  0  0
  7  8  1  0  0  0
 23 24  2  0  0  0
 24 25  1  0  0  0
 25 26  2  0  0  0
 28 29  1  0  0  0
 28 30  2  0  0  0
 26 20  1  0  0  0
  8  1  1  0  0  0
 19  9  2  0  0  0
 16 10  2  0  0  0
M  END
> <minimizedAffinity>
-7.35520

> <CNNscore>
0.2376738936

> <CNNaffinity>
6.2167434692

> <CNN_VS>
1.4775576591

> <CNNaffinity_variance>
0.3366856575

$$$$
[H]c1nc(N2C([H])([H])C([H])([H])N(c3c([H])c([H])c([H])c(OC(=O)C([H])([H])[H])c3Cl)C([H])([H])C2(C([H])([H])[H])C([H])([H])[H])c2c([H])c([H])c(Cl)c([H])c2n1


 30 33  0  0  0  0  0  0  0  0999 V2000
    3.0607    3.2734   15.9755 N   0  0  0  0  0  0  0  0  0  0  0  0
    2.3912    4.4962   15.5896 C   0  0  0  0  0  0  0  0  0  0  0  0
    2.1964    4.5496   14.0821 C   0  0  0  0  0  0  0  0  0  0  0  0
    3.4529    4.9619   13.3734 C   0  0  0  0  0  0  0  0  0  0  0  0
    1.1742    5.6892   13.8845 C   0  0  0  0  0  0  0  0  0  0  0  0
    1.6984    3.3182   13.5559 N   0  0  0  0  0  0  0  0  0  0  0  0
    1.7940    2.1008   14.3064 C   0  0  0  0  0  0  0  0  0  0  0  0
    2.9933    2.0715   15.1793 C   0  0  0  0  0  0  0  0  0  0  0  0
    1.0817    3.3402   12.2785 C   0  0  0  0  0  0  0  0  0  0  0  0
    1.5973    2.7198   11.1700 C   0  0  0  0  0  0  0  0  0  0  0  0
    0.9592    2.8164    9.9296 C   0  0  0  0  0  0  0  0  0  0  0  0
    1.4747    2.1846    8.8215 C   0  0  0  0  0  0  0  0  0  0  0  0
    2.6268    1.4438    8.9048 C   0  0  0  0  0  0  0  0  0  0  0  0
    3.2682    0.6432    7.4691 Cl  0  0  0  0  0  0  0  0  0  0  0  0
    3.2502    1.3503   10.1239 C   0  0  0  0  0  0  0  0  0  0  0  0
    2.7430    1.9812   11.2501 C   0  0  0  0  0  0  0  0  0  0  0  0
   -0.1908    3.5397    9.8397 N   0  0  0  0  0  0  0  0  0  0  0  0
   -0.6936    4.1433   10.9225 C   0  0  0  0  0  0  0  0  0  0  0  0
   -0.0769    4.0450   12.0978 N   0  0  0  0  0  0  0  0  0  0  0  0
    4.6108    2.2105   19.1384 C   0  0  0  0  0  0  0  0  0  0  0  0
    3.8595    2.1503   17.9812 C   0  0  0  0  0  0  0  0  0  0  0  0
    3.0222    0.6654   17.6171 Cl  0  0  0  0  0  0  0  0  0  0  0  0
    3.8144    3.2590   17.1696 C   0  0  0  0  0  0  0  0  0  0  0  0
    4.5271    4.4077   17.5383 C   0  0  0  0  0  0  0  0  0  0  0  0
    5.2786    4.4741   18.6918 C   0  0  0  0  0  0  0  0  0  0  0  0
    5.3158    3.3556   19.4979 C   0  0  0  0  0  0  0  0  0  0  0  0
    4.6517    1.0882   19.9528 O   0  0  0  0  0  0  0  0  0  0  0  0
    3.7187    1.0539   21.0043 C   0  0  0  0  0  0  0  0  0  0  0  0
    2.7053   -0.0303   21.1004 C   0  0  0  0  0  0  0  0  0  0  0  0
    3.7323    1.9593   21.8932 O   0  0  0  0  0  0  0  0  0  0  0  0
 28 27  1  0  0  0
 27 20  1  0  0  0
 20 21  2  0  0  0
 21 22  1  0  0  0
 21 23  1  0  0  0
 23  1  1  0  0  0
  1  2  1  0  0  0
  2  3  1  0  0  0
  3  4  1  0  0  0
  3  5  1  0  0  0
  3  6  1  0  0  0
  6  9  1  0  0  0
  9 10  1  0  0  0
 10 11  1  0  0  0
 11 12  2  0  0  0
 12 13  1  0  0  0
 13 14  1  0  0  0
 13 15  2  0  0  0
 15 16  1  0  0  0
 11 17  1  0  0  0
 17 18  2  0  0  0
 18 19  1  0  0  0
  6  7  1  0  0  0
  7  8  1  0  0  0
 23 24  2  0  0  0
 24 25  1  0  0  0
 25 26  2  0  0  0
 28 29  1  0  0  0
 28 30  2  0  0  0
 26 20  1  0  0  0
  8  1  1  0  0  0
 19  9  2  0  0  0
 16 10  2  0  0  0
M  END
> <minimizedAffinity>
-7.35213

> <CNNscore>
0.1842554212

> <CNNaffinity>
6.2913699150

> <CNN_VS>
1.1592190266

> <CNNaffinity_variance>
0.1649350077

$$$$
[H]c1nc(N2C([H])([H])C([H])([H])N(c3c([H])c([H])c([H])c(OC(=O)C([H])([H])[H])c3Cl)C([H])([H])C2(C([H])([H])[H])C([H])([H])[H])c2c([H])c([H])c(Cl)c([H])c2n1


 30 33  0  0  0  0  0  0  0  0999 V2000
    2.6261    2.5166   15.7274 N   0  0  0  0  0  0  0  0  0  0  0  0
    2.1247    3.8708   15.8119 C   0  0  0  0  0  0  0  0  0  0  0  0
    2.3773    4.6194   14.5123 C   0  0  0  0  0  0  0  0  0  0  0  0
    3.7943    5.1031   14.4157 C   0  0  0  0  0  0  0  0  0  0  0  0
    1.4821    5.8713   14.6302 C   0  0  0  0  0  0  0  0  0  0  0  0
    2.0265    3.8454   13.3637 N   0  0  0  0  0  0  0  0  0  0  0  0
    1.8730    2.4229   13.4493 C   0  0  0  0  0  0  0  0  0  0  0  0
    2.7662    1.8217   14.4701 C   0  0  0  0  0  0  0  0  0  0  0  0
    1.8080    4.5296   12.1403 C   0  0  0  0  0  0  0  0  0  0  0  0
    0.5658    4.8191   11.6376 C   0  0  0  0  0  0  0  0  0  0  0  0
    0.4209    5.4600   10.4034 C   0  0  0  0  0  0  0  0  0  0  0  0
   -0.8272    5.7571    9.9067 C   0  0  0  0  0  0  0  0  0  0  0  0
   -1.9608    5.4330   10.6089 C   0  0  0  0  0  0  0  0  0  0  0  0
   -3.5503    5.8243    9.9502 Cl  0  0  0  0  0  0  0  0  0  0  0  0
   -1.8150    4.8047   11.8203 C   0  0  0  0  0  0  0  0  0  0  0  0
   -0.5638    4.4986   12.3346 C   0  0  0  0  0  0  0  0  0  0  0  0
    1.5401    5.7960    9.7049 N   0  0  0  0  0  0  0  0  0  0  0  0
    2.7517    5.5143   10.1973 C   0  0  0  0  0  0  0  0  0  0  0  0
    2.8773    4.9031   11.3729 N   0  0  0  0  0  0  0  0  0  0  0  0
    4.2681    1.6709   18.9094 C   0  0  0  0  0  0  0  0  0  0  0  0
    3.9461    2.3771   17.7671 C   0  0  0  0  0  0  0  0  0  0  0  0
    4.7544    3.8944   17.4795 Cl  0  0  0  0  0  0  0  0  0  0  0  0
    2.9999    1.8548   16.9175 C   0  0  0  0  0  0  0  0  0  0  0  0
    2.3951    0.6310   17.2343 C   0  0  0  0  0  0  0  0  0  0  0  0
    2.7121   -0.0785   18.3726 C   0  0  0  0  0  0  0  0  0  0  0  0
    3.6630    0.4556   19.2169 C   0  0  0  0  0  0  0  0  0  0  0  0
    5.2238    2.2036   19.7622 O   0  0  0  0  0  0  0  0  0  0  0  0
    5.3655    1.5650   21.0069 C   0  0  0  0  0  0  0  0  0  0  0  0
    6.5508    0.7192   21.3086 C   0  0  0  0  0  0  0  0  0  0  0  0
    4.4718    1.7059   21.8966 O   0  0  0  0  0  0  0  0  0  0  0  0
 28 27  1  0  0  0
 27 20  1  0  0  0
 20 21  2  0  0  0
 21 22  1  0  0  0
 21 23  1  0  0  0
 23  1  1  0  0  0
  1  2  1  0  0  0
  2  3  1  0  0  0
  3  4  1  0  0  0
  3  5  1  0  0  0
  3  6  1  0  0  0
  6  9  1  0  0  0
  9 10  1  0  0  0
 10 11  1  0  0  0
 11 12  2  0  0  0
 12 13  1  0  0  0
 13 14  1  0  0  0
 13 15  2  0  0  0
 15 16  1  0  0  0
 11 17  1  0  0  0
 17 18  2  0  0  0
 18 19  1  0  0  0
  6  7  1  0  0  0
  7  8  1  0  0  0
 23 24  2  0  0  0
 24 25  1  0  0  0
 25 26  2  0  0  0
 28 29  1  0  0  0
 28 30  2  0  0  0
 26 20  1  0  0  0
  8  1  1  0  0  0
 19  9  2  0  0  0
 16 10  2  0  0  0
M  END
> <minimizedAffinity>
-7.43193

> <CNNscore>
0.1719384491

> <CNNaffinity>
5.9980115891

> <CNN_VS>
1.0312888622

> <CNNaffinity_variance>
0.1943110973

$$$$
[H]c1nc(N2C([H])([H])C([H])([H])N(c3c([H])c([H])c([H])c(OC(=O)C([H])([H])[H])c3Cl)C([H])([H])C2(C([H])([H])[H])C([H])([H])[H])c2c([H])c([H])c(Cl)c([H])c2n1


 30 33  0  0  0  0  0  0  0  0999 V2000
    4.1700    4.6634   17.2198 N   0  0  0  0  0  0  0  0  0  0  0  0
    4.4834    3.9530   15.9993 C   0  0  0  0  0  0  0  0  0  0  0  0
    3.4583    4.2623   14.9191 C   0  0  0  0  0  0  0  0  0  0  0  0
    2.1968    3.4724   15.1072 C   0  0  0  0  0  0  0  0  0  0  0  0
    4.1227    3.7469   13.6247 C   0  0  0  0  0  0  0  0  0  0  0  0
    3.1727    5.6592   14.8268 N   0  0  0  0  0  0  0  0  0  0  0  0
    3.4973    6.5528   15.8995 C   0  0  0  0  0  0  0  0  0  0  0  0
    3.4138    5.8927   17.2256 C   0  0  0  0  0  0  0  0  0  0  0  0
    2.5820    6.1410   13.6304 C   0  0  0  0  0  0  0  0  0  0  0  0
    1.2380    6.3645   13.4775 C   0  0  0  0  0  0  0  0  0  0  0  0
    0.7158    6.8007   12.2560 C   0  0  0  0  0  0  0  0  0  0  0  0
   -0.6323    7.0328   12.1094 C   0  0  0  0  0  0  0  0  0  0  0  0
   -1.4983    6.8428   13.1568 C   0  0  0  0  0  0  0  0  0  0  0  0
   -3.2232    7.1469   12.9434 Cl  0  0  0  0  0  0  0  0  0  0  0  0
   -0.9824    6.4153   14.3546 C   0  0  0  0  0  0  0  0  0  0  0  0
    0.3741    6.1772   14.5183 C   0  0  0  0  0  0  0  0  0  0  0  0
    1.5688    7.0031   11.2144 N   0  0  0  0  0  0  0  0  0  0  0  0
    2.8802    6.7862   11.3654 C   0  0  0  0  0  0  0  0  0  0  0  0
    3.3658    6.3701   12.5326 N   0  0  0  0  0  0  0  0  0  0  0  0
    4.9016    2.3485   19.9843 C   0  0  0  0  0  0  0  0  0  0  0  0
    4.4516    2.7996   18.7591 C   0  0  0  0  0  0  0  0  0  0  0  0
    3.7152    1.6495   17.6758 Cl  0  0  0  0  0  0  0  0  0  0  0  0
    4.6127    4.1294   18.4498 C   0  0  0  0  0  0  0  0  0  0  0  0
    5.2244    4.9803   19.3801 C   0  0  0  0  0  0  0  0  0  0  0  0
    5.6756    4.5362   20.6044 C   0  0  0  0  0  0  0  0  0  0  0  0
    5.5081    3.2002   20.9032 C   0  0  0  0  0  0  0  0  0  0  0  0
    4.7356    1.0056   20.2899 O   0  0  0  0  0  0  0  0  0  0  0  0
    3.5827    0.6775   21.0252 C   0  0  0  0  0  0  0  0  0  0  0  0
    3.4509    1.0502   22.4588 C   0  0  0  0  0  0  0  0  0  0  0  0
    2.6311    0.0521   20.4654 O   0  0  0  0  0  0  0  0  0  0  0  0
 28 27  1  0  0  0
 27 20  1  0  0  0
 20 21  2  0  0  0
 21 22  1  0  0  0
 21 23  1  0  0  0
 23  1  1  0  0  0
  1  2  1  0  0  0
  2  3  1  0  0  0
  3  4  1  0  0  0
  3  5  1  0  0  0
  3  6  1  0  0  0
  6  9  1  0  0  0
  9 10  1  0  0  0
 10 11  1  0  0  0
 11 12  2  0  0  0
 12 13  1  0  0  0
 13 14  1  0  0  0
 13 15  2  0  0  0
 15 16  1  0  0  0
 11 17  1  0  0  0
 17 18  2  0  0  0
 18 19  1  0  0  0
  6  7  1  0  0  0
  7  8  1  0  0  0
 23 24  2  0  0  0
 24 25  1  0  0  0
 25 26  2  0  0  0
 28 29  1  0  0  0
 28 30  2  0  0  0
 26 20  1  0  0  0
  8  1  1  0  0  0
 19  9  2  0  0  0
 16 10  2  0  0  0
M  END
> <minimizedAffinity>
-7.41082

> <CNNscore>
0.1656045914

> <CNNaffinity>
6.3090119362

> <CNN_VS>
1.0448013544

> <CNNaffinity_variance>
0.2525596023

$$$$
[H]c1nc(N2C([H])([H])C([H])([H])N(c3c([H])c([H])c([H])c(OC(=O)C([H])([H])[H])c3Cl)C([H])([H])C2(C([H])([H])[H])C([H])([H])[H])c2c([H])c([H])c(Cl)c([H])c2n1


 30 33  0  0  0  0  0  0  0  0999 V2000
    1.6675    6.4021   10.7322 N   0  0  0  0  0  0  0  0  0  0  0  0
    2.8315    5.5433   10.7357 C   0  0  0  0  0  0  0  0  0  0  0  0
    3.5728    5.6481   12.0596 C   0  0  0  0  0  0  0  0  0  0  0  0
    4.4269    6.8800   12.1226 C   0  0  0  0  0  0  0  0  0  0  0  0
    4.5305    4.4376   12.0405 C   0  0  0  0  0  0  0  0  0  0  0  0
    2.6903    5.5852   13.1815 N   0  0  0  0  0  0  0  0  0  0  0  0
    1.2852    5.8253   13.0315 C   0  0  0  0  0  0  0  0  0  0  0  0
    0.9934    6.7944   11.9466 C   0  0  0  0  0  0  0  0  0  0  0  0
    3.2418    5.2515   14.4452 C   0  0  0  0  0  0  0  0  0  0  0  0
    3.1676    4.0026   15.0060 C   0  0  0  0  0  0  0  0  0  0  0  0
    3.6966    3.7517   16.2757 C   0  0  0  0  0  0  0  0  0  0  0  0
    3.6284    2.4949   16.8311 C   0  0  0  0  0  0  0  0  0  0  0  0
    3.0406    1.4561   16.1540 C   0  0  0  0  0  0  0  0  0  0  0  0
    2.9651   -0.1468   16.8879 Cl  0  0  0  0  0  0  0  0  0  0  0  0
    2.5230    1.7055   14.9076 C   0  0  0  0  0  0  0  0  0  0  0  0
    2.5840    2.9669   14.3342 C   0  0  0  0  0  0  0  0  0  0  0  0
    4.2921    4.7735   16.9502 N   0  0  0  0  0  0  0  0  0  0  0  0
    4.3652    5.9912   16.4013 C   0  0  0  0  0  0  0  0  0  0  0  0
    3.8573    6.2184   15.1923 N   0  0  0  0  0  0  0  0  0  0  0  0
   -0.4376    6.9670    7.7681 C   0  0  0  0  0  0  0  0  0  0  0  0
   -0.0271    6.4633    8.9867 C   0  0  0  0  0  0  0  0  0  0  0  0
   -1.0721    5.3354    9.8079 Cl  0  0  0  0  0  0  0  0  0  0  0  0
    1.1796    6.8805    9.4964 C   0  0  0  0  0  0  0  0  0  0  0  0
    1.9504    7.7977    8.7697 C   0  0  0  0  0  0  0  0  0  0  0  0
    1.5463    8.3040    7.5531 C   0  0  0  0  0  0  0  0  0  0  0  0
    0.3340    7.8777    7.0521 C   0  0  0  0  0  0  0  0  0  0  0  0
   -1.6561    6.5416    7.2596 O   0  0  0  0  0  0  0  0  0  0  0  0
   -2.7570    7.3792    7.5122 C   0  0  0  0  0  0  0  0  0  0  0  0
   -3.9157    6.9076    8.3162 C   0  0  0  0  0  0  0  0  0  0  0  0
   -2.7728    8.5611    7.0507 O   0  0  0  0  0  0  0  0  0  0  0  0
 28 27  1  0  0  0
 27 20  1  0  0  0
 20 21  2  0  0  0
 21 22  1  0  0  0
 21 23  1  0  0  0
 23  1  1  0  0  0
  1  2  1  0  0  0
  2  3  1  0  0  0
  3  4  1  0  0  0
  3  5  1  0  0  0
  3  6  1  0  0  0
  6  9  1  0  0  0
  9 10  1  0  0  0
 10 11  1  0  0  0
 11 12  2  0  0  0
 12 13  1  0  0  0
 13 14  1  0  0  0
 13 15  2  0  0  0
 15 16  1  0  0  0
 11 17  1  0  0  0
 17 18  2  0  0  0
 18 19  1  0  0  0
  6  7  1  0  0  0
  7  8  1  0  0  0
 23 24  2  0  0  0
 24 25  1  0  0  0
 25 26  2  0  0  0
 28 29  1  0  0  0
 28 30  2  0  0  0
 26 20  1  0  0  0
  8  1  1  0  0  0
 19  9  2  0  0  0
 16 10  2  0  0  0
M  END
> <minimizedAffinity>
-6.47928

> <CNNscore>
0.1353536695

> <CNNaffinity>
5.6479191780

> <CNN_VS>
0.7644665837

> <CNNaffinity_variance>
0.0956970528

$$$$
[H]c1nc(N2C([H])([H])C([H])([H])N(c3c([H])c([H])c([H])c(OC(=O)C([H])([H])[H])c3Cl)C([H])([H])C2(C([H])([H])[H])C([H])([H])[H])c2c([H])c([H])c(Cl)c([H])c2n1


 30 33  0  0  0  0  0  0  0  0999 V2000
    3.5504    4.2945   16.6896 N   0  0  0  0  0  0  0  0  0  0  0  0
    2.3175    4.9182   16.2612 C   0  0  0  0  0  0  0  0  0  0  0  0
    2.4916    5.5734   14.8997 C   0  0  0  0  0  0  0  0  0  0  0  0
    3.1787    6.9029   15.0063 C   0  0  0  0  0  0  0  0  0  0  0  0
    1.0448    5.8509   14.4386 C   0  0  0  0  0  0  0  0  0  0  0  0
    3.1706    4.7247   13.9724 N   0  0  0  0  0  0  0  0  0  0  0  0
    3.9408    3.6032   14.4235 C   0  0  0  0  0  0  0  0  0  0  0  0
    4.5516    3.8399   15.7547 C   0  0  0  0  0  0  0  0  0  0  0  0
    3.0385    5.0089   12.5888 C   0  0  0  0  0  0  0  0  0  0  0  0
    2.3585    4.2103   11.7060 C   0  0  0  0  0  0  0  0  0  0  0  0
    2.3023    4.5275   10.3453 C   0  0  0  0  0  0  0  0  0  0  0  0
    1.6110    3.7287    9.4641 C   0  0  0  0  0  0  0  0  0  0  0  0
    0.9591    2.6014    9.8971 C   0  0  0  0  0  0  0  0  0  0  0  0
    0.0796    1.5927    8.7470 Cl  0  0  0  0  0  0  0  0  0  0  0  0
    1.0155    2.2933   11.2333 C   0  0  0  0  0  0  0  0  0  0  0  0
    1.7081    3.0885   12.1341 C   0  0  0  0  0  0  0  0  0  0  0  0
    2.9364    5.6503    9.9084 N   0  0  0  0  0  0  0  0  0  0  0  0
    3.5983    6.4295   10.7711 C   0  0  0  0  0  0  0  0  0  0  0  0
    3.6456    6.1169   12.0639 N   0  0  0  0  0  0  0  0  0  0  0  0
    4.3165    2.8256   19.9747 C   0  0  0  0  0  0  0  0  0  0  0  0
    4.1081    2.9106   18.6121 C   0  0  0  0  0  0  0  0  0  0  0  0
    4.2772    1.4608   17.6592 Cl  0  0  0  0  0  0  0  0  0  0  0  0
    3.7857    4.1333   18.0726 C   0  0  0  0  0  0  0  0  0  0  0  0
    3.6795    5.2478   18.9153 C   0  0  0  0  0  0  0  0  0  0  0  0
    3.8863    5.1695   20.2757 C   0  0  0  0  0  0  0  0  0  0  0  0
    4.2089    3.9375   20.8052 C   0  0  0  0  0  0  0  0  0  0  0  0
    4.6413    1.5888   20.5124 O   0  0  0  0  0  0  0  0  0  0  0  0
    3.6070    0.9193   21.1904 C   0  0  0  0  0  0  0  0  0  0  0  0
    3.4067    1.0919   22.6537 C   0  0  0  0  0  0  0  0  0  0  0  0
    2.8243    0.1513   20.5518 O   0  0  0  0  0  0  0  0  0  0  0  0
 28 27  1  0  0  0
 27 20  1  0  0  0
 20 21  2  0  0  0
 21 22  1  0  0  0
 21 23  1  0  0  0
 23  1  1  0  0  0
  1  2  1  0  0  0
  2  3  1  0  0  0
  3  4  1  0  0  0
  3  5  1  0  0  0
  3  6  1  0  0  0
  6  9  1  0  0  0
  9 10  1  0  0  0
 10 11  1  0  0  0
 11 12  2  0  0  0
 12 13  1  0  0  0
 13 14  1  0  0  0
 13 15  2  0  0  0
 15 16  1  0  0  0
 11 17  1  0  0  0
 17 18  2  0  0  0
 18 19  1  0  0  0
  6  7  1  0  0  0
  7  8  1  0  0  0
 23 24  2  0  0  0
 24 25  1  0  0  0
 25 26  2  0  0  0
 28 29  1  0  0  0
 28 30  2  0  0  0
 26 20  1  0  0  0
  8  1  1  0  0  0
 19  9  2  0  0  0
 16 10  2  0  0  0
M  END
> <minimizedAffinity>
-7.11688

> <CNNscore>
0.1334987581

> <CNNaffinity>
6.1812515259

> <CNN_VS>
0.8251894116

> <CNNaffinity_variance>
0.5530073643

$$$$
[H]c1nc([H])c(-c2c([H])c([H])c(N(C(=O)N3C(=O)N(C([H])([H])[H])C(=O)C3(C([H])([H])[H])C([H])([H])[H])C([H])([H])[H])c([H])c2[H])c([H])c1Cl


 27 29  0  0  0  0  0  0  0  0999 V2000
    3.4384    8.2162    7.9842 C   0  0  0  0  0  0  0  0  0  0  0  0
    3.9093    7.2711    8.9660 N   0  0  0  0  0  0  0  0  0  0  0  0
    3.4852    7.0918   10.3435 C   0  0  0  0  0  0  0  0  0  0  0  0
    2.6024    7.8005   10.8687 O   0  0  0  0  0  0  0  0  0  0  0  0
    4.2288    6.0358   10.9136 N   0  0  0  0  0  0  0  0  0  0  0  0
    3.9298    5.1242   11.9410 C   0  0  0  0  0  0  0  0  0  0  0  0
    4.9390    4.3468   12.3233 O   0  0  0  0  0  0  0  0  0  0  0  0
    2.7717    4.8590   12.6546 N   0  0  0  0  0  0  0  0  0  0  0  0
    1.4743    5.3807   12.3446 C   0  0  0  0  0  0  0  0  0  0  0  0
    5.5129    6.1380   10.1749 C   0  0  0  0  0  0  0  0  0  0  0  0
    6.3865    4.9595   10.2987 C   0  0  0  0  0  0  0  0  0  0  0  0
    6.1856    7.4263   10.5514 C   0  0  0  0  0  0  0  0  0  0  0  0
    4.9249    6.2749    8.7912 C   0  0  0  0  0  0  0  0  0  0  0  0
    5.2395    5.6743    7.7502 O   0  0  0  0  0  0  0  0  0  0  0  0
    2.8266    3.9417   13.7885 C   0  0  0  0  0  0  0  0  0  0  0  0
    3.0483    4.4582   15.0436 C   0  0  0  0  0  0  0  0  0  0  0  0
    3.1057    3.6061   16.1432 C   0  0  0  0  0  0  0  0  0  0  0  0
    2.9426    2.2372   15.9990 C   0  0  0  0  0  0  0  0  0  0  0  0
    2.7223    1.7383   14.7400 C   0  0  0  0  0  0  0  0  0  0  0  0
    2.6661    2.5983   13.6430 C   0  0  0  0  0  0  0  0  0  0  0  0
    3.0119    1.3899   17.1891 C   0  0  0  0  0  0  0  0  0  0  0  0
    2.3273    0.2067   17.3024 C   0  0  0  0  0  0  0  0  0  0  0  0
    2.4278   -0.5356   18.4216 N   0  0  0  0  0  0  0  0  0  0  0  0
    3.1931   -0.1652   19.4763 C   0  0  0  0  0  0  0  0  0  0  0  0
    3.8884    1.0209   19.3811 C   0  0  0  0  0  0  0  0  0  0  0  0
    4.9028    1.5520   20.7270 Cl  0  0  0  0  0  0  0  0  0  0  0  0
    3.8036    1.8003   18.2472 C   0  0  0  0  0  0  0  0  0  0  0  0
  1  2  1  0  0  0
  2  3  1  0  0  0
  3  4  2  0  0  0
  3  5  1  0  0  0
  5  6  1  0  0  0
  6  7  2  0  0  0
  6  8  1  0  0  0
  8  9  1  0  0  0
  8 15  1  0  0  0
 15 16  2  0  0  0
 16 17  1  0  0  0
 17 18  2  0  0  0
 18 19  1  0  0  0
 19 20  2  0  0  0
 18 21  1  0  0  0
 21 22  2  0  0  0
 22 23  1  0  0  0
 23 24  2  0  0  0
 24 25  1  0  0  0
 25 26  1  0  0  0
 25 27  2  0  0  0
  5 10  1  0  0  0
 10 11  1  0  0  0
 10 12  1  0  0  0
 10 13  1  0  0  0
 13 14  2  0  0  0
 13  2  1  0  0  0
 20 15  1  0  0  0
 27 21  1  0  0  0
M  END
> <minimizedAffinity>
-7.16211

> <CNNscore>
0.7801651359

> <CNNaffinity>
5.8554902077

> <CNN_VS>
4.5682492256

> <CNNaffinity_variance>
0.0662419796

$$$$
[H]c1nc([H])c(-c2c([H])c([H])c(N(C(=O)N3C(=O)N(C([H])([H])[H])C(=O)C3(C([H])([H])[H])C([H])([H])[H])C([H])([H])[H])c([H])c2[H])c([H])c1Cl


 27 29  0  0  0  0  0  0  0  0999 V2000
    1.4730   -2.6622    7.0519 C   0  0  0  0  0  0  0  0  0  0  0  0
    2.1762   -1.6099    7.7426 N   0  0  0  0  0  0  0  0  0  0  0  0
    1.8767   -0.1898    7.7981 C   0  0  0  0  0  0  0  0  0  0  0  0
    0.9047    0.3123    7.1976 O   0  0  0  0  0  0  0  0  0  0  0  0
    2.8445    0.4470    8.6049 N   0  0  0  0  0  0  0  0  0  0  0  0
    2.7901    1.6055    9.3993 C   0  0  0  0  0  0  0  0  0  0  0  0
    3.9524    1.9982    9.9129 O   0  0  0  0  0  0  0  0  0  0  0  0
    1.7500    2.4432    9.7696 N   0  0  0  0  0  0  0  0  0  0  0  0
    0.3597    2.1795    9.5477 C   0  0  0  0  0  0  0  0  0  0  0  0
    4.0383   -0.4050    8.3731 C   0  0  0  0  0  0  0  0  0  0  0  0
    5.1312   -0.2043    9.3390 C   0  0  0  0  0  0  0  0  0  0  0  0
    4.4671   -0.2570    6.9420 C   0  0  0  0  0  0  0  0  0  0  0  0
    3.3550   -1.7398    8.5475 C   0  0  0  0  0  0  0  0  0  0  0  0
    3.7194   -2.7172    9.2223 O   0  0  0  0  0  0  0  0  0  0  0  0
    2.0494    3.6776   10.4886 C   0  0  0  0  0  0  0  0  0  0  0  0
    2.0273    3.6612   11.8634 C   0  0  0  0  0  0  0  0  0  0  0  0
    2.3088    4.8245   12.5748 C   0  0  0  0  0  0  0  0  0  0  0  0
    2.6137    6.0085   11.9216 C   0  0  0  0  0  0  0  0  0  0  0  0
    2.6314    6.0075   10.5498 C   0  0  0  0  0  0  0  0  0  0  0  0
    2.3483    4.8381    9.8438 C   0  0  0  0  0  0  0  0  0  0  0  0
    2.9018    7.1997   12.7198 C   0  0  0  0  0  0  0  0  0  0  0  0
    1.9273    8.0685   13.1404 C   0  0  0  0  0  0  0  0  0  0  0  0
    2.2483    9.1508   13.8747 N   0  0  0  0  0  0  0  0  0  0  0  0
    3.5231    9.4378   14.2321 C   0  0  0  0  0  0  0  0  0  0  0  0
    4.5163    8.5765   13.8185 C   0  0  0  0  0  0  0  0  0  0  0  0
    6.1968    8.9021   14.2570 Cl  0  0  0  0  0  0  0  0  0  0  0  0
    4.2157    7.4613   13.0659 C   0  0  0  0  0  0  0  0  0  0  0  0
  1  2  1  0  0  0
  2  3  1  0  0  0
  3  4  2  0  0  0
  3  5  1  0  0  0
  5  6  1  0  0  0
  6  7  2  0  0  0
  6  8  1  0  0  0
  8  9  1  0  0  0
  8 15  1  0  0  0
 15 16  2  0  0  0
 16 17  1  0  0  0
 17 18  2  0  0  0
 18 19  1  0  0  0
 19 20  2  0  0  0
 18 21  1  0  0  0
 21 22  2  0  0  0
 22 23  1  0  0  0
 23 24  2  0  0  0
 24 25  1  0  0  0
 25 26  1  0  0  0
 25 27  2  0  0  0
  5 10  1  0  0  0
 10 11  1  0  0  0
 10 12  1  0  0  0
 10 13  1  0  0  0
 13 14  2  0  0  0
 13  2  1  0  0  0
 20 15  1  0  0  0
 27 21  1  0  0  0
M  END
> <minimizedAffinity>
-4.71564

> <CNNscore>
0.3846029341

> <CNNaffinity>
5.1630172729

> <CNN_VS>
1.9857115746

> <CNNaffinity_variance>
0.3660546541

$$$$
[H]c1nc([H])c(-c2c([H])c([H])c(N(C(=O)N3C(=O)N(C([H])([H])[H])C(=O)C3(C([H])([H])[H])C([H])([H])[H])C([H])([H])[H])c([H])c2[H])c([H])c1Cl


 27 29  0  0  0  0  0  0  0  0999 V2000
    5.1758    4.9799   22.9242 C   0  0  0  0  0  0  0  0  0  0  0  0
    4.9681    4.1466   21.7661 N   0  0  0  0  0  0  0  0  0  0  0  0
    4.0507    4.3321   20.6555 C   0  0  0  0  0  0  0  0  0  0  0  0
    3.2755    5.3075   20.5847 O   0  0  0  0  0  0  0  0  0  0  0  0
    4.2078    3.2582   19.7527 N   0  0  0  0  0  0  0  0  0  0  0  0
    4.0099    3.1617   18.3643 C   0  0  0  0  0  0  0  0  0  0  0  0
    4.1148    1.9360   17.8586 O   0  0  0  0  0  0  0  0  0  0  0  0
    3.7233    4.1027   17.3881 N   0  0  0  0  0  0  0  0  0  0  0  0
    3.7476    5.5221   17.5785 C   0  0  0  0  0  0  0  0  0  0  0  0
    4.6051    2.1545   20.6631 C   0  0  0  0  0  0  0  0  0  0  0  0
    5.1734    0.9767   19.9867 C   0  0  0  0  0  0  0  0  0  0  0  0
    3.4479    1.8299   21.5628 C   0  0  0  0  0  0  0  0  0  0  0  0
    5.6409    2.9213   21.4494 C   0  0  0  0  0  0  0  0  0  0  0  0
    6.7965    2.5800   21.7522 O   0  0  0  0  0  0  0  0  0  0  0  0
    3.4161    3.6546   16.0334 C   0  0  0  0  0  0  0  0  0  0  0  0
    4.0588    4.2583   14.9782 C   0  0  0  0  0  0  0  0  0  0  0  0
    3.7847    3.8508   13.6754 C   0  0  0  0  0  0  0  0  0  0  0  0
    2.8707    2.8413   13.4169 C   0  0  0  0  0  0  0  0  0  0  0  0
    2.2383    2.2496   14.4810 C   0  0  0  0  0  0  0  0  0  0  0  0
    2.5180    2.6632   15.7837 C   0  0  0  0  0  0  0  0  0  0  0  0
    2.6226    2.4536   12.0287 C   0  0  0  0  0  0  0  0  0  0  0  0
    3.3766    2.9151   10.9799 C   0  0  0  0  0  0  0  0  0  0  0  0
    3.1049    2.5247    9.7200 N   0  0  0  0  0  0  0  0  0  0  0  0
    2.0942    1.6732    9.4222 C   0  0  0  0  0  0  0  0  0  0  0  0
    1.3252    1.1989   10.4628 C   0  0  0  0  0  0  0  0  0  0  0  0
   -0.0058    0.0849   10.1316 Cl  0  0  0  0  0  0  0  0  0  0  0  0
    1.5813    1.5822   11.7620 C   0  0  0  0  0  0  0  0  0  0  0  0
  1  2  1  0  0  0
  2  3  1  0  0  0
  3  4  2  0  0  0
  3  5  1  0  0  0
  5  6  1  0  0  0
  6  7  2  0  0  0
  6  8  1  0  0  0
  8  9  1  0  0  0
  8 15  1  0  0  0
 15 16  2  0  0  0
 16 17  1  0  0  0
 17 18  2  0  0  0
 18 19  1  0  0  0
 19 20  2  0  0  0
 18 21  1  0  0  0
 21 22  2  0  0  0
 22 23  1  0  0  0
 23 24  2  0  0  0
 24 25  1  0  0  0
 25 26  1  0  0  0
 25 27  2  0  0  0
  5 10  1  0  0  0
 10 11  1  0  0  0
 10 12  1  0  0  0
 10 13  1  0  0  0
 13 14  2  0  0  0
 13  2  1  0  0  0
 20 15  1  0  0  0
 27 21  1  0  0  0
M  END
> <minimizedAffinity>
-7.49901

> <CNNscore>
0.3664941490

> <CNNaffinity>
6.0855250359

> <CNN_VS>
2.2303092480

> <CNNaffinity_variance>
0.1500177085

$$$$
[H]c1nc([H])c(-c2c([H])c([H])c(N(C(=O)N3C(=O)N(C([H])([H])[H])C(=O)C3(C([H])([H])[H])C([H])([H])[H])C([H])([H])[H])c([H])c2[H])c([H])c1Cl


 27 29  0  0  0  0  0  0  0  0999 V2000
    3.5043   -4.4554    6.5076 C   0  0  0  0  0  0  0  0  0  0  0  0
    2.6360   -3.6484    7.3285 N   0  0  0  0  0  0  0  0  0  0  0  0
    2.9777   -2.5757    8.2461 C   0  0  0  0  0  0  0  0  0  0  0  0
    4.1560   -2.2154    8.4439 O   0  0  0  0  0  0  0  0  0  0  0  0
    1.7898   -2.0751    8.8217 N   0  0  0  0  0  0  0  0  0  0  0  0
    1.4513   -0.8063    9.3232 C   0  0  0  0  0  0  0  0  0  0  0  0
    0.2727   -0.7323    9.9351 O   0  0  0  0  0  0  0  0  0  0  0  0
    2.1062    0.4150    9.3098 N   0  0  0  0  0  0  0  0  0  0  0  0
    3.2905    0.7076    8.5591 C   0  0  0  0  0  0  0  0  0  0  0  0
    0.9278   -3.2841    8.8338 C   0  0  0  0  0  0  0  0  0  0  0  0
   -0.5013   -3.0154    9.0643 C   0  0  0  0  0  0  0  0  0  0  0  0
    1.5122   -4.2847    9.7884 C   0  0  0  0  0  0  0  0  0  0  0  0
    1.2079   -3.7305    7.4191 C   0  0  0  0  0  0  0  0  0  0  0  0
    0.4025   -4.0843    6.5419 O   0  0  0  0  0  0  0  0  0  0  0  0
    1.5501    1.5312   10.0683 C   0  0  0  0  0  0  0  0  0  0  0  0
    1.8830    1.6560   11.3966 C   0  0  0  0  0  0  0  0  0  0  0  0
    1.3668    2.7111   12.1441 C   0  0  0  0  0  0  0  0  0  0  0  0
    0.5176    3.6463   11.5734 C   0  0  0  0  0  0  0  0  0  0  0  0
    0.1955    3.5071   10.2470 C   0  0  0  0  0  0  0  0  0  0  0  0
    0.7167    2.4473    9.5044 C   0  0  0  0  0  0  0  0  0  0  0  0
    0.0058    4.7343   12.4060 C   0  0  0  0  0  0  0  0  0  0  0  0
    0.7832    5.4067   13.3143 C   0  0  0  0  0  0  0  0  0  0  0  0
    0.2605    6.4023   14.0554 N   0  0  0  0  0  0  0  0  0  0  0  0
   -1.0336    6.7885   13.9494 C   0  0  0  0  0  0  0  0  0  0  0  0
   -1.8306    6.1244   13.0421 C   0  0  0  0  0  0  0  0  0  0  0  0
   -3.5263    6.5876   12.8621 Cl  0  0  0  0  0  0  0  0  0  0  0  0
   -1.3215    5.1016   12.2708 C   0  0  0  0  0  0  0  0  0  0  0  0
  1  2  1  0  0  0
  2  3  1  0  0  0
  3  4  2  0  0  0
  3  5  1  0  0  0
  5  6  1  0  0  0
  6  7  2  0  0  0
  6  8  1  0  0  0
  8  9  1  0  0  0
  8 15  1  0  0  0
 15 16  2  0  0  0
 16 17  1  0  0  0
 17 18  2  0  0  0
 18 19  1  0  0  0
 19 20  2  0  0  0
 18 21  1  0  0  0
 21 22  2  0  0  0
 22 23  1  0  0  0
 23 24  2  0  0  0
 24 25  1  0  0  0
 25 26  1  0  0  0
 25 27  2  0  0  0
  5 10  1  0  0  0
 10 11  1  0  0  0
 10 12  1  0  0  0
 10 13  1  0  0  0
 13 14  2  0  0  0
 13  2  1  0  0  0
 20 15  1  0  0  0
 27 21  1  0  0  0
M  END
> <minimizedAffinity>
-5.29386

> <CNNscore>
0.3401665092

> <CNNaffinity>
4.9674243927

> <CNN_VS>
1.6897513866

> <CNNaffinity_variance>
0.1886419952

$$$$
[H]c1nc([H])c(-c2c([H])c([H])c(N(C(=O)N3C(=O)N(C([H])([H])[H])C(=O)C3(C([H])([H])[H])C([H])([H])[H])C([H])([H])[H])c([H])c2[H])c([H])c1Cl


 27 29  0  0  0  0  0  0  0  0999 V2000
    1.9026   -5.0932    7.4330 C   0  0  0  0  0  0  0  0  0  0  0  0
    1.6027   -3.7187    7.7487 N   0  0  0  0  0  0  0  0  0  0  0  0
    2.0843   -2.9048    8.8510 C   0  0  0  0  0  0  0  0  0  0  0  0
    2.8656   -3.3480    9.7174 O   0  0  0  0  0  0  0  0  0  0  0  0
    1.5206   -1.6150    8.7432 N   0  0  0  0  0  0  0  0  0  0  0  0
    1.9781   -0.3523    9.1583 C   0  0  0  0  0  0  0  0  0  0  0  0
    1.1055    0.6421    9.0213 O   0  0  0  0  0  0  0  0  0  0  0  0
    3.1808    0.0828    9.6919 N   0  0  0  0  0  0  0  0  0  0  0  0
    4.3780   -0.6992    9.7731 C   0  0  0  0  0  0  0  0  0  0  0  0
    0.2167   -1.9089    8.0961 C   0  0  0  0  0  0  0  0  0  0  0  0
   -0.4690   -0.7320    7.5373 C   0  0  0  0  0  0  0  0  0  0  0  0
   -0.6295   -2.6994    9.0516 C   0  0  0  0  0  0  0  0  0  0  0  0
    0.7418   -2.8318    7.0230 C   0  0  0  0  0  0  0  0  0  0  0  0
    0.4928   -2.8294    5.8058 O   0  0  0  0  0  0  0  0  0  0  0  0
    3.2919    1.4557   10.1749 C   0  0  0  0  0  0  0  0  0  0  0  0
    2.7743    1.7630   11.4113 C   0  0  0  0  0  0  0  0  0  0  0  0
    2.8662    3.0647   11.8967 C   0  0  0  0  0  0  0  0  0  0  0  0
    3.4735    4.0657   11.1546 C   0  0  0  0  0  0  0  0  0  0  0  0
    3.9847    3.7421    9.9233 C   0  0  0  0  0  0  0  0  0  0  0  0
    3.8889    2.4357    9.4434 C   0  0  0  0  0  0  0  0  0  0  0  0
    3.5423    5.4151   11.7146 C   0  0  0  0  0  0  0  0  0  0  0  0
    2.4998    5.9950   12.3916 C   0  0  0  0  0  0  0  0  0  0  0  0
    2.6174    7.2415   12.8878 N   0  0  0  0  0  0  0  0  0  0  0  0
    3.7461    7.9779   12.7502 C   0  0  0  0  0  0  0  0  0  0  0  0
    4.8044    7.4121   12.0727 C   0  0  0  0  0  0  0  0  0  0  0  0
    6.3013    8.3278   11.8644 Cl  0  0  0  0  0  0  0  0  0  0  0  0
    4.7112    6.1381   11.5543 C   0  0  0  0  0  0  0  0  0  0  0  0
  1  2  1  0  0  0
  2  3  1  0  0  0
  3  4  2  0  0  0
  3  5  1  0  0  0
  5  6  1  0  0  0
  6  7  2  0  0  0
  6  8  1  0  0  0
  8  9  1  0  0  0
  8 15  1  0  0  0
 15 16  2  0  0  0
 16 17  1  0  0  0
 17 18  2  0  0  0
 18 19  1  0  0  0
 19 20  2  0  0  0
 18 21  1  0  0  0
 21 22  2  0  0  0
 22 23  1  0  0  0
 23 24  2  0  0  0
 24 25  1  0  0  0
 25 26  1  0  0  0
 25 27  2  0  0  0
  5 10  1  0  0  0
 10 11  1  0  0  0
 10 12  1  0  0  0
 10 13  1  0  0  0
 13 14  2  0  0  0
 13  2  1  0  0  0
 20 15  1  0  0  0
 27 21  1  0  0  0
M  END
> <minimizedAffinity>
-4.53809

> <CNNscore>
0.3251563609

> <CNNaffinity>
4.8394918442

> <CNN_VS>
1.5735915899

> <CNNaffinity_variance>
0.2759179175

$$$$
[H]c1nc([H])c(-c2c([H])c([H])c(N(C(=O)N3C(=O)N(C([H])([H])[H])C(=O)C3(C([H])([H])[H])C([H])([H])[H])C([H])([H])[H])c([H])c2[H])c([H])c1Cl


 27 29  0  0  0  0  0  0  0  0999 V2000
    7.9920    8.7191   18.6235 C   0  0  0  0  0  0  0  0  0  0  0  0
    6.7537    8.2076   18.0908 N   0  0  0  0  0  0  0  0  0  0  0  0
    5.9475    8.7160   16.9949 C   0  0  0  0  0  0  0  0  0  0  0  0
    6.2624    9.7378   16.3514 O   0  0  0  0  0  0  0  0  0  0  0  0
    4.8225    7.8786   16.8324 N   0  0  0  0  0  0  0  0  0  0  0  0
    4.0385    7.5665   15.7082 C   0  0  0  0  0  0  0  0  0  0  0  0
    2.9498    6.8440   15.9568 O   0  0  0  0  0  0  0  0  0  0  0  0
    4.1691    7.8607   14.3602 N   0  0  0  0  0  0  0  0  0  0  0  0
    5.3272    8.4440   13.7518 C   0  0  0  0  0  0  0  0  0  0  0  0
    4.5960    7.4050   18.2215 C   0  0  0  0  0  0  0  0  0  0  0  0
    3.6969    6.2447   18.3342 C   0  0  0  0  0  0  0  0  0  0  0  0
    4.1785    8.5726   19.0679 C   0  0  0  0  0  0  0  0  0  0  0  0
    6.0298    7.0542   18.5380 C   0  0  0  0  0  0  0  0  0  0  0  0
    6.4800    6.0202   19.0592 O   0  0  0  0  0  0  0  0  0  0  0  0
    3.0828    7.5196   13.4470 C   0  0  0  0  0  0  0  0  0  0  0  0
    3.0731    6.2704   12.8722 C   0  0  0  0  0  0  0  0  0  0  0  0
    2.0490    5.9184   11.9971 C   0  0  0  0  0  0  0  0  0  0  0  0
    1.0305    6.8072   11.6904 C   0  0  0  0  0  0  0  0  0  0  0  0
    1.0553    8.0494   12.2724 C   0  0  0  0  0  0  0  0  0  0  0  0
    2.0846    8.3950   13.1483 C   0  0  0  0  0  0  0  0  0  0  0  0
   -0.0199    6.3835   10.7651 C   0  0  0  0  0  0  0  0  0  0  0  0
    0.0683    6.5573    9.4074 C   0  0  0  0  0  0  0  0  0  0  0  0
   -0.9289    6.1472    8.6005 N   0  0  0  0  0  0  0  0  0  0  0  0
   -2.0512    5.5529    9.0721 C   0  0  0  0  0  0  0  0  0  0  0  0
   -2.1581    5.3697   10.4339 C   0  0  0  0  0  0  0  0  0  0  0  0
   -3.6003    4.5990   11.1035 Cl  0  0  0  0  0  0  0  0  0  0  0  0
   -1.1525    5.7801   11.2828 C   0  0  0  0  0  0  0  0  0  0  0  0
  1  2  1  0  0  0
  2  3  1  0  0  0
  3  4  2  0  0  0
  3  5  1  0  0  0
  5  6  1  0  0  0
  6  7  2  0  0  0
  6  8  1  0  0  0
  8  9  1  0  0  0
  8 15  1  0  0  0
 15 16  2  0  0  0
 16 17  1  0  0  0
 17 18  2  0  0  0
 18 19  1  0  0  0
 19 20  2  0  0  0
 18 21  1  0  0  0
 21 22  2  0  0  0
 22 23  1  0  0  0
 23 24  2  0  0  0
 24 25  1  0  0  0
 25 26  1  0  0  0
 25 27  2  0  0  0
  5 10  1  0  0  0
 10 11  1  0  0  0
 10 12  1  0  0  0
 10 13  1  0  0  0
 13 14  2  0  0  0
 13  2  1  0  0  0
 20 15  1  0  0  0
 27 21  1  0  0  0
M  END
> <minimizedAffinity>
-6.09479

> <CNNscore>
0.2777640522

> <CNNaffinity>
5.1051306725

> <CNN_VS>
1.4180217981

> <CNNaffinity_variance>
0.3312304616

$$$$
[H]c1nc([H])c(-c2c([H])c([H])c(N(C(=O)N3C(=O)N(C([H])([H])[H])C(=O)C3(C([H])([H])[H])C([H])([H])[H])C([H])([H])[H])c([H])c2[H])c([H])c1Cl


 27 29  0  0  0  0  0  0  0  0999 V2000
    2.3346   -4.5222    7.0975 C   0  0  0  0  0  0  0  0  0  0  0  0
    1.7682   -3.3450    7.7077 N   0  0  0  0  0  0  0  0  0  0  0  0
    2.2873   -2.5370    8.7973 C   0  0  0  0  0  0  0  0  0  0  0  0
    3.3619   -2.8029    9.3735 O   0  0  0  0  0  0  0  0  0  0  0  0
    1.3867   -1.4788    9.0466 N   0  0  0  0  0  0  0  0  0  0  0  0
    1.5775   -0.1847    9.5614 C   0  0  0  0  0  0  0  0  0  0  0  0
    0.4639    0.5021    9.8010 O   0  0  0  0  0  0  0  0  0  0  0  0
    2.7138    0.5433    9.8767 N   0  0  0  0  0  0  0  0  0  0  0  0
    4.0548    0.1629    9.5472 C   0  0  0  0  0  0  0  0  0  0  0  0
    0.0882   -2.0928    8.6701 C   0  0  0  0  0  0  0  0  0  0  0  0
   -1.0152   -1.1339    8.4951 C   0  0  0  0  0  0  0  0  0  0  0  0
   -0.2235   -3.1963    9.6391 C   0  0  0  0  0  0  0  0  0  0  0  0
    0.5371   -2.6977    7.3618 C   0  0  0  0  0  0  0  0  0  0  0  0
   -0.0195   -2.6504    6.2521 O   0  0  0  0  0  0  0  0  0  0  0  0
    2.5727    1.8285   10.5541 C   0  0  0  0  0  0  0  0  0  0  0  0
    2.5110    2.9716    9.7921 C   0  0  0  0  0  0  0  0  0  0  0  0
    2.3767    4.2109   10.4120 C   0  0  0  0  0  0  0  0  0  0  0  0
    2.3030    4.3184   11.7920 C   0  0  0  0  0  0  0  0  0  0  0  0
    2.3660    3.1683   12.5373 C   0  0  0  0  0  0  0  0  0  0  0  0
    2.5007    1.9299   11.9092 C   0  0  0  0  0  0  0  0  0  0  0  0
    2.1615    5.6460   12.3891 C   0  0  0  0  0  0  0  0  0  0  0  0
    1.2933    6.5917   11.9061 C   0  0  0  0  0  0  0  0  0  0  0  0
    1.2024    7.7993   12.4952 N   0  0  0  0  0  0  0  0  0  0  0  0
    1.9462    8.1423   13.5743 C   0  0  0  0  0  0  0  0  0  0  0  0
    2.8246    7.2052   14.0739 C   0  0  0  0  0  0  0  0  0  0  0  0
    3.8190    7.5990   15.4805 Cl  0  0  0  0  0  0  0  0  0  0  0  0
    2.9379    5.9615   13.4902 C   0  0  0  0  0  0  0  0  0  0  0  0
  1  2  1  0  0  0
  2  3  1  0  0  0
  3  4  2  0  0  0
  3  5  1  0  0  0
  5  6  1  0  0  0
  6  7  2  0  0  0
  6  8  1  0  0  0
  8  9  1  0  0  0
  8 15  1  0  0  0
 15 16  2  0  0  0
 16 17  1  0  0  0
 17 18  2  0  0  0
 18 19  1  0  0  0
 19 20  2  0  0  0
 18 21  1  0  0  0
 21 22  2  0  0  0
 22 23  1  0  0  0
 23 24  2  0  0  0
 24 25  1  0  0  0
 25 26  1  0  0  0
 25 27  2  0  0  0
  5 10  1  0  0  0
 10 11  1  0  0  0
 10 12  1  0  0  0
 10 13  1  0  0  0
 13 14  2  0  0  0
 13  2  1  0  0  0
 20 15  1  0  0  0
 27 21  1  0  0  0
M  END
> <minimizedAffinity>
-4.78052

> <CNNscore>
0.2702743709

> <CNNaffinity>
5.0014982224

> <CNN_VS>
1.3517768383

> <CNNaffinity_variance>
0.2583396733

$$$$
[H]c1nc([H])c(-c2c([H])c([H])c(N(C(=O)N3C(=O)N(C([H])([H])[H])C(=O)C3(C([H])([H])[H])C([H])([H])[H])C([H])([H])[H])c([H])c2[H])c([H])c1Cl


 27 29  0  0  0  0  0  0  0  0999 V2000
    3.0483    0.1958   22.6711 C   0  0  0  0  0  0  0  0  0  0  0  0
    3.5180    1.0337   21.5959 N   0  0  0  0  0  0  0  0  0  0  0  0
    3.6102    0.7389   20.1767 C   0  0  0  0  0  0  0  0  0  0  0  0
    3.2731   -0.3640   19.6999 O   0  0  0  0  0  0  0  0  0  0  0  0
    4.1254    1.8718   19.5103 N   0  0  0  0  0  0  0  0  0  0  0  0
    3.9555    2.3479   18.1985 C   0  0  0  0  0  0  0  0  0  0  0  0
    4.7213    3.3831   17.8655 O   0  0  0  0  0  0  0  0  0  0  0  0
    3.1333    1.9540   17.1548 N   0  0  0  0  0  0  0  0  0  0  0  0
    2.0614    1.0098   17.2605 C   0  0  0  0  0  0  0  0  0  0  0  0
    4.9945    2.4678   20.5564 C   0  0  0  0  0  0  0  0  0  0  0  0
    5.4146    3.8531   20.2879 C   0  0  0  0  0  0  0  0  0  0  0  0
    6.1394    1.5341   20.8230 C   0  0  0  0  0  0  0  0  0  0  0  0
    4.0084    2.3768   21.6960 C   0  0  0  0  0  0  0  0  0  0  0  0
    3.6938    3.2489   22.5230 O   0  0  0  0  0  0  0  0  0  0  0  0
    3.3086    2.5623   15.8397 C   0  0  0  0  0  0  0  0  0  0  0  0
    3.0177    1.8137   14.7235 C   0  0  0  0  0  0  0  0  0  0  0  0
    3.1761    2.3688   13.4565 C   0  0  0  0  0  0  0  0  0  0  0  0
    3.6242    3.6705   13.2946 C   0  0  0  0  0  0  0  0  0  0  0  0
    3.9100    4.4035   14.4186 C   0  0  0  0  0  0  0  0  0  0  0  0
    3.7489    3.8406   15.6849 C   0  0  0  0  0  0  0  0  0  0  0  0
    3.7713    4.2020   11.9400 C   0  0  0  0  0  0  0  0  0  0  0  0
    3.5308    3.4538   10.8158 C   0  0  0  0  0  0  0  0  0  0  0  0
    3.6811    3.9940    9.5913 N   0  0  0  0  0  0  0  0  0  0  0  0
    4.0697    5.2781    9.4033 C   0  0  0  0  0  0  0  0  0  0  0  0
    4.3162    6.0456   10.5211 C   0  0  0  0  0  0  0  0  0  0  0  0
    4.8251    7.7274   10.3341 Cl  0  0  0  0  0  0  0  0  0  0  0  0
    4.1704    5.5179   11.7863 C   0  0  0  0  0  0  0  0  0  0  0  0
  1  2  1  0  0  0
  2  3  1  0  0  0
  3  4  2  0  0  0
  3  5  1  0  0  0
  5  6  1  0  0  0
  6  7  2  0  0  0
  6  8  1  0  0  0
  8  9  1  0  0  0
  8 15  1  0  0  0
 15 16  2  0  0  0
 16 17  1  0  0  0
 17 18  2  0  0  0
 18 19  1  0  0  0
 19 20  2  0  0  0
 18 21  1  0  0  0
 21 22  2  0  0  0
 22 23  1  0  0  0
 23 24  2  0  0  0
 24 25  1  0  0  0
 25 26  1  0  0  0
 25 27  2  0  0  0
  5 10  1  0  0  0
 10 11  1  0  0  0
 10 12  1  0  0  0
 10 13  1  0  0  0
 13 14  2  0  0  0
 13  2  1  0  0  0
 20 15  1  0  0  0
 27 21  1  0  0  0
M  END
> <minimizedAffinity>
-7.06568

> <CNNscore>
0.2671713233

> <CNNaffinity>
6.0172376633

> <CNN_VS>
1.6076333523

> <CNNaffinity_variance>
0.1937682927

$$$$
[H]c1nc([H])c(-c2c([H])c([H])c(N(C(=O)N3C(=O)N(C([H])([H])[H])C(=O)C3(C([H])([H])[H])C([H])([H])[H])C([H])([H])[H])c([H])c2[H])c([H])c1Cl


 27 29  0  0  0  0  0  0  0  0999 V2000
    6.6401    2.7034   22.8478 C   0  0  0  0  0  0  0  0  0  0  0  0
    5.8413    2.4414   21.6764 N   0  0  0  0  0  0  0  0  0  0  0  0
    5.0884    3.3714   20.8531 C   0  0  0  0  0  0  0  0  0  0  0  0
    5.0424    4.5943   21.0975 O   0  0  0  0  0  0  0  0  0  0  0  0
    4.4676    2.6529   19.8084 N   0  0  0  0  0  0  0  0  0  0  0  0
    4.0865    3.0272   18.5081 C   0  0  0  0  0  0  0  0  0  0  0  0
    3.3816    2.1196   17.8385 O   0  0  0  0  0  0  0  0  0  0  0  0
    4.3004    4.1736   17.7594 N   0  0  0  0  0  0  0  0  0  0  0  0
    5.1853    5.2407   18.1196 C   0  0  0  0  0  0  0  0  0  0  0  0
    4.2374    1.3318   20.4463 C   0  0  0  0  0  0  0  0  0  0  0  0
    3.9092    0.2467   19.5069 C   0  0  0  0  0  0  0  0  0  0  0  0
    3.2318    1.4963   21.5487 C   0  0  0  0  0  0  0  0  0  0  0  0
    5.6111    1.1721   21.0518 C   0  0  0  0  0  0  0  0  0  0  0  0
    6.3641    0.1844   21.0206 O   0  0  0  0  0  0  0  0  0  0  0  0
    3.6276    4.3212   16.4726 C   0  0  0  0  0  0  0  0  0  0  0  0
    2.5255    5.1401   16.3954 C   0  0  0  0  0  0  0  0  0  0  0  0
    1.8643    5.2990   15.1805 C   0  0  0  0  0  0  0  0  0  0  0  0
    2.2965    4.6445   14.0377 C   0  0  0  0  0  0  0  0  0  0  0  0
    3.3975    3.8313   14.1320 C   0  0  0  0  0  0  0  0  0  0  0  0
    4.0549    3.6768   15.3527 C   0  0  0  0  0  0  0  0  0  0  0  0
    1.5638    4.8491   12.7885 C   0  0  0  0  0  0  0  0  0  0  0  0
    2.1850    4.9712   11.5717 C   0  0  0  0  0  0  0  0  0  0  0  0
    1.4611    5.1577   10.4514 N   0  0  0  0  0  0  0  0  0  0  0  0
    0.1086    5.2338   10.4612 C   0  0  0  0  0  0  0  0  0  0  0  0
   -0.5335    5.1135   11.6747 C   0  0  0  0  0  0  0  0  0  0  0  0
   -2.2968    5.2044   11.7456 Cl  0  0  0  0  0  0  0  0  0  0  0  0
    0.1829    4.9222   12.8369 C   0  0  0  0  0  0  0  0  0  0  0  0
  1  2  1  0  0  0
  2  3  1  0  0  0
  3  4  2  0  0  0
  3  5  1  0  0  0
  5  6  1  0  0  0
  6  7  2  0  0  0
  6  8  1  0  0  0
  8  9  1  0  0  0
  8 15  1  0  0  0
 15 16  2  0  0  0
 16 17  1  0  0  0
 17 18  2  0  0  0
 18 19  1  0  0  0
 19 20  2  0  0  0
 18 21  1  0  0  0
 21 22  2  0  0  0
 22 23  1  0  0  0
 23 24  2  0  0  0
 24 25  1  0  0  0
 25 26  1  0  0  0
 25 27  2  0  0  0
  5 10  1  0  0  0
 10 11  1  0  0  0
 10 12  1  0  0  0
 10 13  1  0  0  0
 13 14  2  0  0  0
 13  2  1  0  0  0
 20 15  1  0  0  0
 27 21  1  0  0  0
M  END
> <minimizedAffinity>
-6.87867

> <CNNscore>
0.2594597042

> <CNNaffinity>
5.9586019516

> <CNN_VS>
1.5460170507

> <CNNaffinity_variance>
0.1104813591

$$$$
[H]N=C(N([H])[H])N([H])c1c([H])c([H])c(OC2(C(=O)N([H])C3([H])C([H])([H])C([H])([H])C([H])([H])C([H])([H])C3([H])[H])C([H])([H])C2([H])[H])c([H])c1[H]


 28 30  0  0  0  0  0  0  0  0999 V2000
    4.9058    6.4760   18.1251 C   0  0  0  0  0  0  0  0  0  0  0  0
    6.0203    5.7369   17.7924 C   0  0  0  0  0  0  0  0  0  0  0  0
    5.9093    4.3966   17.4052 C   0  0  0  0  0  0  0  0  0  0  0  0
    4.6968    3.7650   17.3411 C   0  0  0  0  0  0  0  0  0  0  0  0
    3.5788    4.5144   17.6765 C   0  0  0  0  0  0  0  0  0  0  0  0
    3.6615    5.8360   18.0609 C   0  0  0  0  0  0  0  0  0  0  0  0
    4.9760    7.8186   18.5202 N   0  0  0  0  0  0  0  0  0  0  0  0
    5.6776    8.4695   18.0729 H   0  0  0  0  0  0  0  0  0  0  0  0
    2.9953    9.1475   19.1953 N   0  0  0  0  0  0  0  0  0  0  0  0
    4.1487    8.3799   19.5058 C   0  0  0  0  0  0  0  0  0  0  0  0
    4.4422    8.1884   20.7508 N   0  0  0  0  0  0  0  0  0  0  0  0
    2.0432    8.7869   19.4642 H   0  0  0  0  0  0  0  0  0  0  0  0
    3.1103   10.0522   18.7066 H   0  0  0  0  0  0  0  0  0  0  0  0
    5.2824    7.6293   21.0429 H   0  0  0  0  0  0  0  0  0  0  0  0
    4.5235    2.4530   16.9709 O   0  0  0  0  0  0  0  0  0  0  0  0
    3.6359    1.5368   17.5228 C   0  0  0  0  0  0  0  0  0  0  0  0
    2.3004    1.2840   16.8598 C   0  0  0  0  0  0  0  0  0  0  0  0
    3.3673    0.3157   16.6133 C   0  0  0  0  0  0  0  0  0  0  0  0
    3.8347    1.1880   18.9409 C   0  0  0  0  0  0  0  0  0  0  0  0
    3.1254    0.2407   19.4152 O   0  0  0  0  0  0  0  0  0  0  0  0
    4.7435    1.8228   19.8026 N   0  0  0  0  0  0  0  0  0  0  0  0
    5.3422    2.6111   19.4315 H   0  0  0  0  0  0  0  0  0  0  0  0
    4.8846    1.4265   21.1904 C   0  0  0  0  0  0  0  0  0  0  0  0
    3.6441    1.8533   21.9350 C   0  0  0  0  0  0  0  0  0  0  0  0
    4.0029    3.0605   22.7716 C   0  0  0  0  0  0  0  0  0  0  0  0
    4.8987    2.5415   23.8839 C   0  0  0  0  0  0  0  0  0  0  0  0
    6.1452    2.0064   23.2943 C   0  0  0  0  0  0  0  0  0  0  0  0
    6.1516    1.8950   21.8024 C   0  0  0  0  0  0  0  0  0  0  0  0
  9 10  1  0  0  0
 10 11  2  0  0  0
 10  7  1  0  0  0
  7  1  1  0  0  0
  1  2  2  0  0  0
  2  3  1  0  0  0
  3  4  2  0  0  0
  4 15  1  0  0  0
 15 16  1  0  0  0
 16 17  1  0  0  0
 17 18  1  0  0  0
 16 19  1  0  0  0
 19 20  2  0  0  0
 19 21  1  0  0  0
 21 23  1  0  0  0
 23 24  1  0  0  0
 24 25  1  0  0  0
 25 26  1  0  0  0
 26 27  1  0  0  0
 27 28  1  0  0  0
  4  5  1  0  0  0
  5  6  2  0  0  0
  6  1  1  0  0  0
 18 16  1  0  0  0
 28 23  1  0  0  0
  9 12  1  0  0  0
  9 13  1  0  0  0
 11 14  1  0  0  0
  7  8  1  0  0  0
 21 22  1  0  0  0
M  END
> <minimizedAffinity>
-7.88901

> <CNNscore>
0.5244642496

> <CNNaffinity>
5.6554231644

> <CNN_VS>
2.9660673141

> <CNNaffinity_variance>
0.1033784896

$$$$
[H]N=C(N([H])[H])N([H])c1c([H])c([H])c(OC2(C(=O)N([H])C3([H])C([H])([H])C([H])([H])C([H])([H])C([H])([H])C3([H])[H])C([H])([H])C2([H])[H])c([H])c1[H]


 28 30  0  0  0  0  0  0  0  0999 V2000
    3.3902    6.1588   18.8111 C   0  0  0  0  0  0  0  0  0  0  0  0
    2.9031    5.3383   17.8169 C   0  0  0  0  0  0  0  0  0  0  0  0
    3.2174    5.5672   16.4725 C   0  0  0  0  0  0  0  0  0  0  0  0
    4.0167    6.6098   16.0886 C   0  0  0  0  0  0  0  0  0  0  0  0
    4.5044    7.4317   17.0940 C   0  0  0  0  0  0  0  0  0  0  0  0
    4.2096    7.2275   18.4254 C   0  0  0  0  0  0  0  0  0  0  0  0
    3.0960    5.9644   20.1674 N   0  0  0  0  0  0  0  0  0  0  0  0
    2.1246    6.1577   20.5346 H   0  0  0  0  0  0  0  0  0  0  0  0
    4.9243    4.4361   20.8503 N   0  0  0  0  0  0  0  0  0  0  0  0
    4.0370    5.5144   21.1070 C   0  0  0  0  0  0  0  0  0  0  0  0
    4.1062    6.1069   22.2546 N   0  0  0  0  0  0  0  0  0  0  0  0
    5.9608    4.6158   20.8034 H   0  0  0  0  0  0  0  0  0  0  0  0
    4.5354    3.4873   20.7119 H   0  0  0  0  0  0  0  0  0  0  0  0
    3.4765    6.9105   22.5027 H   0  0  0  0  0  0  0  0  0  0  0  0
    4.3588    6.8873   14.7870 O   0  0  0  0  0  0  0  0  0  0  0  0
    4.0220    8.0200   14.0552 C   0  0  0  0  0  0  0  0  0  0  0  0
    4.8541    9.2765   14.1808 C   0  0  0  0  0  0  0  0  0  0  0  0
    5.0951    8.4242   13.0181 C   0  0  0  0  0  0  0  0  0  0  0  0
    2.6426    8.0954   13.5418 C   0  0  0  0  0  0  0  0  0  0  0  0
    2.0076    9.1850   13.7291 O   0  0  0  0  0  0  0  0  0  0  0  0
    1.9809    7.0574   12.8663 N   0  0  0  0  0  0  0  0  0  0  0  0
    2.4877    6.1447   12.6996 H   0  0  0  0  0  0  0  0  0  0  0  0
    0.6191    7.2025   12.3896 C   0  0  0  0  0  0  0  0  0  0  0  0
   -0.3088    6.5867   13.4069 C   0  0  0  0  0  0  0  0  0  0  0  0
   -0.7923    5.2674   12.8487 C   0  0  0  0  0  0  0  0  0  0  0  0
   -1.7329    5.6205   11.7086 C   0  0  0  0  0  0  0  0  0  0  0  0
   -0.9715    6.3149   10.6477 C   0  0  0  0  0  0  0  0  0  0  0  0
    0.4298    6.6947   11.0091 C   0  0  0  0  0  0  0  0  0  0  0  0
  9 10  1  0  0  0
 10 11  2  0  0  0
 10  7  1  0  0  0
  7  1  1  0  0  0
  1  2  2  0  0  0
  2  3  1  0  0  0
  3  4  2  0  0  0
  4 15  1  0  0  0
 15 16  1  0  0  0
 16 17  1  0  0  0
 17 18  1  0  0  0
 16 19  1  0  0  0
 19 20  2  0  0  0
 19 21  1  0  0  0
 21 23  1  0  0  0
 23 24  1  0  0  0
 24 25  1  0  0  0
 25 26  1  0  0  0
 26 27  1  0  0  0
 27 28  1  0  0  0
  4  5  1  0  0  0
  5  6  2  0  0  0
  6  1  1  0  0  0
 18 16  1  0  0  0
 28 23  1  0  0  0
  9 12  1  0  0  0
  9 13  1  0  0  0
 11 14  1  0  0  0
  7  8  1  0  0  0
 21 22  1  0  0  0
M  END
> <minimizedAffinity>
-6.22988

> <CNNscore>
0.4211686552

> <CNNaffinity>
4.7866163254

> <CNN_VS>
2.0159728527

> <CNNaffinity_variance>
0.2292520553

$$$$
[H]N=C(N([H])[H])N([H])c1c([H])c([H])c(OC2(C(=O)N([H])C3([H])C([H])([H])C([H])([H])C([H])([H])C([H])([H])C3([H])[H])C([H])([H])C2([H])[H])c([H])c1[H]


 28 30  0  0  0  0  0  0  0  0999 V2000
    3.4124    6.1112   18.8677 C   0  0  0  0  0  0  0  0  0  0  0  0
    3.0617    5.2783   17.8274 C   0  0  0  0  0  0  0  0  0  0  0  0
    3.3306    5.6285   16.4994 C   0  0  0  0  0  0  0  0  0  0  0  0
    3.9491    6.8062   16.1776 C   0  0  0  0  0  0  0  0  0  0  0  0
    4.3002    7.6399   17.2292 C   0  0  0  0  0  0  0  0  0  0  0  0
    4.0465    7.3181   18.5457 C   0  0  0  0  0  0  0  0  0  0  0  0
    3.1577    5.7978   20.2096 N   0  0  0  0  0  0  0  0  0  0  0  0
    2.1650    5.6725   20.5481 H   0  0  0  0  0  0  0  0  0  0  0  0
    5.1424    4.6039   21.0931 N   0  0  0  0  0  0  0  0  0  0  0  0
    4.1672    5.6329   21.1712 C   0  0  0  0  0  0  0  0  0  0  0  0
    4.2186    6.4532   22.1698 N   0  0  0  0  0  0  0  0  0  0  0  0
    6.1555    4.8572   20.9574 H   0  0  0  0  0  0  0  0  0  0  0  0
    4.8396    3.6175   21.1701 H   0  0  0  0  0  0  0  0  0  0  0  0
    3.5251    7.2345   22.2819 H   0  0  0  0  0  0  0  0  0  0  0  0
    4.2378    7.2064   14.8951 O   0  0  0  0  0  0  0  0  0  0  0  0
    3.3774    7.2061   13.8034 C   0  0  0  0  0  0  0  0  0  0  0  0
    2.0705    7.9640   13.8705 C   0  0  0  0  0  0  0  0  0  0  0  0
    3.1837    8.6041   13.1723 C   0  0  0  0  0  0  0  0  0  0  0  0
    3.5567    6.1283   12.8143 C   0  0  0  0  0  0  0  0  0  0  0  0
    2.7184    5.1680   12.8374 O   0  0  0  0  0  0  0  0  0  0  0  0
    4.5808    6.0833   11.8548 N   0  0  0  0  0  0  0  0  0  0  0  0
    5.2876    6.8686   11.8170 H   0  0  0  0  0  0  0  0  0  0  0  0
    4.6965    4.9876   10.9120 C   0  0  0  0  0  0  0  0  0  0  0  0
    6.1424    4.5621   10.8528 C   0  0  0  0  0  0  0  0  0  0  0  0
    6.7190    5.0732    9.5519 C   0  0  0  0  0  0  0  0  0  0  0  0
    6.0786    4.2350    8.4580 C   0  0  0  0  0  0  0  0  0  0  0  0
    4.6213    4.4869    8.4430 C   0  0  0  0  0  0  0  0  0  0  0  0
    4.0989    5.2937    9.5896 C   0  0  0  0  0  0  0  0  0  0  0  0
  9 10  1  0  0  0
 10 11  2  0  0  0
 10  7  1  0  0  0
  7  1  1  0  0  0
  1  2  2  0  0  0
  2  3  1  0  0  0
  3  4  2  0  0  0
  4 15  1  0  0  0
 15 16  1  0  0  0
 16 17  1  0  0  0
 17 18  1  0  0  0
 16 19  1  0  0  0
 19 20  2  0  0  0
 19 21  1  0  0  0
 21 23  1  0  0  0
 23 24  1  0  0  0
 24 25  1  0  0  0
 25 26  1  0  0  0
 26 27  1  0  0  0
 27 28  1  0  0  0
  4  5  1  0  0  0
  5  6  2  0  0  0
  6  1  1  0  0  0
 18 16  1  0  0  0
 28 23  1  0  0  0
  9 12  1  0  0  0
  9 13  1  0  0  0
 11 14  1  0  0  0
  7  8  1  0  0  0
 21 22  1  0  0  0
M  END
> <minimizedAffinity>
-5.66569

> <CNNscore>
0.4101104438

> <CNNaffinity>
4.8193540573

> <CNN_VS>
1.9764674902

> <CNNaffinity_variance>
0.9861303568

$$$$
[H]N=C(N([H])[H])N([H])c1c([H])c([H])c(OC2(C(=O)N([H])C3([H])C([H])([H])C([H])([H])C([H])([H])C([H])([H])C3([H])[H])C([H])([H])C2([H])[H])c([H])c1[H]


 28 30  0  0  0  0  0  0  0  0999 V2000
    4.1997    2.0691   17.3723 C   0  0  0  0  0  0  0  0  0  0  0  0
    3.8982    1.4404   18.5609 C   0  0  0  0  0  0  0  0  0  0  0  0
    4.2905    1.9878   19.7877 C   0  0  0  0  0  0  0  0  0  0  0  0
    4.9870    3.1638   19.8602 C   0  0  0  0  0  0  0  0  0  0  0  0
    5.2869    3.7921   18.6605 C   0  0  0  0  0  0  0  0  0  0  0  0
    4.9118    3.2736   17.4392 C   0  0  0  0  0  0  0  0  0  0  0  0
    3.8273    1.5516   16.1244 N   0  0  0  0  0  0  0  0  0  0  0  0
    4.5335    1.4898   15.3412 H   0  0  0  0  0  0  0  0  0  0  0  0
    1.7005    1.7098   14.8608 N   0  0  0  0  0  0  0  0  0  0  0  0
    2.5333    1.0929   15.8314 C   0  0  0  0  0  0  0  0  0  0  0  0
    2.0774    0.0622   16.4659 N   0  0  0  0  0  0  0  0  0  0  0  0
    1.4287    1.1762   13.9947 H   0  0  0  0  0  0  0  0  0  0  0  0
    1.3742    2.6785   15.0212 H   0  0  0  0  0  0  0  0  0  0  0  0
    2.6464   -0.4367   17.1948 H   0  0  0  0  0  0  0  0  0  0  0  0
    5.4013    3.7497   21.0322 O   0  0  0  0  0  0  0  0  0  0  0  0
    4.8701    4.8834   21.6359 C   0  0  0  0  0  0  0  0  0  0  0  0
    3.7002    4.7566   22.5857 C   0  0  0  0  0  0  0  0  0  0  0  0
    5.0313    4.8946   23.1734 C   0  0  0  0  0  0  0  0  0  0  0  0
    5.1675    6.1786   20.9986 C   0  0  0  0  0  0  0  0  0  0  0  0
    6.3309    6.3317   20.5002 O   0  0  0  0  0  0  0  0  0  0  0  0
    4.2660    7.2509   20.9037 N   0  0  0  0  0  0  0  0  0  0  0  0
    3.2956    7.1469   21.3100 H   0  0  0  0  0  0  0  0  0  0  0  0
    4.6294    8.4997   20.2623 C   0  0  0  0  0  0  0  0  0  0  0  0
    4.2119    8.4295   18.8146 C   0  0  0  0  0  0  0  0  0  0  0  0
    5.4600    8.2277   17.9855 C   0  0  0  0  0  0  0  0  0  0  0  0
    6.2178    9.5432   18.0518 C   0  0  0  0  0  0  0  0  0  0  0  0
    6.6321    9.7957   19.4490 C   0  0  0  0  0  0  0  0  0  0  0  0
    6.0520    8.8655   20.4671 C   0  0  0  0  0  0  0  0  0  0  0  0
  9 10  1  0  0  0
 10 11  2  0  0  0
 10  7  1  0  0  0
  7  1  1  0  0  0
  1  2  2  0  0  0
  2  3  1  0  0  0
  3  4  2  0  0  0
  4 15  1  0  0  0
 15 16  1  0  0  0
 16 17  1  0  0  0
 17 18  1  0  0  0
 16 19  1  0  0  0
 19 20  2  0  0  0
 19 21  1  0  0  0
 21 23  1  0  0  0
 23 24  1  0  0  0
 24 25  1  0  0  0
 25 26  1  0  0  0
 26 27  1  0  0  0
 27 28  1  0  0  0
  4  5  1  0  0  0
  5  6  2  0  0  0
  6  1  1  0  0  0
 18 16  1  0  0  0
 28 23  1  0  0  0
  9 12  1  0  0  0
  9 13  1  0  0  0
 11 14  1  0  0  0
  7  8  1  0  0  0
 21 22  1  0  0  0
M  END
> <minimizedAffinity>
-7.11879

> <CNNscore>
0.4059769511

> <CNNaffinity>
5.3357229233

> <CNN_VS>
2.1661806107

> <CNNaffinity_variance>
0.4093725681

$$$$
[H]N=C(N([H])[H])N([H])c1c([H])c([H])c(OC2(C(=O)N([H])C3([H])C([H])([H])C([H])([H])C([H])([H])C([H])([H])C3([H])[H])C([H])([H])C2([H])[H])c([H])c1[H]


 28 30  0  0  0  0  0  0  0  0999 V2000
    3.8283    3.1922   16.7720 C   0  0  0  0  0  0  0  0  0  0  0  0
    5.0319    3.8609   16.8272 C   0  0  0  0  0  0  0  0  0  0  0  0
    5.0836    5.2352   17.0865 C   0  0  0  0  0  0  0  0  0  0  0  0
    3.9483    5.9707   17.2946 C   0  0  0  0  0  0  0  0  0  0  0  0
    2.7400    5.2917   17.2384 C   0  0  0  0  0  0  0  0  0  0  0  0
    2.6622    3.9386   16.9848 C   0  0  0  0  0  0  0  0  0  0  0  0
    3.7349    1.8183   16.5122 N   0  0  0  0  0  0  0  0  0  0  0  0
    4.5824    1.1970   16.6202 H   0  0  0  0  0  0  0  0  0  0  0  0
    1.9153    1.4710   14.8649 N   0  0  0  0  0  0  0  0  0  0  0  0
    2.5499    1.1865   16.1028 C   0  0  0  0  0  0  0  0  0  0  0  0
    2.0121    0.3037   16.8801 N   0  0  0  0  0  0  0  0  0  0  0  0
    1.8520    0.7206   14.1289 H   0  0  0  0  0  0  0  0  0  0  0  0
    1.5249    2.4158   14.7058 H   0  0  0  0  0  0  0  0  0  0  0  0
    2.4350    0.0506   17.8081 H   0  0  0  0  0  0  0  0  0  0  0  0
    3.9340    7.3207   17.5510 O   0  0  0  0  0  0  0  0  0  0  0  0
    4.3815    7.9600   18.7012 C   0  0  0  0  0  0  0  0  0  0  0  0
    4.7852    9.4164   18.6483 C   0  0  0  0  0  0  0  0  0  0  0  0
    3.4549    9.1060   19.1683 C   0  0  0  0  0  0  0  0  0  0  0  0
    4.8604    7.0998   19.7979 C   0  0  0  0  0  0  0  0  0  0  0  0
    6.0758    7.2343   20.1586 O   0  0  0  0  0  0  0  0  0  0  0  0
    4.0779    6.1464   20.4688 N   0  0  0  0  0  0  0  0  0  0  0  0
    3.0673    6.0173   20.1867 H   0  0  0  0  0  0  0  0  0  0  0  0
    4.6181    5.3323   21.5404 C   0  0  0  0  0  0  0  0  0  0  0  0
    5.2512    4.1056   20.9324 C   0  0  0  0  0  0  0  0  0  0  0  0
    4.3293    2.9357   21.1925 C   0  0  0  0  0  0  0  0  0  0  0  0
    4.4248    2.6574   22.6834 C   0  0  0  0  0  0  0  0  0  0  0  0
    3.9057    3.8241   23.4298 C   0  0  0  0  0  0  0  0  0  0  0  0
    3.6269    5.0402   22.6042 C   0  0  0  0  0  0  0  0  0  0  0  0
  9 10  1  0  0  0
 10 11  2  0  0  0
 10  7  1  0  0  0
  7  1  1  0  0  0
  1  2  2  0  0  0
  2  3  1  0  0  0
  3  4  2  0  0  0
  4 15  1  0  0  0
 15 16  1  0  0  0
 16 17  1  0  0  0
 17 18  1  0  0  0
 16 19  1  0  0  0
 19 20  2  0  0  0
 19 21  1  0  0  0
 21 23  1  0  0  0
 23 24  1  0  0  0
 24 25  1  0  0  0
 25 26  1  0  0  0
 26 27  1  0  0  0
 27 28  1  0  0  0
  4  5  1  0  0  0
  5  6  2  0  0  0
  6  1  1  0  0  0
 18 16  1  0  0  0
 28 23  1  0  0  0
  9 12  1  0  0  0
  9 13  1  0  0  0
 11 14  1  0  0  0
  7  8  1  0  0  0
 21 22  1  0  0  0
M  END
> <minimizedAffinity>
-7.37637

> <CNNscore>
0.3893932998

> <CNNaffinity>
5.3843851089

> <CNN_VS>
2.0966434479

> <CNNaffinity_variance>
0.4767999053

$$$$
[H]N=C(N([H])[H])N([H])c1c([H])c([H])c(OC2(C(=O)N([H])C3([H])C([H])([H])C([H])([H])C([H])([H])C([H])([H])C3([H])[H])C([H])([H])C2([H])[H])c([H])c1[H]


 28 30  0  0  0  0  0  0  0  0999 V2000
    3.8712    1.1911   19.7596 C   0  0  0  0  0  0  0  0  0  0  0  0
    4.4404    2.0502   18.8447 C   0  0  0  0  0  0  0  0  0  0  0  0
    5.1996    3.1496   19.2612 C   0  0  0  0  0  0  0  0  0  0  0  0
    5.4082    3.4184   20.5869 C   0  0  0  0  0  0  0  0  0  0  0  0
    4.8332    2.5497   21.5027 C   0  0  0  0  0  0  0  0  0  0  0  0
    4.0813    1.4598   21.1182 C   0  0  0  0  0  0  0  0  0  0  0  0
    3.1024    0.0818   19.3824 N   0  0  0  0  0  0  0  0  0  0  0  0
    2.9653   -0.7236   20.0521 H   0  0  0  0  0  0  0  0  0  0  0  0
    3.1964   -0.3217   16.9384 N   0  0  0  0  0  0  0  0  0  0  0  0
    2.4789   -0.0385   18.1304 C   0  0  0  0  0  0  0  0  0  0  0  0
    1.1962    0.1091   18.0547 N   0  0  0  0  0  0  0  0  0  0  0  0
    3.0250   -1.2287   16.4317 H   0  0  0  0  0  0  0  0  0  0  0  0
    3.8799    0.3709   16.5867 H   0  0  0  0  0  0  0  0  0  0  0  0
    0.6112    0.3196   18.9018 H   0  0  0  0  0  0  0  0  0  0  0  0
    6.1409    4.4814   21.0575 O   0  0  0  0  0  0  0  0  0  0  0  0
    5.7447    5.8125   21.1149 C   0  0  0  0  0  0  0  0  0  0  0  0
    4.6642    6.2388   22.0833 C   0  0  0  0  0  0  0  0  0  0  0  0
    6.0512    6.4878   22.4715 C   0  0  0  0  0  0  0  0  0  0  0  0
    6.0648    6.6536   19.9477 C   0  0  0  0  0  0  0  0  0  0  0  0
    7.2568    7.0960   19.8550 O   0  0  0  0  0  0  0  0  0  0  0  0
    5.1543    7.0020   18.9371 N   0  0  0  0  0  0  0  0  0  0  0  0
    4.1602    6.6467   18.9931 H   0  0  0  0  0  0  0  0  0  0  0  0
    5.5403    7.8370   17.8161 C   0  0  0  0  0  0  0  0  0  0  0  0
    5.1433    9.2592   18.1240 C   0  0  0  0  0  0  0  0  0  0  0  0
    3.9231    9.5859   17.2932 C   0  0  0  0  0  0  0  0  0  0  0  0
    4.4128    9.6786   15.8576 C   0  0  0  0  0  0  0  0  0  0  0  0
    4.9172    8.3557   15.4298 C   0  0  0  0  0  0  0  0  0  0  0  0
    5.0353    7.3334   16.5158 C   0  0  0  0  0  0  0  0  0  0  0  0
  9 10  1  0  0  0
 10 11  2  0  0  0
 10  7  1  0  0  0
  7  1  1  0  0  0
  1  2  2  0  0  0
  2  3  1  0  0  0
  3  4  2  0  0  0
  4 15  1  0  0  0
 15 16  1  0  0  0
 16 17  1  0  0  0
 17 18  1  0  0  0
 16 19  1  0  0  0
 19 20  2  0  0  0
 19 21  1  0  0  0
 21 23  1  0  0  0
 23 24  1  0  0  0
 24 25  1  0  0  0
 25 26  1  0  0  0
 26 27  1  0  0  0
 27 28  1  0  0  0
  4  5  1  0  0  0
  5  6  2  0  0  0
  6  1  1  0  0  0
 18 16  1  0  0  0
 28 23  1  0  0  0
  9 12  1  0  0  0
  9 13  1  0  0  0
 11 14  1  0  0  0
  7  8  1  0  0  0
 21 22  1  0  0  0
M  END
> <minimizedAffinity>
-5.86695

> <CNNscore>
0.3859164417

> <CNNaffinity>
5.3515477180

> <CNN_VS>
2.0652501583

> <CNNaffinity_variance>
0.8982694745

$$$$
[H]N=C(N([H])[H])N([H])c1c([H])c([H])c(OC2(C(=O)N([H])C3([H])C([H])([H])C([H])([H])C([H])([H])C([H])([H])C3([H])[H])C([H])([H])C2([H])[H])c([H])c1[H]


 28 30  0  0  0  0  0  0  0  0999 V2000
    3.8879    1.7614   17.3169 C   0  0  0  0  0  0  0  0  0  0  0  0
    3.4869    0.9603   18.3640 C   0  0  0  0  0  0  0  0  0  0  0  0
    3.9666    1.1732   19.6614 C   0  0  0  0  0  0  0  0  0  0  0  0
    4.8498    2.1795   19.9452 C   0  0  0  0  0  0  0  0  0  0  0  0
    5.2490    2.9828   18.8871 C   0  0  0  0  0  0  0  0  0  0  0  0
    4.7912    2.7939   17.6003 C   0  0  0  0  0  0  0  0  0  0  0  0
    3.4328    1.5786   16.0041 N   0  0  0  0  0  0  0  0  0  0  0  0
    3.9333    0.9122   15.3550 H   0  0  0  0  0  0  0  0  0  0  0  0
    1.4752    1.6651   14.4860 N   0  0  0  0  0  0  0  0  0  0  0  0
    2.3173    2.2440   15.4717 C   0  0  0  0  0  0  0  0  0  0  0  0
    2.0374    3.4329   15.8971 N   0  0  0  0  0  0  0  0  0  0  0  0
    0.4717    1.4492   14.7214 H   0  0  0  0  0  0  0  0  0  0  0  0
    1.8639    1.4629   13.5486 H   0  0  0  0  0  0  0  0  0  0  0  0
    2.6230    3.9135   16.6252 H   0  0  0  0  0  0  0  0  0  0  0  0
    5.3574    2.4370   21.1959 O   0  0  0  0  0  0  0  0  0  0  0  0
    4.8366    3.3037   22.1496 C   0  0  0  0  0  0  0  0  0  0  0  0
    3.6627    2.8743   23.0007 C   0  0  0  0  0  0  0  0  0  0  0  0
    4.9935    2.7897   23.5992 C   0  0  0  0  0  0  0  0  0  0  0  0
    5.1496    4.7351   21.9905 C   0  0  0  0  0  0  0  0  0  0  0  0
    4.1777    5.5574   22.0590 O   0  0  0  0  0  0  0  0  0  0  0  0
    6.4350    5.2545   21.7680 N   0  0  0  0  0  0  0  0  0  0  0  0
    7.2562    4.5915   21.7074 H   0  0  0  0  0  0  0  0  0  0  0  0
    6.6683    6.6779   21.6191 C   0  0  0  0  0  0  0  0  0  0  0  0
    7.1030    6.9423   20.1991 C   0  0  0  0  0  0  0  0  0  0  0  0
    8.5899    7.2155   20.2169 C   0  0  0  0  0  0  0  0  0  0  0  0
    8.7528    8.5754   20.8753 C   0  0  0  0  0  0  0  0  0  0  0  0
    8.2851    8.4963   22.2762 C   0  0  0  0  0  0  0  0  0  0  0  0
    7.5856    7.2269   22.6472 C   0  0  0  0  0  0  0  0  0  0  0  0
  9 10  1  0  0  0
 10 11  2  0  0  0
 10  7  1  0  0  0
  7  1  1  0  0  0
  1  2  2  0  0  0
  2  3  1  0  0  0
  3  4  2  0  0  0
  4 15  1  0  0  0
 15 16  1  0  0  0
 16 17  1  0  0  0
 17 18  1  0  0  0
 16 19  1  0  0  0
 19 20  2  0  0  0
 19 21  1  0  0  0
 21 23  1  0  0  0
 23 24  1  0  0  0
 24 25  1  0  0  0
 25 26  1  0  0  0
 26 27  1  0  0  0
 27 28  1  0  0  0
  4  5  1  0  0  0
  5  6  2  0  0  0
  6  1  1  0  0  0
 18 16  1  0  0  0
 28 23  1  0  0  0
  9 12  1  0  0  0
  9 13  1  0  0  0
 11 14  1  0  0  0
  7  8  1  0  0  0
 21 22  1  0  0  0
M  END
> <minimizedAffinity>
-6.58257

> <CNNscore>
0.3637722433

> <CNNaffinity>
5.5327863693

> <CNN_VS>
2.0126740932

> <CNNaffinity_variance>
0.2794298232

$$$$
[H]N=C(N([H])[H])N([H])c1c([H])c([H])c(OC2(C(=O)N([H])C3([H])C([H])([H])C([H])([H])C([H])([H])C([H])([H])C3([H])[H])C([H])([H])C2([H])[H])c([H])c1[H]


 28 30  0  0  0  0  0  0  0  0999 V2000
    5.3409    4.3718   19.7943 C   0  0  0  0  0  0  0  0  0  0  0  0
    5.4936    5.1400   18.6605 C   0  0  0  0  0  0  0  0  0  0  0  0
    5.2723    4.6016   17.3878 C   0  0  0  0  0  0  0  0  0  0  0  0
    4.8976    3.2967   17.2145 C   0  0  0  0  0  0  0  0  0  0  0  0
    4.7449    2.5289   18.3596 C   0  0  0  0  0  0  0  0  0  0  0  0
    4.9568    3.0355   19.6243 C   0  0  0  0  0  0  0  0  0  0  0  0
    5.5559    4.8732   21.0851 N   0  0  0  0  0  0  0  0  0  0  0  0
    6.5376    4.9641   21.4644 H   0  0  0  0  0  0  0  0  0  0  0  0
    4.5777    5.1125   23.3502 N   0  0  0  0  0  0  0  0  0  0  0  0
    4.5194    5.2777   21.9412 C   0  0  0  0  0  0  0  0  0  0  0  0
    3.4669    5.8292   21.4305 N   0  0  0  0  0  0  0  0  0  0  0  0
    4.6025    5.9616   23.9724 H   0  0  0  0  0  0  0  0  0  0  0  0
    4.5959    4.1557   23.7437 H   0  0  0  0  0  0  0  0  0  0  0  0
    3.3659    5.9785   20.3954 H   0  0  0  0  0  0  0  0  0  0  0  0
    4.6680    2.7106   15.9930 O   0  0  0  0  0  0  0  0  0  0  0  0
    3.4500    2.5992   15.3326 C   0  0  0  0  0  0  0  0  0  0  0  0
    2.5340    1.4325   15.6273 C   0  0  0  0  0  0  0  0  0  0  0  0
    2.2279    2.7075   16.2733 C   0  0  0  0  0  0  0  0  0  0  0  0
    3.3013    3.3567   14.0771 C   0  0  0  0  0  0  0  0  0  0  0  0
    2.3384    3.0305   13.3079 O   0  0  0  0  0  0  0  0  0  0  0  0
    4.1416    4.4051   13.6693 N   0  0  0  0  0  0  0  0  0  0  0  0
    4.9468    4.6928   14.2910 H   0  0  0  0  0  0  0  0  0  0  0  0
    3.9354    5.1061   12.4167 C   0  0  0  0  0  0  0  0  0  0  0  0
    4.7405    4.4129   11.3460 C   0  0  0  0  0  0  0  0  0  0  0  0
    5.9449    5.2760   11.0454 C   0  0  0  0  0  0  0  0  0  0  0  0
    5.4071    6.4986   10.3207 C   0  0  0  0  0  0  0  0  0  0  0  0
    4.5196    7.2527   11.2324 C   0  0  0  0  0  0  0  0  0  0  0  0
    4.1881    6.5639   12.5185 C   0  0  0  0  0  0  0  0  0  0  0  0
  9 10  1  0  0  0
 10 11  2  0  0  0
 10  7  1  0  0  0
  7  1  1  0  0  0
  1  2  2  0  0  0
  2  3  1  0  0  0
  3  4  2  0  0  0
  4 15  1  0  0  0
 15 16  1  0  0  0
 16 17  1  0  0  0
 17 18  1  0  0  0
 16 19  1  0  0  0
 19 20  2  0  0  0
 19 21  1  0  0  0
 21 23  1  0  0  0
 23 24  1  0  0  0
 24 25  1  0  0  0
 25 26  1  0  0  0
 26 27  1  0  0  0
 27 28  1  0  0  0
  4  5  1  0  0  0
  5  6  2  0  0  0
  6  1  1  0  0  0
 18 16  1  0  0  0
 28 23  1  0  0  0
  9 12  1  0  0  0
  9 13  1  0  0  0
 11 14  1  0  0  0
  7  8  1  0  0  0
 21 22  1  0  0  0
M  END
> <minimizedAffinity>
-6.43129

> <CNNscore>
0.3430185318

> <CNNaffinity>
5.1169996262

> <CNN_VS>
1.7552256584

> <CNNaffinity_variance>
0.1361198723

$$$$
[H]N=C(N([H])[H])N([H])c1c([H])c([H])c(OC2(C(=O)N([H])C3([H])C([H])([H])C([H])([H])C([H])([H])C([H])([H])C3([H])[H])C([H])([H])C2([H])[H])c([H])c1[H]


 28 30  0  0  0  0  0  0  0  0999 V2000
    3.9601    4.2564   17.0402 C   0  0  0  0  0  0  0  0  0  0  0  0
    5.2539    4.7308   17.0485 C   0  0  0  0  0  0  0  0  0  0  0  0
    5.5956    5.8852   17.7621 C   0  0  0  0  0  0  0  0  0  0  0  0
    4.6656    6.5895   18.4779 C   0  0  0  0  0  0  0  0  0  0  0  0
    3.3653    6.1066   18.4661 C   0  0  0  0  0  0  0  0  0  0  0  0
    3.0032    4.9720   17.7713 C   0  0  0  0  0  0  0  0  0  0  0  0
    3.5780    3.1067   16.3360 N   0  0  0  0  0  0  0  0  0  0  0  0
    3.2611    3.1785   15.3309 H   0  0  0  0  0  0  0  0  0  0  0  0
    4.4222    1.4588   17.9842 N   0  0  0  0  0  0  0  0  0  0  0  0
    3.5869    1.8184   16.8938 C   0  0  0  0  0  0  0  0  0  0  0  0
    2.7994    0.9188   16.4007 N   0  0  0  0  0  0  0  0  0  0  0  0
    3.9880    1.1950   18.9066 H   0  0  0  0  0  0  0  0  0  0  0  0
    5.4486    1.4630   17.8538 H   0  0  0  0  0  0  0  0  0  0  0  0
    2.1582    1.1249   15.5942 H   0  0  0  0  0  0  0  0  0  0  0  0
    4.9386    7.7291   19.1956 O   0  0  0  0  0  0  0  0  0  0  0  0
    5.5361    7.8077   20.4481 C   0  0  0  0  0  0  0  0  0  0  0  0
    6.2238    9.0837   20.8791 C   0  0  0  0  0  0  0  0  0  0  0  0
    4.8724    8.8455   21.3824 C   0  0  0  0  0  0  0  0  0  0  0  0
    5.8601    6.5328   21.1127 C   0  0  0  0  0  0  0  0  0  0  0  0
    7.0938    6.2520   21.2694 O   0  0  0  0  0  0  0  0  0  0  0  0
    4.9117    5.6094   21.5813 N   0  0  0  0  0  0  0  0  0  0  0  0
    3.8828    5.8210   21.4621 H   0  0  0  0  0  0  0  0  0  0  0  0
    5.3047    4.3713   22.2257 C   0  0  0  0  0  0  0  0  0  0  0  0
    5.3878    3.2935   21.1736 C   0  0  0  0  0  0  0  0  0  0  0  0
    4.1781    2.4007   21.3338 C   0  0  0  0  0  0  0  0  0  0  0  0
    4.4022    1.6279   22.6229 C   0  0  0  0  0  0  0  0  0  0  0  0
    4.4261    2.5744   23.7591 C   0  0  0  0  0  0  0  0  0  0  0  0
    4.4487    4.0230   23.3856 C   0  0  0  0  0  0  0  0  0  0  0  0
  9 10  1  0  0  0
 10 11  2  0  0  0
 10  7  1  0  0  0
  7  1  1  0  0  0
  1  2  2  0  0  0
  2  3  1  0  0  0
  3  4  2  0  0  0
  4 15  1  0  0  0
 15 16  1  0  0  0
 16 17  1  0  0  0
 17 18  1  0  0  0
 16 19  1  0  0  0
 19 20  2  0  0  0
 19 21  1  0  0  0
 21 23  1  0  0  0
 23 24  1  0  0  0
 24 25  1  0  0  0
 25 26  1  0  0  0
 26 27  1  0  0  0
 27 28  1  0  0  0
  4  5  1  0  0  0
  5  6  2  0  0  0
  6  1  1  0  0  0
 18 16  1  0  0  0
 28 23  1  0  0  0
  9 12  1  0  0  0
  9 13  1  0  0  0
 11 14  1  0  0  0
  7  8  1  0  0  0
 21 22  1  0  0  0
M  END
> <minimizedAffinity>
-6.75397

> <CNNscore>
0.3373948932

> <CNNaffinity>
5.4479966164

> <CNN_VS>
1.8381261826

> <CNNaffinity_variance>
0.0934960619

$$$$
[H]c1c([H])c([H])c(C([H])([H])n2nnc(C(=O)N([H])[H])c2-c2c([H])c([H])c(N([H])C(=O)C([H])([H])c3c([H])c([H])c(OC([H])([H])[H])c([H])c3[H])c([H])c2[H])c([H])c1[H]


 36 39  0  0  0  0  0  0  0  0999 V2000
    5.3393    6.3084   20.9963 C   0  0  0  0  0  0  0  0  0  0  0  0
    6.1795    5.8789   20.0315 C   0  0  0  0  0  0  0  0  0  0  0  0
    5.8379    4.9011   19.0871 C   0  0  0  0  0  0  0  0  0  0  0  0
    4.5906    4.3493   19.1408 C   0  0  0  0  0  0  0  0  0  0  0  0
    3.6753    4.7588   20.1248 C   0  0  0  0  0  0  0  0  0  0  0  0
    4.0757    5.7202   21.0156 C   0  0  0  0  0  0  0  0  0  0  0  0
    4.1850    3.2095   18.2886 C   0  0  0  0  0  0  0  0  0  0  0  0
    3.3482    3.3070   17.2039 C   0  0  0  0  0  0  0  0  0  0  0  0
    3.0034    2.0328   16.8597 N   0  0  0  0  0  0  0  0  0  0  0  0
    3.5949    1.2461   17.6714 N   0  0  0  0  0  0  0  0  0  0  0  0
    4.3470    1.9112   18.5820 N   0  0  0  0  0  0  0  0  0  0  0  0
    2.9970    4.4877   16.4365 C   0  0  0  0  0  0  0  0  0  0  0  0
    4.0039    5.0585   15.5610 N   0  0  0  0  0  0  0  0  0  0  0  0
    1.8837    5.0633   16.4665 O   0  0  0  0  0  0  0  0  0  0  0  0
    3.8776    5.1559   14.5494 H   0  0  0  0  0  0  0  0  0  0  0  0
    4.8790    5.3682   16.0345 H   0  0  0  0  0  0  0  0  0  0  0  0
    5.1220    1.2017   19.5457 C   0  0  0  0  0  0  0  0  0  0  0  0
    4.8741    1.6307   20.9287 C   0  0  0  0  0  0  0  0  0  0  0  0
    5.9648    2.1895   21.6135 C   0  0  0  0  0  0  0  0  0  0  0  0
    5.8079    2.5665   22.9260 C   0  0  0  0  0  0  0  0  0  0  0  0
    4.6109    2.4066   23.5733 C   0  0  0  0  0  0  0  0  0  0  0  0
    3.5489    1.8512   22.8733 C   0  0  0  0  0  0  0  0  0  0  0  0
    3.6769    1.4710   21.5788 C   0  0  0  0  0  0  0  0  0  0  0  0
    5.5580    8.6385   21.7722 C   0  0  0  0  0  0  0  0  0  0  0  0
    5.2310    9.1454   20.7010 O   0  0  0  0  0  0  0  0  0  0  0  0
    5.6297    7.2540   21.9655 N   0  0  0  0  0  0  0  0  0  0  0  0
    5.9330    6.9134   22.9516 H   0  0  0  0  0  0  0  0  0  0  0  0
    5.9012    9.5260   22.9424 C   0  0  0  0  0  0  0  0  0  0  0  0
    9.7269    8.3795   24.4277 C   0  0  0  0  0  0  0  0  0  0  0  0
    8.6228    8.3169   25.2371 C   0  0  0  0  0  0  0  0  0  0  0  0
    7.3866    8.6885   24.7533 C   0  0  0  0  0  0  0  0  0  0  0  0
    7.2315    9.1306   23.4485 C   0  0  0  0  0  0  0  0  0  0  0  0
    8.3584    9.1909   22.6338 C   0  0  0  0  0  0  0  0  0  0  0  0
    9.6025    8.8129   23.1330 C   0  0  0  0  0  0  0  0  0  0  0  0
   11.8771    7.2443   24.1880 C   0  0  0  0  0  0  0  0  0  0  0  0
   10.9530    7.9984   24.9467 O   0  0  0  0  0  0  0  0  0  0  0  0
 35 36  1  0  0  0
 36 29  1  0  0  0
 29 30  2  0  0  0
 30 31  1  0  0  0
 31 32  2  0  0  0
 32 28  1  0  0  0
 28 24  1  0  0  0
 24 25  2  0  0  0
 24 26  1  0  0  0
 26  1  1  0  0  0
  1  2  2  0  0  0
  2  3  1  0  0  0
  3  4  2  0  0  0
  4  5  1  0  0  0
  5  6  2  0  0  0
  4  7  1  0  0  0
  7  8  2  0  0  0
  8  9  1  0  0  0
  9 10  2  0  0  0
 10 11  1  0  0  0
 11 17  1  0  0  0
 17 18  1  0  0  0
 18 19  2  0  0  0
 19 20  1  0  0  0
 20 21  2  0  0  0
 21 22  1  0  0  0
 22 23  2  0  0  0
  8 12  1  0  0  0
 12 13  1  0  0  0
 12 14  2  0  0  0
 32 33  1  0  0  0
 33 34  2  0  0  0
 34 29  1  0  0  0
  6  1  1  0  0  0
 11  7  1  0  0  0
 23 18  1  0  0  0
 26 27  1  0  0  0
 13 15  1  0  0  0
 13 16  1  0  0  0
M  END
> <minimizedAffinity>
-8.18338

> <CNNscore>
0.2465284467

> <CNNaffinity>
6.3438353539

> <CNN_VS>
1.5639358759

> <CNNaffinity_variance>
0.2696563005

$$$$
[H]c1c([H])c([H])c(C([H])([H])n2nnc(C(=O)N([H])[H])c2-c2c([H])c([H])c(N([H])C(=O)C([H])([H])c3c([H])c([H])c(OC([H])([H])[H])c([H])c3[H])c([H])c2[H])c([H])c1[H]


 36 39  0  0  0  0  0  0  0  0999 V2000
    2.9860    2.6254   14.2889 C   0  0  0  0  0  0  0  0  0  0  0  0
    3.8793    3.6053   14.0377 C   0  0  0  0  0  0  0  0  0  0  0  0
    3.6149    4.6971   13.1992 C   0  0  0  0  0  0  0  0  0  0  0  0
    2.3906    4.7792   12.6013 C   0  0  0  0  0  0  0  0  0  0  0  0
    1.4225    3.7865   12.8272 C   0  0  0  0  0  0  0  0  0  0  0  0
    1.7483    2.7477   13.6594 C   0  0  0  0  0  0  0  0  0  0  0  0
    2.0656    5.8064   11.5867 C   0  0  0  0  0  0  0  0  0  0  0  0
    1.2638    6.8982   11.8129 C   0  0  0  0  0  0  0  0  0  0  0  0
    0.9875    7.4408   10.5921 N   0  0  0  0  0  0  0  0  0  0  0  0
    1.5843    6.7305    9.7163 N   0  0  0  0  0  0  0  0  0  0  0  0
    2.2741    5.7015   10.2663 N   0  0  0  0  0  0  0  0  0  0  0  0
    0.8881    7.4967   13.0806 C   0  0  0  0  0  0  0  0  0  0  0  0
   -0.3125    7.0120   13.7362 N   0  0  0  0  0  0  0  0  0  0  0  0
    1.5208    8.4081   13.6642 O   0  0  0  0  0  0  0  0  0  0  0  0
   -0.3115    6.5950   14.6716 H   0  0  0  0  0  0  0  0  0  0  0  0
   -1.1912    7.1167   13.1859 H   0  0  0  0  0  0  0  0  0  0  0  0
    3.0453    4.8220    9.4511 C   0  0  0  0  0  0  0  0  0  0  0  0
    2.6798    3.4075    9.6054 C   0  0  0  0  0  0  0  0  0  0  0  0
    1.3675    3.0597    9.2481 C   0  0  0  0  0  0  0  0  0  0  0  0
    0.9516    1.7602    9.4148 C   0  0  0  0  0  0  0  0  0  0  0  0
    1.7922    0.8042    9.9214 C   0  0  0  0  0  0  0  0  0  0  0  0
    3.0842    1.1749   10.2671 C   0  0  0  0  0  0  0  0  0  0  0  0
    3.5196    2.4490   10.1129 C   0  0  0  0  0  0  0  0  0  0  0  0
    2.5458    1.2741   16.3037 C   0  0  0  0  0  0  0  0  0  0  0  0
    1.7129    2.0448   16.7768 O   0  0  0  0  0  0  0  0  0  0  0  0
    3.1998    1.5162   15.0900 N   0  0  0  0  0  0  0  0  0  0  0  0
    3.9203    0.7705   14.7661 H   0  0  0  0  0  0  0  0  0  0  0  0
    2.8943    0.0075   17.0447 C   0  0  0  0  0  0  0  0  0  0  0  0
    3.9070    1.0578   21.0482 C   0  0  0  0  0  0  0  0  0  0  0  0
    4.5494    1.6512   19.9931 C   0  0  0  0  0  0  0  0  0  0  0  0
    4.2193    1.3092   18.6991 C   0  0  0  0  0  0  0  0  0  0  0  0
    3.2386    0.3652   18.4359 C   0  0  0  0  0  0  0  0  0  0  0  0
    2.5915   -0.2323   19.5137 C   0  0  0  0  0  0  0  0  0  0  0  0
    2.9332    0.1210   20.8169 C   0  0  0  0  0  0  0  0  0  0  0  0
    5.5013    2.0508   22.6107 C   0  0  0  0  0  0  0  0  0  0  0  0
    4.2640    1.4255   22.3348 O   0  0  0  0  0  0  0  0  0  0  0  0
 35 36  1  0  0  0
 36 29  1  0  0  0
 29 30  2  0  0  0
 30 31  1  0  0  0
 31 32  2  0  0  0
 32 28  1  0  0  0
 28 24  1  0  0  0
 24 25  2  0  0  0
 24 26  1  0  0  0
 26  1  1  0  0  0
  1  2  2  0  0  0
  2  3  1  0  0  0
  3  4  2  0  0  0
  4  5  1  0  0  0
  5  6  2  0  0  0
  4  7  1  0  0  0
  7  8  2  0  0  0
  8  9  1  0  0  0
  9 10  2  0  0  0
 10 11  1  0  0  0
 11 17  1  0  0  0
 17 18  1  0  0  0
 18 19  2  0  0  0
 19 20  1  0  0  0
 20 21  2  0  0  0
 21 22  1  0  0  0
 22 23  2  0  0  0
  8 12  1  0  0  0
 12 13  1  0  0  0
 12 14  2  0  0  0
 32 33  1  0  0  0
 33 34  2  0  0  0
 34 29  1  0  0  0
  6  1  1  0  0  0
 11  7  1  0  0  0
 23 18  1  0  0  0
 26 27  1  0  0  0
 13 15  1  0  0  0
 13 16  1  0  0  0
M  END
> <minimizedAffinity>
-7.30195

> <CNNscore>
0.2290866822

> <CNNaffinity>
6.0299601555

> <CNN_VS>
1.3813835382

> <CNNaffinity_variance>
0.0580871217

$$$$
[H]c1c([H])c([H])c(C([H])([H])n2nnc(C(=O)N([H])[H])c2-c2c([H])c([H])c(N([H])C(=O)C([H])([H])c3c([H])c([H])c(OC([H])([H])[H])c([H])c3[H])c([H])c2[H])c([H])c1[H]


 36 39  0  0  0  0  0  0  0  0999 V2000
    3.6203    4.1259   17.5961 C   0  0  0  0  0  0  0  0  0  0  0  0
    2.9047    4.9828   18.3543 C   0  0  0  0  0  0  0  0  0  0  0  0
    3.4661    5.7770   19.3638 C   0  0  0  0  0  0  0  0  0  0  0  0
    4.8076    5.6829   19.5980 C   0  0  0  0  0  0  0  0  0  0  0  0
    5.6007    4.8065   18.8387 C   0  0  0  0  0  0  0  0  0  0  0  0
    4.9861    4.0608   17.8670 C   0  0  0  0  0  0  0  0  0  0  0  0
    5.4688    6.3633   20.7337 C   0  0  0  0  0  0  0  0  0  0  0  0
    6.3476    7.4112   20.6092 C   0  0  0  0  0  0  0  0  0  0  0  0
    6.9382    7.5740   21.8281 N   0  0  0  0  0  0  0  0  0  0  0  0
    6.4424    6.6973   22.6111 N   0  0  0  0  0  0  0  0  0  0  0  0
    5.5221    5.9148   21.9963 N   0  0  0  0  0  0  0  0  0  0  0  0
    6.5339    8.3055   19.4813 C   0  0  0  0  0  0  0  0  0  0  0  0
    7.6826    8.0904   18.6209 N   0  0  0  0  0  0  0  0  0  0  0  0
    5.7771    9.2596   19.1840 O   0  0  0  0  0  0  0  0  0  0  0  0
    7.6039    7.8904   17.6196 H   0  0  0  0  0  0  0  0  0  0  0  0
    8.6089    8.1533   19.0941 H   0  0  0  0  0  0  0  0  0  0  0  0
    4.8219    4.9058   22.7205 C   0  0  0  0  0  0  0  0  0  0  0  0
    5.0282    3.5520   22.1887 C   0  0  0  0  0  0  0  0  0  0  0  0
    6.3372    3.0490   22.2538 C   0  0  0  0  0  0  0  0  0  0  0  0
    6.6026    1.8065   21.7293 C   0  0  0  0  0  0  0  0  0  0  0  0
    5.6159    1.0552   21.1468 C   0  0  0  0  0  0  0  0  0  0  0  0
    4.3306    1.5763   21.0950 C   0  0  0  0  0  0  0  0  0  0  0  0
    4.0420    2.7985   21.6046 C   0  0  0  0  0  0  0  0  0  0  0  0
    3.1998    1.9069   16.6069 C   0  0  0  0  0  0  0  0  0  0  0  0
    3.7457    1.2755   17.5096 O   0  0  0  0  0  0  0  0  0  0  0  0
    3.1161    3.3042   16.6020 N   0  0  0  0  0  0  0  0  0  0  0  0
    2.6145    3.7605   15.7532 H   0  0  0  0  0  0  0  0  0  0  0  0
    2.5871    1.1661   15.4447 C   0  0  0  0  0  0  0  0  0  0  0  0
    2.1703    3.8762   12.1831 C   0  0  0  0  0  0  0  0  0  0  0  0
    1.1018    3.1272   12.6017 C   0  0  0  0  0  0  0  0  0  0  0  0
    1.2401    2.2514   13.6573 C   0  0  0  0  0  0  0  0  0  0  0  0
    2.4521    2.1082   14.3150 C   0  0  0  0  0  0  0  0  0  0  0  0
    3.5318    2.8730   13.8828 C   0  0  0  0  0  0  0  0  0  0  0  0
    3.3807    3.7547   12.8153 C   0  0  0  0  0  0  0  0  0  0  0  0
    1.8512    6.1382   11.3166 C   0  0  0  0  0  0  0  0  0  0  0  0
    1.9955    4.7459   11.1196 O   0  0  0  0  0  0  0  0  0  0  0  0
 35 36  1  0  0  0
 36 29  1  0  0  0
 29 30  2  0  0  0
 30 31  1  0  0  0
 31 32  2  0  0  0
 32 28  1  0  0  0
 28 24  1  0  0  0
 24 25  2  0  0  0
 24 26  1  0  0  0
 26  1  1  0  0  0
  1  2  2  0  0  0
  2  3  1  0  0  0
  3  4  2  0  0  0
  4  5  1  0  0  0
  5  6  2  0  0  0
  4  7  1  0  0  0
  7  8  2  0  0  0
  8  9  1  0  0  0
  9 10  2  0  0  0
 10 11  1  0  0  0
 11 17  1  0  0  0
 17 18  1  0  0  0
 18 19  2  0  0  0
 19 20  1  0  0  0
 20 21  2  0  0  0
 21 22  1  0  0  0
 22 23  2  0  0  0
  8 12  1  0  0  0
 12 13  1  0  0  0
 12 14  2  0  0  0
 32 33  1  0  0  0
 33 34  2  0  0  0
 34 29  1  0  0  0
  6  1  1  0  0  0
 11  7  1  0  0  0
 23 18  1  0  0  0
 26 27  1  0  0  0
 13 15  1  0  0  0
 13 16  1  0  0  0
M  END
> <minimizedAffinity>
-8.43318

> <CNNscore>
0.1758818924

> <CNNaffinity>
6.1346673965

> <CNN_VS>
1.0789768696

> <CNNaffinity_variance>
0.3179293275

$$$$
[H]c1c([H])c([H])c(C([H])([H])n2nnc(C(=O)N([H])[H])c2-c2c([H])c([H])c(N([H])C(=O)C([H])([H])c3c([H])c([H])c(OC([H])([H])[H])c([H])c3[H])c([H])c2[H])c([H])c1[H]


 36 39  0  0  0  0  0  0  0  0999 V2000
    5.3262    4.3845   22.0149 C   0  0  0  0  0  0  0  0  0  0  0  0
    6.6742    4.4345   21.9740 C   0  0  0  0  0  0  0  0  0  0  0  0
    7.4076    5.6253   22.0687 C   0  0  0  0  0  0  0  0  0  0  0  0
    6.7281    6.8008   22.2093 C   0  0  0  0  0  0  0  0  0  0  0  0
    5.3241    6.8075   22.2573 C   0  0  0  0  0  0  0  0  0  0  0  0
    4.6713    5.6065   22.1601 C   0  0  0  0  0  0  0  0  0  0  0  0
    7.3983    8.1195   22.1679 C   0  0  0  0  0  0  0  0  0  0  0  0
    7.6735    8.8883   23.2721 C   0  0  0  0  0  0  0  0  0  0  0  0
    8.0332   10.1209   22.8114 N   0  0  0  0  0  0  0  0  0  0  0  0
    7.9816   10.0807   21.5372 N   0  0  0  0  0  0  0  0  0  0  0  0
    7.5973    8.8668   21.0725 N   0  0  0  0  0  0  0  0  0  0  0  0
    7.7426    8.4803   24.6632 C   0  0  0  0  0  0  0  0  0  0  0  0
    6.6652    8.8832   25.5482 N   0  0  0  0  0  0  0  0  0  0  0  0
    8.6657    7.8009   25.1711 O   0  0  0  0  0  0  0  0  0  0  0  0
    6.0759    8.2159   26.0544 H   0  0  0  0  0  0  0  0  0  0  0  0
    6.5264    9.9120   25.6377 H   0  0  0  0  0  0  0  0  0  0  0  0
    7.5253    8.6115   19.6716 C   0  0  0  0  0  0  0  0  0  0  0  0
    6.2222    8.0913   19.2363 C   0  0  0  0  0  0  0  0  0  0  0  0
    6.2235    6.8144   18.6531 C   0  0  0  0  0  0  0  0  0  0  0  0
    5.0417    6.2932   18.1829 C   0  0  0  0  0  0  0  0  0  0  0  0
    3.8690    6.9960   18.2733 C   0  0  0  0  0  0  0  0  0  0  0  0
    3.8957    8.2564   18.8537 C   0  0  0  0  0  0  0  0  0  0  0  0
    5.0473    8.7934   19.3253 C   0  0  0  0  0  0  0  0  0  0  0  0
    5.0407    1.9355   22.0200 C   0  0  0  0  0  0  0  0  0  0  0  0
    6.2266    1.6839   22.2245 O   0  0  0  0  0  0  0  0  0  0  0  0
    4.5513    3.2420   21.9057 N   0  0  0  0  0  0  0  0  0  0  0  0
    3.4861    3.3503   21.7216 H   0  0  0  0  0  0  0  0  0  0  0  0
    4.0522    0.8046   21.8828 C   0  0  0  0  0  0  0  0  0  0  0  0
    2.9614    0.4398   17.7799 C   0  0  0  0  0  0  0  0  0  0  0  0
    2.3679   -0.3530   18.7272 C   0  0  0  0  0  0  0  0  0  0  0  0
    2.7231   -0.2323   20.0538 C   0  0  0  0  0  0  0  0  0  0  0  0
    3.6805    0.6853   20.4581 C   0  0  0  0  0  0  0  0  0  0  0  0
    4.2779    1.4861   19.4891 C   0  0  0  0  0  0  0  0  0  0  0  0
    3.9113    1.3556   18.1517 C   0  0  0  0  0  0  0  0  0  0  0  0
    2.7362    1.3376   15.5189 C   0  0  0  0  0  0  0  0  0  0  0  0
    2.5803    0.2916   16.4567 O   0  0  0  0  0  0  0  0  0  0  0  0
 35 36  1  0  0  0
 36 29  1  0  0  0
 29 30  2  0  0  0
 30 31  1  0  0  0
 31 32  2  0  0  0
 32 28  1  0  0  0
 28 24  1  0  0  0
 24 25  2  0  0  0
 24 26  1  0  0  0
 26  1  1  0  0  0
  1  2  2  0  0  0
  2  3  1  0  0  0
  3  4  2  0  0  0
  4  5  1  0  0  0
  5  6  2  0  0  0
  4  7  1  0  0  0
  7  8  2  0  0  0
  8  9  1  0  0  0
  9 10  2  0  0  0
 10 11  1  0  0  0
 11 17  1  0  0  0
 17 18  1  0  0  0
 18 19  2  0  0  0
 19 20  1  0  0  0
 20 21  2  0  0  0
 21 22  1  0  0  0
 22 23  2  0  0  0
  8 12  1  0  0  0
 12 13  1  0  0  0
 12 14  2  0  0  0
 32 33  1  0  0  0
 33 34  2  0  0  0
 34 29  1  0  0  0
  6  1  1  0  0  0
 11  7  1  0  0  0
 23 18  1  0  0  0
 26 27  1  0  0  0
 13 15  1  0  0  0
 13 16  1  0  0  0
M  END
> <minimizedAffinity>
-9.00677

> <CNNscore>
0.1664519161

> <CNNaffinity>
6.1764516830

> <CNN_VS>
1.0280822515

> <CNNaffinity_variance>
0.3472971320

$$$$
[H]c1c([H])c([H])c(C([H])([H])n2nnc(C(=O)N([H])[H])c2-c2c([H])c([H])c(N([H])C(=O)C([H])([H])c3c([H])c([H])c(OC([H])([H])[H])c([H])c3[H])c([H])c2[H])c([H])c1[H]


 36 39  0  0  0  0  0  0  0  0999 V2000
    3.5414    3.4793   14.9946 C   0  0  0  0  0  0  0  0  0  0  0  0
    2.9298    3.1748   13.8308 C   0  0  0  0  0  0  0  0  0  0  0  0
    2.3615    4.1342   12.9813 C   0  0  0  0  0  0  0  0  0  0  0  0
    2.4264    5.4482   13.3449 C   0  0  0  0  0  0  0  0  0  0  0  0
    3.0512    5.8220   14.5464 C   0  0  0  0  0  0  0  0  0  0  0  0
    3.5865    4.8320   15.3282 C   0  0  0  0  0  0  0  0  0  0  0  0
    1.7303    6.5184   12.5964 C   0  0  0  0  0  0  0  0  0  0  0  0
    2.2849    7.2337   11.5635 C   0  0  0  0  0  0  0  0  0  0  0  0
    1.4522    8.2877   11.3257 N   0  0  0  0  0  0  0  0  0  0  0  0
    0.4804    8.1977   12.1475 N   0  0  0  0  0  0  0  0  0  0  0  0
    0.5896    7.1205   12.9628 N   0  0  0  0  0  0  0  0  0  0  0  0
    3.4346    6.8955   10.7447 C   0  0  0  0  0  0  0  0  0  0  0  0
    4.5710    7.7980   10.7561 N   0  0  0  0  0  0  0  0  0  0  0  0
    3.5299    5.8772   10.0198 O   0  0  0  0  0  0  0  0  0  0  0  0
    5.5102    7.5138   11.0493 H   0  0  0  0  0  0  0  0  0  0  0  0
    4.3679    8.7705   10.4417 H   0  0  0  0  0  0  0  0  0  0  0  0
   -0.4252    6.8238   13.9192 C   0  0  0  0  0  0  0  0  0  0  0  0
   -1.7344    6.5393   13.3164 C   0  0  0  0  0  0  0  0  0  0  0  0
   -1.7499    5.6001   12.2732 C   0  0  0  0  0  0  0  0  0  0  0  0
   -2.9376    5.3267   11.6376 C   0  0  0  0  0  0  0  0  0  0  0  0
   -4.1002    5.9528   12.0034 C   0  0  0  0  0  0  0  0  0  0  0  0
   -4.0569    6.8774   13.0375 C   0  0  0  0  0  0  0  0  0  0  0  0
   -2.8992    7.1653   13.6807 C   0  0  0  0  0  0  0  0  0  0  0  0
    3.3696    1.7745   16.7676 C   0  0  0  0  0  0  0  0  0  0  0  0
    2.1432    1.8136   16.8435 O   0  0  0  0  0  0  0  0  0  0  0  0
    4.1004    2.5735   15.8805 N   0  0  0  0  0  0  0  0  0  0  0  0
    5.1808    2.4609   15.8983 H   0  0  0  0  0  0  0  0  0  0  0  0
    4.1414    0.8333   17.6583 C   0  0  0  0  0  0  0  0  0  0  0  0
    4.1653    2.4308   21.6085 C   0  0  0  0  0  0  0  0  0  0  0  0
    3.6168    1.1991   21.3631 C   0  0  0  0  0  0  0  0  0  0  0  0
    3.6108    0.6852   20.0839 C   0  0  0  0  0  0  0  0  0  0  0  0
    4.1543    1.3952   19.0244 C   0  0  0  0  0  0  0  0  0  0  0  0
    4.7091    2.6453   19.2831 C   0  0  0  0  0  0  0  0  0  0  0  0
    4.7097    3.1546   20.5794 C   0  0  0  0  0  0  0  0  0  0  0  0
    3.4971    4.1218   23.2403 C   0  0  0  0  0  0  0  0  0  0  0  0
    4.1542    2.9160   22.9056 O   0  0  0  0  0  0  0  0  0  0  0  0
 35 36  1  0  0  0
 36 29  1  0  0  0
 29 30  2  0  0  0
 30 31  1  0  0  0
 31 32  2  0  0  0
 32 28  1  0  0  0
 28 24  1  0  0  0
 24 25  2  0  0  0
 24 26  1  0  0  0
 26  1  1  0  0  0
  1  2  2  0  0  0
  2  3  1  0  0  0
  3  4  2  0  0  0
  4  5  1  0  0  0
  5  6  2  0  0  0
  4  7  1  0  0  0
  7  8  2  0  0  0
  8  9  1  0  0  0
  9 10  2  0  0  0
 10 11  1  0  0  0
 11 17  1  0  0  0
 17 18  1  0  0  0
 18 19  2  0  0  0
 19 20  1  0  0  0
 20 21  2  0  0  0
 21 22  1  0  0  0
 22 23  2  0  0  0
  8 12  1  0  0  0
 12 13  1  0  0  0
 12 14  2  0  0  0
 32 33  1  0  0  0
 33 34  2  0  0  0
 34 29  1  0  0  0
  6  1  1  0  0  0
 11  7  1  0  0  0
 23 18  1  0  0  0
 26 27  1  0  0  0
 13 15  1  0  0  0
 13 16  1  0  0  0
M  END
> <minimizedAffinity>
-8.57408

> <CNNscore>
0.1602771282

> <CNNaffinity>
5.9048547745

> <CNN_VS>
0.9464131594

> <CNNaffinity_variance>
0.1845630854

$$$$
[H]c1c([H])c([H])c(C([H])([H])n2nnc(C(=O)N([H])[H])c2-c2c([H])c([H])c(N([H])C(=O)C([H])([H])c3c([H])c([H])c(OC([H])([H])[H])c([H])c3[H])c([H])c2[H])c([H])c1[H]


 36 39  0  0  0  0  0  0  0  0999 V2000
    3.6862    5.9896   17.6977 C   0  0  0  0  0  0  0  0  0  0  0  0
    3.5684    6.8869   18.6988 C   0  0  0  0  0  0  0  0  0  0  0  0
    4.5311    7.0559   19.7036 C   0  0  0  0  0  0  0  0  0  0  0  0
    5.6495    6.2739   19.6741 C   0  0  0  0  0  0  0  0  0  0  0  0
    5.8237    5.3229   18.6548 C   0  0  0  0  0  0  0  0  0  0  0  0
    4.8430    5.2120   17.7040 C   0  0  0  0  0  0  0  0  0  0  0  0
    6.6490    6.2697   20.7653 C   0  0  0  0  0  0  0  0  0  0  0  0
    7.8756    6.8841   20.7005 C   0  0  0  0  0  0  0  0  0  0  0  0
    8.5976    6.4304   21.7653 N   0  0  0  0  0  0  0  0  0  0  0  0
    7.8544    5.6189   22.4109 N   0  0  0  0  0  0  0  0  0  0  0  0
    6.6307    5.4758   21.8458 N   0  0  0  0  0  0  0  0  0  0  0  0
    8.3140    7.9341   19.7996 C   0  0  0  0  0  0  0  0  0  0  0  0
    8.6727    9.2192   20.3706 N   0  0  0  0  0  0  0  0  0  0  0  0
    8.4103    7.8234   18.5546 O   0  0  0  0  0  0  0  0  0  0  0  0
    9.6023    9.6373   20.2716 H   0  0  0  0  0  0  0  0  0  0  0  0
    7.9116    9.6983   20.8971 H   0  0  0  0  0  0  0  0  0  0  0  0
    5.6413    4.6452   22.4492 C   0  0  0  0  0  0  0  0  0  0  0  0
    5.5414    3.3131   21.8379 C   0  0  0  0  0  0  0  0  0  0  0  0
    4.3792    3.0534   21.0946 C   0  0  0  0  0  0  0  0  0  0  0  0
    4.2063    1.8087   20.5376 C   0  0  0  0  0  0  0  0  0  0  0  0
    5.1444    0.8226   20.6955 C   0  0  0  0  0  0  0  0  0  0  0  0
    6.2840    1.1057   21.4355 C   0  0  0  0  0  0  0  0  0  0  0  0
    6.4791    2.3244   21.9952 C   0  0  0  0  0  0  0  0  0  0  0  0
    2.8515    6.2862   15.3967 C   0  0  0  0  0  0  0  0  0  0  0  0
    3.7784    7.0070   15.0323 O   0  0  0  0  0  0  0  0  0  0  0  0
    2.7596    5.7662   16.6931 N   0  0  0  0  0  0  0  0  0  0  0  0
    1.8965    5.1429   16.9093 H   0  0  0  0  0  0  0  0  0  0  0  0
    1.7550    5.9336   14.4231 C   0  0  0  0  0  0  0  0  0  0  0  0
    2.8997    7.3194   10.5596 C   0  0  0  0  0  0  0  0  0  0  0  0
    2.0736    8.0754   11.3496 C   0  0  0  0  0  0  0  0  0  0  0  0
    1.7053    7.6241   12.5991 C   0  0  0  0  0  0  0  0  0  0  0  0
    2.1572    6.4058   13.0824 C   0  0  0  0  0  0  0  0  0  0  0  0
    2.9957    5.6447   12.2731 C   0  0  0  0  0  0  0  0  0  0  0  0
    3.3614    6.1106   11.0124 C   0  0  0  0  0  0  0  0  0  0  0  0
    2.4806    8.7938    8.6572 C   0  0  0  0  0  0  0  0  0  0  0  0
    3.2494    7.8036    9.3102 O   0  0  0  0  0  0  0  0  0  0  0  0
 35 36  1  0  0  0
 36 29  1  0  0  0
 29 30  2  0  0  0
 30 31  1  0  0  0
 31 32  2  0  0  0
 32 28  1  0  0  0
 28 24  1  0  0  0
 24 25  2  0  0  0
 24 26  1  0  0  0
 26  1  1  0  0  0
  1  2  2  0  0  0
  2  3  1  0  0  0
  3  4  2  0  0  0
  4  5  1  0  0  0
  5  6  2  0  0  0
  4  7  1  0  0  0
  7  8  2  0  0  0
  8  9  1  0  0  0
  9 10  2  0  0  0
 10 11  1  0  0  0
 11 17  1  0  0  0
 17 18  1  0  0  0
 18 19  2  0  0  0
 19 20  1  0  0  0
 20 21  2  0  0  0
 21 22  1  0  0  0
 22 23  2  0  0  0
  8 12  1  0  0  0
 12 13  1  0  0  0
 12 14  2  0  0  0
 32 33  1  0  0  0
 33 34  2  0  0  0
 34 29  1  0  0  0
  6  1  1  0  0  0
 11  7  1  0  0  0
 23 18  1  0  0  0
 26 27  1  0  0  0
 13 15  1  0  0  0
 13 16  1  0  0  0
M  END
> <minimizedAffinity>
-7.83755

> <CNNscore>
0.1587990075

> <CNNaffinity>
5.7328643799

> <CNN_VS>
0.9103731513

> <CNNaffinity_variance>
0.2444787920

$$$$
[H]c1c([H])c([H])c(C([H])([H])n2nnc(C(=O)N([H])[H])c2-c2c([H])c([H])c(N([H])C(=O)C([H])([H])c3c([H])c([H])c(OC([H])([H])[H])c([H])c3[H])c([H])c2[H])c([H])c1[H]


 36 39  0  0  0  0  0  0  0  0999 V2000
    3.9848    6.2798   17.2477 C   0  0  0  0  0  0  0  0  0  0  0  0
    3.1607    6.0504   18.2915 C   0  0  0  0  0  0  0  0  0  0  0  0
    3.5623    5.3982   19.4656 C   0  0  0  0  0  0  0  0  0  0  0  0
    4.8543    4.9693   19.5646 C   0  0  0  0  0  0  0  0  0  0  0  0
    5.7554    5.1813   18.5078 C   0  0  0  0  0  0  0  0  0  0  0  0
    5.2953    5.8267   17.3898 C   0  0  0  0  0  0  0  0  0  0  0  0
    5.3363    4.1430   20.6937 C   0  0  0  0  0  0  0  0  0  0  0  0
    5.0356    2.8147   20.8707 C   0  0  0  0  0  0  0  0  0  0  0  0
    5.4248    2.4905   22.1374 N   0  0  0  0  0  0  0  0  0  0  0  0
    5.9219    3.5413   22.6632 N   0  0  0  0  0  0  0  0  0  0  0  0
    5.9004    4.6023   21.8201 N   0  0  0  0  0  0  0  0  0  0  0  0
    4.5519    1.8590   19.8913 C   0  0  0  0  0  0  0  0  0  0  0  0
    3.6878    0.7874   20.3507 N   0  0  0  0  0  0  0  0  0  0  0  0
    4.8207    1.8815   18.6671 O   0  0  0  0  0  0  0  0  0  0  0  0
    2.7348    0.6470   20.0029 H   0  0  0  0  0  0  0  0  0  0  0  0
    4.1051    0.1587   21.0694 H   0  0  0  0  0  0  0  0  0  0  0  0
    6.4555    5.8560   22.2111 C   0  0  0  0  0  0  0  0  0  0  0  0
    7.8083    6.0876   21.6871 C   0  0  0  0  0  0  0  0  0  0  0  0
    8.8664    5.5335   22.4247 C   0  0  0  0  0  0  0  0  0  0  0  0
   10.1581    5.7559   22.0108 C   0  0  0  0  0  0  0  0  0  0  0  0
   10.4284    6.5058   20.8963 C   0  0  0  0  0  0  0  0  0  0  0  0
    9.3639    7.0425   20.1856 C   0  0  0  0  0  0  0  0  0  0  0  0
    8.0810    6.8385   20.5720 C   0  0  0  0  0  0  0  0  0  0  0  0
    3.6928    8.2800   15.8358 C   0  0  0  0  0  0  0  0  0  0  0  0
    4.0551    9.0796   16.6964 O   0  0  0  0  0  0  0  0  0  0  0  0
    3.6376    6.8991   16.0587 N   0  0  0  0  0  0  0  0  0  0  0  0
    3.2998    6.2836   15.2298 H   0  0  0  0  0  0  0  0  0  0  0  0
    3.2857    8.7847   14.4741 C   0  0  0  0  0  0  0  0  0  0  0  0
    6.4298    7.9304   11.7279 C   0  0  0  0  0  0  0  0  0  0  0  0
    5.2240    7.2880   11.6213 C   0  0  0  0  0  0  0  0  0  0  0  0
    4.2089    7.5668   12.5114 C   0  0  0  0  0  0  0  0  0  0  0  0
    4.3815    8.4950   13.5267 C   0  0  0  0  0  0  0  0  0  0  0  0
    5.6095    9.1425   13.6272 C   0  0  0  0  0  0  0  0  0  0  0  0
    6.6281    8.8529   12.7224 C   0  0  0  0  0  0  0  0  0  0  0  0
    8.5944    6.9274   11.2009 C   0  0  0  0  0  0  0  0  0  0  0  0
    7.4272    7.6257   10.8165 O   0  0  0  0  0  0  0  0  0  0  0  0
 35 36  1  0  0  0
 36 29  1  0  0  0
 29 30  2  0  0  0
 30 31  1  0  0  0
 31 32  2  0  0  0
 32 28  1  0  0  0
 28 24  1  0  0  0
 24 25  2  0  0  0
 24 26  1  0  0  0
 26  1  1  0  0  0
  1  2  2  0  0  0
  2  3  1  0  0  0
  3  4  2  0  0  0
  4  5  1  0  0  0
  5  6  2  0  0  0
  4  7  1  0  0  0
  7  8  2  0  0  0
  8  9  1  0  0  0
  9 10  2  0  0  0
 10 11  1  0  0  0
 11 17  1  0  0  0
 17 18  1  0  0  0
 18 19  2  0  0  0
 19 20  1  0  0  0
 20 21  2  0  0  0
 21 22  1  0  0  0
 22 23  2  0  0  0
  8 12  1  0  0  0
 12 13  1  0  0  0
 12 14  2  0  0  0
 32 33  1  0  0  0
 33 34  2  0  0  0
 34 29  1  0  0  0
  6  1  1  0  0  0
 11  7  1  0  0  0
 23 18  1  0  0  0
 26 27  1  0  0  0
 13 15  1  0  0  0
 13 16  1  0  0  0
M  END
> <minimizedAffinity>
-7.77124

> <CNNscore>
0.1347159594

> <CNNaffinity>
5.7720060349

> <CNN_VS>
0.7775813341

> <CNNaffinity_variance>
0.2299050838

$$$$
[H]c1c([H])c([H])c(C([H])([H])n2nnc(C(=O)N([H])[H])c2-c2c([H])c([H])c(N([H])C(=O)C([H])([H])c3c([H])c([H])c(OC([H])([H])[H])c([H])c3[H])c([H])c2[H])c([H])c1[H]


 36 39  0  0  0  0  0  0  0  0999 V2000
    3.8196    3.8186   16.6862 C   0  0  0  0  0  0  0  0  0  0  0  0
    4.9262    3.5614   17.4145 C   0  0  0  0  0  0  0  0  0  0  0  0
    5.1294    4.0506   18.7122 C   0  0  0  0  0  0  0  0  0  0  0  0
    4.1604    4.8299   19.2751 C   0  0  0  0  0  0  0  0  0  0  0  0
    2.9878    5.1299   18.5618 C   0  0  0  0  0  0  0  0  0  0  0  0
    2.8547    4.6173   17.2979 C   0  0  0  0  0  0  0  0  0  0  0  0
    4.3421    5.5151   20.5741 C   0  0  0  0  0  0  0  0  0  0  0  0
    4.8158    6.7959   20.7196 C   0  0  0  0  0  0  0  0  0  0  0  0
    5.0954    6.9619   22.0444 N   0  0  0  0  0  0  0  0  0  0  0  0
    4.8034    5.8692   22.6347 N   0  0  0  0  0  0  0  0  0  0  0  0
    4.3277    4.9303   21.7807 N   0  0  0  0  0  0  0  0  0  0  0  0
    4.8755    7.8555   19.7295 C   0  0  0  0  0  0  0  0  0  0  0  0
    3.7739    8.7984   19.6702 N   0  0  0  0  0  0  0  0  0  0  0  0
    5.8096    8.0270   18.9113 O   0  0  0  0  0  0  0  0  0  0  0  0
    3.8899    9.8062   19.8106 H   0  0  0  0  0  0  0  0  0  0  0  0
    2.8409    8.3784   19.4725 H   0  0  0  0  0  0  0  0  0  0  0  0
    3.9024    3.6568   22.2602 C   0  0  0  0  0  0  0  0  0  0  0  0
    4.7874    2.5542   21.8612 C   0  0  0  0  0  0  0  0  0  0  0  0
    4.1699    1.4425   21.2665 C   0  0  0  0  0  0  0  0  0  0  0  0
    4.9394    0.3593   20.9145 C   0  0  0  0  0  0  0  0  0  0  0  0
    6.2919    0.3468   21.1338 C   0  0  0  0  0  0  0  0  0  0  0  0
    6.8771    1.4585   21.7237 C   0  0  0  0  0  0  0  0  0  0  0  0
    6.1414    2.5394   22.0802 C   0  0  0  0  0  0  0  0  0  0  0  0
    2.8118    2.2528   15.0700 C   0  0  0  0  0  0  0  0  0  0  0  0
    2.2864    1.5362   15.9196 O   0  0  0  0  0  0  0  0  0  0  0  0
    3.5756    3.3798   15.3955 N   0  0  0  0  0  0  0  0  0  0  0  0
    3.9969    3.9407   14.5660 H   0  0  0  0  0  0  0  0  0  0  0  0
    2.6400    1.9237   13.6082 C   0  0  0  0  0  0  0  0  0  0  0  0
    1.9881    5.5569   11.4794 C   0  0  0  0  0  0  0  0  0  0  0  0
    3.1473    4.8482   11.3007 C   0  0  0  0  0  0  0  0  0  0  0  0
    3.3550    3.6731   11.9909 C   0  0  0  0  0  0  0  0  0  0  0  0
    2.4052    3.1842   12.8746 C   0  0  0  0  0  0  0  0  0  0  0  0
    1.2309    3.9107   13.0498 C   0  0  0  0  0  0  0  0  0  0  0  0
    1.0317    5.0967   12.3472 C   0  0  0  0  0  0  0  0  0  0  0  0
    2.0672    7.9955   11.3525 C   0  0  0  0  0  0  0  0  0  0  0  0
    1.8128    6.7332   10.7697 O   0  0  0  0  0  0  0  0  0  0  0  0
 35 36  1  0  0  0
 36 29  1  0  0  0
 29 30  2  0  0  0
 30 31  1  0  0  0
 31 32  2  0  0  0
 32 28  1  0  0  0
 28 24  1  0  0  0
 24 25  2  0  0  0
 24 26  1  0  0  0
 26  1  1  0  0  0
  1  2  2  0  0  0
  2  3  1  0  0  0
  3  4  2  0  0  0
  4  5  1  0  0  0
  5  6  2  0  0  0
  4  7  1  0  0  0
  7  8  2  0  0  0
  8  9  1  0  0  0
  9 10  2  0  0  0
 10 11  1  0  0  0
 11 17  1  0  0  0
 17 18  1  0  0  0
 18 19  2  0  0  0
 19 20  1  0  0  0
 20 21  2  0  0  0
 21 22  1  0  0  0
 22 23  2  0  0  0
  8 12  1  0  0  0
 12 13  1  0  0  0
 12 14  2  0  0  0
 32 33  1  0  0  0
 33 34  2  0  0  0
 34 29  1  0  0  0
  6  1  1  0  0  0
 11  7  1  0  0  0
 23 18  1  0  0  0
 26 27  1  0  0  0
 13 15  1  0  0  0
 13 16  1  0  0  0
M  END
> <minimizedAffinity>
-8.30824

> <CNNscore>
0.1305792630

> <CNNaffinity>
5.9883203506

> <CNN_VS>
0.7819504738

> <CNNaffinity_variance>
0.4114920497

$$$$
[H]c1c([H])c([H])c(C([H])([H])n2nnc(C(=O)N([H])[H])c2-c2c([H])c([H])c(N([H])C(=O)C([H])([H])c3c([H])c([H])c(OC([H])([H])[H])c([H])c3[H])c([H])c2[H])c([H])c1[H]


 36 39  0  0  0  0  0  0  0  0999 V2000
    4.8823    4.2218   17.8804 C   0  0  0  0  0  0  0  0  0  0  0  0
    5.9116    5.0689   17.6703 C   0  0  0  0  0  0  0  0  0  0  0  0
    6.2030    6.1551   18.5072 C   0  0  0  0  0  0  0  0  0  0  0  0
    5.4066    6.3735   19.5940 C   0  0  0  0  0  0  0  0  0  0  0  0
    4.3206    5.5230   19.8605 C   0  0  0  0  0  0  0  0  0  0  0  0
    4.0946    4.4798   19.0011 C   0  0  0  0  0  0  0  0  0  0  0  0
    5.5378    7.5728   20.4510 C   0  0  0  0  0  0  0  0  0  0  0  0
    5.1493    8.8382   20.0848 C   0  0  0  0  0  0  0  0  0  0  0  0
    5.6757    9.6923   21.0091 N   0  0  0  0  0  0  0  0  0  0  0  0
    6.3173    8.9871   21.8569 N   0  0  0  0  0  0  0  0  0  0  0  0
    6.2695    7.6630   21.5711 N   0  0  0  0  0  0  0  0  0  0  0  0
    4.2311    9.2327   19.0324 C   0  0  0  0  0  0  0  0  0  0  0  0
    4.7472    9.3425   17.6805 N   0  0  0  0  0  0  0  0  0  0  0  0
    3.0149    9.4898   19.1946 O   0  0  0  0  0  0  0  0  0  0  0  0
    4.3889    8.7894   16.8966 H   0  0  0  0  0  0  0  0  0  0  0  0
    5.5189   10.0314   17.5552 H   0  0  0  0  0  0  0  0  0  0  0  0
    6.8888    6.7085   22.4303 C   0  0  0  0  0  0  0  0  0  0  0  0
    8.3022    6.4637   22.1130 C   0  0  0  0  0  0  0  0  0  0  0  0
    9.0655    5.8355   23.1096 C   0  0  0  0  0  0  0  0  0  0  0  0
   10.4056    5.6220   22.8901 C   0  0  0  0  0  0  0  0  0  0  0  0
   11.0052    6.0105   21.7210 C   0  0  0  0  0  0  0  0  0  0  0  0
   10.2277    6.6300   20.7524 C   0  0  0  0  0  0  0  0  0  0  0  0
    8.9045    6.8524   20.9435 C   0  0  0  0  0  0  0  0  0  0  0  0
    3.3191    3.0227   16.3978 C   0  0  0  0  0  0  0  0  0  0  0  0
    2.4305    3.8699   16.4617 O   0  0  0  0  0  0  0  0  0  0  0  0
    4.5364    3.1478   17.0775 N   0  0  0  0  0  0  0  0  0  0  0  0
    5.2505    2.3385   16.9536 H   0  0  0  0  0  0  0  0  0  0  0  0
    3.1118    1.7875   15.5575 C   0  0  0  0  0  0  0  0  0  0  0  0
    1.9689    3.0293   11.6448 C   0  0  0  0  0  0  0  0  0  0  0  0
    3.1518    3.4568   12.1890 C   0  0  0  0  0  0  0  0  0  0  0  0
    3.5185    3.0530   13.4551 C   0  0  0  0  0  0  0  0  0  0  0  0
    2.7072    2.2127   14.2019 C   0  0  0  0  0  0  0  0  0  0  0  0
    1.5077    1.7837   13.6412 C   0  0  0  0  0  0  0  0  0  0  0  0
    1.1472    2.1979   12.3611 C   0  0  0  0  0  0  0  0  0  0  0  0
    0.4587    3.0035    9.7245 C   0  0  0  0  0  0  0  0  0  0  0  0
    1.6322    3.4545   10.3706 O   0  0  0  0  0  0  0  0  0  0  0  0
 35 36  1  0  0  0
 36 29  1  0  0  0
 29 30  2  0  0  0
 30 31  1  0  0  0
 31 32  2  0  0  0
 32 28  1  0  0  0
 28 24  1  0  0  0
 24 25  2  0  0  0
 24 26  1  0  0  0
 26  1  1  0  0  0
  1  2  2  0  0  0
  2  3  1  0  0  0
  3  4  2  0  0  0
  4  5  1  0  0  0
  5  6  2  0  0  0
  4  7  1  0  0  0
  7  8  2  0  0  0
  8  9  1  0  0  0
  9 10  2  0  0  0
 10 11  1  0  0  0
 11 17  1  0  0  0
 17 18  1  0  0  0
 18 19  2  0  0  0
 19 20  1  0  0  0
 20 21  2  0  0  0
 21 22  1  0  0  0
 22 23  2  0  0  0
  8 12  1  0  0  0
 12 13  1  0  0  0
 12 14  2  0  0  0
 32 33  1  0  0  0
 33 34  2  0  0  0
 34 29  1  0  0  0
  6  1  1  0  0  0
 11  7  1  0  0  0
 23 18  1  0  0  0
 26 27  1  0  0  0
 13 15  1  0  0  0
 13 16  1  0  0  0
M  END
> <minimizedAffinity>
-7.78377

> <CNNscore>
0.1282966733

> <CNNaffinity>
5.6807112694

> <CNN_VS>
0.7288163304

> <CNNaffinity_variance>
0.1308346242

$$$$
[H]c1nc(Cl)c([H])c([H])c1C(=O)N([H])c1c([H])c([H])c2c(c1[H])n([H])c(=O)n2C([H])([H])[H]


 23 25  0  0  0  0  0  0  0  0999 V2000
   -1.4801    2.7222    5.5592 C   0  0  0  0  0  0  0  0  0  0  0  0
   -1.2521    1.8708    6.7083 N   0  0  0  0  0  0  0  0  0  0  0  0
   -0.5106    2.1440    7.8059 C   0  0  0  0  0  0  0  0  0  0  0  0
    0.2286    3.2352    8.1902 C   0  0  0  0  0  0  0  0  0  0  0  0
    0.8978    3.2392    9.3915 C   0  0  0  0  0  0  0  0  0  0  0  0
    0.8616    2.1533   10.2679 C   0  0  0  0  0  0  0  0  0  0  0  0
    0.1231    1.0730    9.8756 C   0  0  0  0  0  0  0  0  0  0  0  0
   -0.5665    1.0588    8.6466 C   0  0  0  0  0  0  0  0  0  0  0  0
   -1.3386    0.1293    8.0630 N   0  0  0  0  0  0  0  0  0  0  0  0
   -1.7477    0.6337    6.8890 C   0  0  0  0  0  0  0  0  0  0  0  0
   -2.4905    0.0641    6.0459 O   0  0  0  0  0  0  0  0  0  0  0  0
   -1.5938   -0.8083    8.4169 H   0  0  0  0  0  0  0  0  0  0  0  0
    1.5595    2.1924   11.4899 N   0  0  0  0  0  0  0  0  0  0  0  0
    1.2871    2.9279   12.6402 C   0  0  0  0  0  0  0  0  0  0  0  0
    0.3216    3.7314   12.8181 O   0  0  0  0  0  0  0  0  0  0  0  0
    2.4266    1.5514   11.5365 H   0  0  0  0  0  0  0  0  0  0  0  0
    2.1700    2.8134   13.8217 C   0  0  0  0  0  0  0  0  0  0  0  0
    3.1047    3.7710   14.1206 C   0  0  0  0  0  0  0  0  0  0  0  0
    3.9469    3.6740   15.2191 C   0  0  0  0  0  0  0  0  0  0  0  0
    3.8373    2.5786   16.0335 C   0  0  0  0  0  0  0  0  0  0  0  0
    4.8518    2.3606   17.4440 Cl  0  0  0  0  0  0  0  0  0  0  0  0
    2.9139    1.6240   15.7462 N   0  0  0  0  0  0  0  0  0  0  0  0
    2.1092    1.7368   14.6791 C   0  0  0  0  0  0  0  0  0  0  0  0
  1  2  1  0  0  0
  2  3  1  0  0  0
  3  4  2  0  0  0
  4  5  1  0  0  0
  5  6  2  0  0  0
  6 13  1  0  0  0
 13 14  1  0  0  0
 14 15  2  0  0  0
 14 17  1  0  0  0
 17 18  2  0  0  0
 18 19  1  0  0  0
 19 20  2  0  0  0
 20 21  1  0  0  0
 20 22  1  0  0  0
 22 23  2  0  0  0
  6  7  1  0  0  0
  7  8  2  0  0  0
  8  9  1  0  0  0
  9 10  1  0  0  0
 10 11  2  0  0  0
 10  2  1  0  0  0
  8  3  1  0  0  0
 23 17  1  0  0  0
 13 16  1  0  0  0
  9 12  1  0  0  0
M  END
> <minimizedAffinity>
-4.00330

> <CNNscore>
0.5015211701

> <CNNaffinity>
4.9857559204

> <CNN_VS>
2.5004620552

> <CNNaffinity_variance>
0.6274631023

$$$$
[H]c1nc(Cl)c([H])c([H])c1C(=O)N([H])c1c([H])c([H])c2c(c1[H])n([H])c(=O)n2C([H])([H])[H]


 23 25  0  0  0  0  0  0  0  0999 V2000
    3.4294   -2.5734    7.9922 C   0  0  0  0  0  0  0  0  0  0  0  0
    4.1459   -1.3191    8.0942 N   0  0  0  0  0  0  0  0  0  0  0  0
    3.8117   -0.2330    8.8275 C   0  0  0  0  0  0  0  0  0  0  0  0
    2.7614    0.0445    9.6671 C   0  0  0  0  0  0  0  0  0  0  0  0
    2.6724    1.2636   10.2970 C   0  0  0  0  0  0  0  0  0  0  0  0
    3.6281    2.2654   10.1194 C   0  0  0  0  0  0  0  0  0  0  0  0
    4.6688    1.9786    9.2821 C   0  0  0  0  0  0  0  0  0  0  0  0
    4.7694    0.7324    8.6317 C   0  0  0  0  0  0  0  0  0  0  0  0
    5.6824    0.2359    7.7827 N   0  0  0  0  0  0  0  0  0  0  0  0
    5.2928   -1.0079    7.4645 C   0  0  0  0  0  0  0  0  0  0  0  0
    5.8868   -1.8050    6.6906 O   0  0  0  0  0  0  0  0  0  0  0  0
    6.5362    0.6919    7.4188 H   0  0  0  0  0  0  0  0  0  0  0  0
    3.5044    3.5021   10.7806 N   0  0  0  0  0  0  0  0  0  0  0  0
    2.4278    4.3843   10.8112 C   0  0  0  0  0  0  0  0  0  0  0  0
    1.3088    4.2387   10.2315 O   0  0  0  0  0  0  0  0  0  0  0  0
    4.3718    3.7995   11.3499 H   0  0  0  0  0  0  0  0  0  0  0  0
    2.5219    5.6450   11.5796 C   0  0  0  0  0  0  0  0  0  0  0  0
    1.9877    6.8178   11.1117 C   0  0  0  0  0  0  0  0  0  0  0  0
    2.0758    8.0106   11.8153 C   0  0  0  0  0  0  0  0  0  0  0  0
    2.7214    8.0123   13.0228 C   0  0  0  0  0  0  0  0  0  0  0  0
    2.8876    9.4633   13.9888 Cl  0  0  0  0  0  0  0  0  0  0  0  0
    3.2541    6.8551   13.4956 N   0  0  0  0  0  0  0  0  0  0  0  0
    3.1581    5.7125   12.7997 C   0  0  0  0  0  0  0  0  0  0  0  0
  1  2  1  0  0  0
  2  3  1  0  0  0
  3  4  2  0  0  0
  4  5  1  0  0  0
  5  6  2  0  0  0
  6 13  1  0  0  0
 13 14  1  0  0  0
 14 15  2  0  0  0
 14 17  1  0  0  0
 17 18  2  0  0  0
 18 19  1  0  0  0
 19 20  2  0  0  0
 20 21  1  0  0  0
 20 22  1  0  0  0
 22 23  2  0  0  0
  6  7  1  0  0  0
  7  8  2  0  0  0
  8  9  1  0  0  0
  9 10  1  0  0  0
 10 11  2  0  0  0
 10  2  1  0  0  0
  8  3  1  0  0  0
 23 17  1  0  0  0
 13 16  1  0  0  0
  9 12  1  0  0  0
M  END
> <minimizedAffinity>
-3.90287

> <CNNscore>
0.4931874573

> <CNNaffinity>
4.5444908142

> <CNN_VS>
2.2412858009

> <CNNaffinity_variance>
0.2872705758

$$$$
[H]c1nc(Cl)c([H])c([H])c1C(=O)N([H])c1c([H])c([H])c2c(c1[H])n([H])c(=O)n2C([H])([H])[H]


 23 25  0  0  0  0  0  0  0  0999 V2000
    2.7567    5.6925   15.3373 C   0  0  0  0  0  0  0  0  0  0  0  0
    3.4380    5.2183   14.1506 N   0  0  0  0  0  0  0  0  0  0  0  0
    3.8077    5.9371   13.0662 C   0  0  0  0  0  0  0  0  0  0  0  0
    3.6797    7.2625   12.7318 C   0  0  0  0  0  0  0  0  0  0  0  0
    4.1607    7.7310   11.5317 C   0  0  0  0  0  0  0  0  0  0  0  0
    4.7932    6.8986   10.6068 C   0  0  0  0  0  0  0  0  0  0  0  0
    4.9153    5.5818   10.9498 C   0  0  0  0  0  0  0  0  0  0  0  0
    4.4258    5.0916   12.1771 C   0  0  0  0  0  0  0  0  0  0  0  0
    4.4321    3.8635   12.7181 N   0  0  0  0  0  0  0  0  0  0  0  0
    3.8304    3.9539   13.9139 C   0  0  0  0  0  0  0  0  0  0  0  0
    3.6395    3.0138   14.7304 O   0  0  0  0  0  0  0  0  0  0  0  0
    4.8166    2.9891   12.3220 H   0  0  0  0  0  0  0  0  0  0  0  0
    5.2733    7.4130    9.3875 N   0  0  0  0  0  0  0  0  0  0  0  0
    4.8085    7.1972    8.0930 C   0  0  0  0  0  0  0  0  0  0  0  0
    3.8258    6.4725    7.7489 O   0  0  0  0  0  0  0  0  0  0  0  0
    6.1208    8.0752    9.4781 H   0  0  0  0  0  0  0  0  0  0  0  0
    5.4781    7.8476    6.9452 C   0  0  0  0  0  0  0  0  0  0  0  0
    5.5415    9.2118    6.8241 C   0  0  0  0  0  0  0  0  0  0  0  0
    6.1571    9.8374    5.7492 C   0  0  0  0  0  0  0  0  0  0  0  0
    6.7217    9.0591    4.7744 C   0  0  0  0  0  0  0  0  0  0  0  0
    7.5219    9.7490    3.3779 Cl  0  0  0  0  0  0  0  0  0  0  0  0
    6.6645    7.7060    4.8851 N   0  0  0  0  0  0  0  0  0  0  0  0
    6.0645    7.1209    5.9323 C   0  0  0  0  0  0  0  0  0  0  0  0
  1  2  1  0  0  0
  2  3  1  0  0  0
  3  4  2  0  0  0
  4  5  1  0  0  0
  5  6  2  0  0  0
  6 13  1  0  0  0
 13 14  1  0  0  0
 14 15  2  0  0  0
 14 17  1  0  0  0
 17 18  2  0  0  0
 18 19  1  0  0  0
 19 20  2  0  0  0
 20 21  1  0  0  0
 20 22  1  0  0  0
 22 23  2  0  0  0
  6  7  1  0  0  0
  7  8  2  0  0  0
  8  9  1  0  0  0
  9 10  1  0  0  0
 10 11  2  0  0  0
 10  2  1  0  0  0
  8  3  1  0  0  0
 23 17  1  0  0  0
 13 16  1  0  0  0
  9 12  1  0  0  0
M  END
> <minimizedAffinity>
-4.72365

> <CNNscore>
0.4037913978

> <CNNaffinity>
4.6576066017

> <CNN_VS>
1.8807014227

> <CNNaffinity_variance>
0.4927665591

$$$$
[H]c1nc(Cl)c([H])c([H])c1C(=O)N([H])c1c([H])c([H])c2c(c1[H])n([H])c(=O)n2C([H])([H])[H]


 23 25  0  0  0  0  0  0  0  0999 V2000
    3.7093    0.0461    4.9431 C   0  0  0  0  0  0  0  0  0  0  0  0
    3.2889    1.1858    5.7316 N   0  0  0  0  0  0  0  0  0  0  0  0
    3.3617    1.3350    7.0739 C   0  0  0  0  0  0  0  0  0  0  0  0
    3.8222    0.5265    8.0835 C   0  0  0  0  0  0  0  0  0  0  0  0
    3.7732    0.9450    9.3925 C   0  0  0  0  0  0  0  0  0  0  0  0
    3.2618    2.1915    9.7573 C   0  0  0  0  0  0  0  0  0  0  0  0
    2.8066    2.9878    8.7448 C   0  0  0  0  0  0  0  0  0  0  0  0
    2.8523    2.5685    7.4001 C   0  0  0  0  0  0  0  0  0  0  0  0
    2.4710    3.1672    6.2613 N   0  0  0  0  0  0  0  0  0  0  0  0
    2.7409    2.3187    5.2576 C   0  0  0  0  0  0  0  0  0  0  0  0
    2.5277    2.5152    4.0316 O   0  0  0  0  0  0  0  0  0  0  0  0
    2.0465    4.1021    6.1380 H   0  0  0  0  0  0  0  0  0  0  0  0
    3.2271    2.5868   11.1080 N   0  0  0  0  0  0  0  0  0  0  0  0
    2.2903    2.2863   12.0931 C   0  0  0  0  0  0  0  0  0  0  0  0
    1.2514    1.5702   11.9613 O   0  0  0  0  0  0  0  0  0  0  0  0
    4.0535    3.2073   11.4193 H   0  0  0  0  0  0  0  0  0  0  0  0
    2.4552    2.8203   13.4629 C   0  0  0  0  0  0  0  0  0  0  0  0
    2.9273    2.0433   14.4891 C   0  0  0  0  0  0  0  0  0  0  0  0
    3.0787    2.5259   15.7814 C   0  0  0  0  0  0  0  0  0  0  0  0
    2.7429    3.8284   16.0373 C   0  0  0  0  0  0  0  0  0  0  0  0
    2.8963    4.5343   17.6325 Cl  0  0  0  0  0  0  0  0  0  0  0  0
    2.2744    4.6070   15.0270 N   0  0  0  0  0  0  0  0  0  0  0  0
    2.1353    4.1211   13.7846 C   0  0  0  0  0  0  0  0  0  0  0  0
  1  2  1  0  0  0
  2  3  1  0  0  0
  3  4  2  0  0  0
  4  5  1  0  0  0
  5  6  2  0  0  0
  6 13  1  0  0  0
 13 14  1  0  0  0
 14 15  2  0  0  0
 14 17  1  0  0  0
 17 18  2  0  0  0
 18 19  1  0  0  0
 19 20  2  0  0  0
 20 21  1  0  0  0
 20 22  1  0  0  0
 22 23  2  0  0  0
  6  7  1  0  0  0
  7  8  2  0  0  0
  8  9  1  0  0  0
  9 10  1  0  0  0
 10 11  2  0  0  0
 10  2  1  0  0  0
  8  3  1  0  0  0
 23 17  1  0  0  0
 13 16  1  0  0  0
  9 12  1  0  0  0
M  END
> <minimizedAffinity>
-3.70875

> <CNNscore>
0.4001696110

> <CNNaffinity>
4.8097553253

> <CNN_VS>
1.9247179031

> <CNNaffinity_variance>
0.6773952842

$$$$
[H]c1nc(Cl)c([H])c([H])c1C(=O)N([H])c1c([H])c([H])c2c(c1[H])n([H])c(=O)n2C([H])([H])[H]


 23 25  0  0  0  0  0  0  0  0999 V2000
   -0.3556    4.7057    7.4344 C   0  0  0  0  0  0  0  0  0  0  0  0
   -0.6591    4.4952    8.8347 N   0  0  0  0  0  0  0  0  0  0  0  0
    0.0697    4.8823    9.9062 C   0  0  0  0  0  0  0  0  0  0  0  0
    1.2583    5.5568   10.0375 C   0  0  0  0  0  0  0  0  0  0  0  0
    1.7792    5.8208   11.2825 C   0  0  0  0  0  0  0  0  0  0  0  0
    1.1385    5.4239   12.4574 C   0  0  0  0  0  0  0  0  0  0  0  0
   -0.0433    4.7536   12.3151 C   0  0  0  0  0  0  0  0  0  0  0  0
   -0.5859    4.4781   11.0439 C   0  0  0  0  0  0  0  0  0  0  0  0
   -1.7087    3.8477   10.6663 N   0  0  0  0  0  0  0  0  0  0  0  0
   -1.7412    3.8649    9.3251 C   0  0  0  0  0  0  0  0  0  0  0  0
   -2.6383    3.3728    8.5902 O   0  0  0  0  0  0  0  0  0  0  0  0
   -2.4354    3.4173   11.2629 H   0  0  0  0  0  0  0  0  0  0  0  0
    1.7015    5.7113   13.7153 N   0  0  0  0  0  0  0  0  0  0  0  0
    2.1574    4.8387   14.6998 C   0  0  0  0  0  0  0  0  0  0  0  0
    2.1572    3.5711   14.6516 O   0  0  0  0  0  0  0  0  0  0  0  0
    1.7963    6.7629   13.9391 H   0  0  0  0  0  0  0  0  0  0  0  0
    2.7158    5.3699   15.9627 C   0  0  0  0  0  0  0  0  0  0  0  0
    2.3908    4.8292   17.1800 C   0  0  0  0  0  0  0  0  0  0  0  0
    2.8979    5.3215   18.3742 C   0  0  0  0  0  0  0  0  0  0  0  0
    3.7554    6.3881   18.3310 C   0  0  0  0  0  0  0  0  0  0  0  0
    4.4505    7.0844   19.7796 Cl  0  0  0  0  0  0  0  0  0  0  0  0
    4.0842    6.9311   17.1295 N   0  0  0  0  0  0  0  0  0  0  0  0
    3.5827    6.4402   15.9864 C   0  0  0  0  0  0  0  0  0  0  0  0
  1  2  1  0  0  0
  2  3  1  0  0  0
  3  4  2  0  0  0
  4  5  1  0  0  0
  5  6  2  0  0  0
  6 13  1  0  0  0
 13 14  1  0  0  0
 14 15  2  0  0  0
 14 17  1  0  0  0
 17 18  2  0  0  0
 18 19  1  0  0  0
 19 20  2  0  0  0
 20 21  1  0  0  0
 20 22  1  0  0  0
 22 23  2  0  0  0
  6  7  1  0  0  0
  7  8  2  0  0  0
  8  9  1  0  0  0
  9 10  1  0  0  0
 10 11  2  0  0  0
 10  2  1  0  0  0
  8  3  1  0  0  0
 23 17  1  0  0  0
 13 16  1  0  0  0
  9 12  1  0  0  0
M  END
> <minimizedAffinity>
-4.62901

> <CNNscore>
0.3978160620

> <CNNaffinity>
4.8941183090

> <CNN_VS>
1.9469588995

> <CNNaffinity_variance>
1.1833007336

$$$$
[H]c1nc(Cl)c([H])c([H])c1C(=O)N([H])c1c([H])c([H])c2c(c1[H])n([H])c(=O)n2C([H])([H])[H]


 23 25  0  0  0  0  0  0  0  0999 V2000
    1.4436    1.4249    6.1248 C   0  0  0  0  0  0  0  0  0  0  0  0
    1.2500    2.2290    7.3136 N   0  0  0  0  0  0  0  0  0  0  0  0
    1.7723    2.0249    8.5443 C   0  0  0  0  0  0  0  0  0  0  0  0
    2.6034    1.0627    9.0623 C   0  0  0  0  0  0  0  0  0  0  0  0
    2.9831    1.1035   10.3834 C   0  0  0  0  0  0  0  0  0  0  0  0
    2.5512    2.1073   11.2518 C   0  0  0  0  0  0  0  0  0  0  0  0
    1.7247    3.0595   10.7260 C   0  0  0  0  0  0  0  0  0  0  0  0
    1.3297    3.0269    9.3735 C   0  0  0  0  0  0  0  0  0  0  0  0
    0.5413    3.8371    8.6504 N   0  0  0  0  0  0  0  0  0  0  0  0
    0.5012    3.3425    7.4039 C   0  0  0  0  0  0  0  0  0  0  0  0
   -0.1342    3.8212    6.4272 O   0  0  0  0  0  0  0  0  0  0  0  0
    0.0420    4.6891    8.9574 H   0  0  0  0  0  0  0  0  0  0  0  0
    2.9601    2.1172   12.5989 N   0  0  0  0  0  0  0  0  0  0  0  0
    2.2044    1.9312   13.7534 C   0  0  0  0  0  0  0  0  0  0  0  0
    0.9577    1.7057   13.8180 O   0  0  0  0  0  0  0  0  0  0  0  0
    4.0150    2.2876   12.7504 H   0  0  0  0  0  0  0  0  0  0  0  0
    2.8521    1.9872   15.0823 C   0  0  0  0  0  0  0  0  0  0  0  0
    3.7731    2.9530   15.3970 C   0  0  0  0  0  0  0  0  0  0  0  0
    4.3968    3.0137   16.6350 C   0  0  0  0  0  0  0  0  0  0  0  0
    4.0776    2.0714   17.5758 C   0  0  0  0  0  0  0  0  0  0  0  0
    4.8072    2.0592   19.1677 Cl  0  0  0  0  0  0  0  0  0  0  0  0
    3.1658    1.1101   17.2741 N   0  0  0  0  0  0  0  0  0  0  0  0
    2.5743    1.0690   16.0710 C   0  0  0  0  0  0  0  0  0  0  0  0
  1  2  1  0  0  0
  2  3  1  0  0  0
  3  4  2  0  0  0
  4  5  1  0  0  0
  5  6  2  0  0  0
  6 13  1  0  0  0
 13 14  1  0  0  0
 14 15  2  0  0  0
 14 17  1  0  0  0
 17 18  2  0  0  0
 18 19  1  0  0  0
 19 20  2  0  0  0
 20 21  1  0  0  0
 20 22  1  0  0  0
 22 23  2  0  0  0
  6  7  1  0  0  0
  7  8  2  0  0  0
  8  9  1  0  0  0
  9 10  1  0  0  0
 10 11  2  0  0  0
 10  2  1  0  0  0
  8  3  1  0  0  0
 23 17  1  0  0  0
 13 16  1  0  0  0
  9 12  1  0  0  0
M  END
> <minimizedAffinity>
-4.74828

> <CNNscore>
0.3957982361

> <CNNaffinity>
5.1108994484

> <CNN_VS>
2.0228850842

> <CNNaffinity_variance>
0.3983830810

$$$$
[H]c1nc(Cl)c([H])c([H])c1C(=O)N([H])c1c([H])c([H])c2c(c1[H])n([H])c(=O)n2C([H])([H])[H]


 23 25  0  0  0  0  0  0  0  0999 V2000
    4.0362    6.8676   16.2353 C   0  0  0  0  0  0  0  0  0  0  0  0
    3.3178    6.4463   15.0506 N   0  0  0  0  0  0  0  0  0  0  0  0
    3.5692    6.7869   13.7660 C   0  0  0  0  0  0  0  0  0  0  0  0
    4.5165    7.5868   13.1763 C   0  0  0  0  0  0  0  0  0  0  0  0
    4.5370    7.7576   11.8120 C   0  0  0  0  0  0  0  0  0  0  0  0
    3.6123    7.1379   10.9698 C   0  0  0  0  0  0  0  0  0  0  0  0
    2.6743    6.3443   11.5670 C   0  0  0  0  0  0  0  0  0  0  0  0
    2.6446    6.1625   12.9643 C   0  0  0  0  0  0  0  0  0  0  0  0
    1.8340    5.4453   13.7576 N   0  0  0  0  0  0  0  0  0  0  0  0
    2.2527    5.6259   15.0194 C   0  0  0  0  0  0  0  0  0  0  0  0
    1.7491    5.1183   16.0566 O   0  0  0  0  0  0  0  0  0  0  0  0
    1.0299    4.8538   13.4877 H   0  0  0  0  0  0  0  0  0  0  0  0
    3.6633    7.3359    9.5769 N   0  0  0  0  0  0  0  0  0  0  0  0
    2.9013    8.1822    8.7759 C   0  0  0  0  0  0  0  0  0  0  0  0
    1.9830    8.9690    9.1592 O   0  0  0  0  0  0  0  0  0  0  0  0
    4.4083    6.7477    9.0632 H   0  0  0  0  0  0  0  0  0  0  0  0
    3.1279    8.2254    7.3146 C   0  0  0  0  0  0  0  0  0  0  0  0
    4.3202    8.6414    6.7805 C   0  0  0  0  0  0  0  0  0  0  0  0
    4.5457    8.6970    5.4124 C   0  0  0  0  0  0  0  0  0  0  0  0
    3.5365    8.3212    4.5668 C   0  0  0  0  0  0  0  0  0  0  0  0
    3.7186    8.3546    2.8254 Cl  0  0  0  0  0  0  0  0  0  0  0  0
    2.3510    7.9070    5.0860 N   0  0  0  0  0  0  0  0  0  0  0  0
    2.1534    7.8606    6.4118 C   0  0  0  0  0  0  0  0  0  0  0  0
  1  2  1  0  0  0
  2  3  1  0  0  0
  3  4  2  0  0  0
  4  5  1  0  0  0
  5  6  2  0  0  0
  6 13  1  0  0  0
 13 14  1  0  0  0
 14 15  2  0  0  0
 14 17  1  0  0  0
 17 18  2  0  0  0
 18 19  1  0  0  0
 19 20  2  0  0  0
 20 21  1  0  0  0
 20 22  1  0  0  0
 22 23  2  0  0  0
  6  7  1  0  0  0
  7  8  2  0  0  0
  8  9  1  0  0  0
  9 10  1  0  0  0
 10 11  2  0  0  0
 10  2  1  0  0  0
  8  3  1  0  0  0
 23 17  1  0  0  0
 13 16  1  0  0  0
  9 12  1  0  0  0
M  END
> <minimizedAffinity>
-4.66090

> <CNNscore>
0.3182984591

> <CNNaffinity>
4.6811094284

> <CNN_VS>
1.4899898767

> <CNNaffinity_variance>
1.1955624819

$$$$
[H]c1nc(Cl)c([H])c([H])c1C(=O)N([H])c1c([H])c([H])c2c(c1[H])n([H])c(=O)n2C([H])([H])[H]


 23 25  0  0  0  0  0  0  0  0999 V2000
   -2.2733   -2.3047    5.6413 C   0  0  0  0  0  0  0  0  0  0  0  0
   -1.2143   -2.3223    6.6290 N   0  0  0  0  0  0  0  0  0  0  0  0
   -0.9845   -1.4216    7.6114 C   0  0  0  0  0  0  0  0  0  0  0  0
   -1.6205   -0.2656    7.9911 C   0  0  0  0  0  0  0  0  0  0  0  0
   -1.1568    0.4709    9.0557 C   0  0  0  0  0  0  0  0  0  0  0  0
   -0.0349    0.0890    9.7933 C   0  0  0  0  0  0  0  0  0  0  0  0
    0.5901   -1.0627    9.4070 C   0  0  0  0  0  0  0  0  0  0  0  0
    0.1229   -1.8248    8.3174 C   0  0  0  0  0  0  0  0  0  0  0  0
    0.5652   -2.9660    7.7669 N   0  0  0  0  0  0  0  0  0  0  0  0
   -0.2538   -3.2565    6.7446 C   0  0  0  0  0  0  0  0  0  0  0  0
   -0.1713   -4.2521    5.9772 O   0  0  0  0  0  0  0  0  0  0  0  0
    1.3774   -3.5416    8.0468 H   0  0  0  0  0  0  0  0  0  0  0  0
    0.4117    0.8680   10.8775 N   0  0  0  0  0  0  0  0  0  0  0  0
    1.4116    1.8360   10.9178 C   0  0  0  0  0  0  0  0  0  0  0  0
    2.1377    2.2197    9.9509 O   0  0  0  0  0  0  0  0  0  0  0  0
   -0.1054    0.6878   11.8076 H   0  0  0  0  0  0  0  0  0  0  0  0
    1.7177    2.5357   12.1848 C   0  0  0  0  0  0  0  0  0  0  0  0
    2.5881    2.0134   13.1065 C   0  0  0  0  0  0  0  0  0  0  0  0
    2.8785    2.6520   14.3037 C   0  0  0  0  0  0  0  0  0  0  0  0
    2.2707    3.8495   14.5712 C   0  0  0  0  0  0  0  0  0  0  0  0
    2.5684    4.7356   16.0519 Cl  0  0  0  0  0  0  0  0  0  0  0  0
    1.4066    4.3759   13.6641 N   0  0  0  0  0  0  0  0  0  0  0  0
    1.1394    3.7424   12.5125 C   0  0  0  0  0  0  0  0  0  0  0  0
  1  2  1  0  0  0
  2  3  1  0  0  0
  3  4  2  0  0  0
  4  5  1  0  0  0
  5  6  2  0  0  0
  6 13  1  0  0  0
 13 14  1  0  0  0
 14 15  2  0  0  0
 14 17  1  0  0  0
 17 18  2  0  0  0
 18 19  1  0  0  0
 19 20  2  0  0  0
 20 21  1  0  0  0
 20 22  1  0  0  0
 22 23  2  0  0  0
  6  7  1  0  0  0
  7  8  2  0  0  0
  8  9  1  0  0  0
  9 10  1  0  0  0
 10 11  2  0  0  0
 10  2  1  0  0  0
  8  3  1  0  0  0
 23 17  1  0  0  0
 13 16  1  0  0  0
  9 12  1  0  0  0
M  END
> <minimizedAffinity>
-4.00586

> <CNNscore>
0.3040572107

> <CNNaffinity>
4.4267582893

> <CNN_VS>
1.3459877968

> <CNNaffinity_variance>
0.2566588819

$$$$
[H]c1nc(Cl)c([H])c([H])c1C(=O)N([H])c1c([H])c([H])c2c(c1[H])n([H])c(=O)n2C([H])([H])[H]


 23 25  0  0  0  0  0  0  0  0999 V2000
    1.7659   -3.5621    7.0543 C   0  0  0  0  0  0  0  0  0  0  0  0
    2.7899   -2.8063    7.7451 N   0  0  0  0  0  0  0  0  0  0  0  0
    2.6331   -1.6843    8.4838 C   0  0  0  0  0  0  0  0  0  0  0  0
    1.5381   -0.9251    8.8149 C   0  0  0  0  0  0  0  0  0  0  0  0
    1.6747    0.1942    9.6020 C   0  0  0  0  0  0  0  0  0  0  0  0
    2.9117    0.6101   10.0971 C   0  0  0  0  0  0  0  0  0  0  0  0
    3.9944   -0.1526    9.7617 C   0  0  0  0  0  0  0  0  0  0  0  0
    3.8653   -1.3015    8.9557 C   0  0  0  0  0  0  0  0  0  0  0  0
    4.7680   -2.1866    8.5059 N   0  0  0  0  0  0  0  0  0  0  0  0
    4.1035   -3.0934    7.7736 C   0  0  0  0  0  0  0  0  0  0  0  0
    4.5998   -4.0875    7.1801 O   0  0  0  0  0  0  0  0  0  0  0  0
    5.7890   -2.2024    8.6696 H   0  0  0  0  0  0  0  0  0  0  0  0
    3.0140    1.7618   10.9002 N   0  0  0  0  0  0  0  0  0  0  0  0
    3.2241    3.0857   10.5242 C   0  0  0  0  0  0  0  0  0  0  0  0
    3.3660    3.5275    9.3436 O   0  0  0  0  0  0  0  0  0  0  0  0
    2.9063    1.5857   11.9596 H   0  0  0  0  0  0  0  0  0  0  0  0
    3.3011    4.1468   11.5524 C   0  0  0  0  0  0  0  0  0  0  0  0
    3.5440    3.8589   12.8707 C   0  0  0  0  0  0  0  0  0  0  0  0
    3.6096    4.8411   13.8488 C   0  0  0  0  0  0  0  0  0  0  0  0
    3.4242    6.1464   13.4792 C   0  0  0  0  0  0  0  0  0  0  0  0
    3.4870    7.4603   14.6352 Cl  0  0  0  0  0  0  0  0  0  0  0  0
    3.1832    6.4424   12.1751 N   0  0  0  0  0  0  0  0  0  0  0  0
    3.1236    5.4778   11.2450 C   0  0  0  0  0  0  0  0  0  0  0  0
  1  2  1  0  0  0
  2  3  1  0  0  0
  3  4  2  0  0  0
  4  5  1  0  0  0
  5  6  2  0  0  0
  6 13  1  0  0  0
 13 14  1  0  0  0
 14 15  2  0  0  0
 14 17  1  0  0  0
 17 18  2  0  0  0
 18 19  1  0  0  0
 19 20  2  0  0  0
 20 21  1  0  0  0
 20 22  1  0  0  0
 22 23  2  0  0  0
  6  7  1  0  0  0
  7  8  2  0  0  0
  8  9  1  0  0  0
  9 10  1  0  0  0
 10 11  2  0  0  0
 10  2  1  0  0  0
  8  3  1  0  0  0
 23 17  1  0  0  0
 13 16  1  0  0  0
  9 12  1  0  0  0
M  END
> <minimizedAffinity>
-3.96296

> <CNNscore>
0.3013683558

> <CNNaffinity>
4.5596766472

> <CNN_VS>
1.3741422892

> <CNNaffinity_variance>
0.5878834724

$$$$
[H]c1nc(N([H])c2c([H])c([H])c(N3C([H])([H])C([H])([H])N([H])C([H])([H])C3([H])[H])c([H])c2OC([H])([H])[H])nc(N([H])c2c([H])c([H])c([H])c3c2c([H])nn3[H])c1Cl


 36 40  0  0  0  0  0  0  0  0999 V2000
    3.3144    0.7083   17.0085 C   0  0  0  0  0  0  0  0  0  0  0  0
    2.4088   -0.1342   17.4516 N   0  0  0  0  0  0  0  0  0  0  0  0
    2.2111   -0.4070   18.7550 C   0  0  0  0  0  0  0  0  0  0  0  0
    2.9767    0.2077   19.7055 C   0  0  0  0  0  0  0  0  0  0  0  0
    2.7902   -0.0850   21.4169 Cl  0  0  0  0  0  0  0  0  0  0  0  0
    3.9578    1.1163   19.2812 C   0  0  0  0  0  0  0  0  0  0  0  0
    4.0652    1.3079   17.9824 N   0  0  0  0  0  0  0  0  0  0  0  0
    3.5836    1.0465   15.6759 N   0  0  0  0  0  0  0  0  0  0  0  0
    4.4194    0.5629   15.1925 H   0  0  0  0  0  0  0  0  0  0  0  0
    3.2439    3.3170   14.9528 C   0  0  0  0  0  0  0  0  0  0  0  0
    2.6393    4.3086   14.2360 C   0  0  0  0  0  0  0  0  0  0  0  0
    1.6025    3.9786   13.3877 C   0  0  0  0  0  0  0  0  0  0  0  0
    1.1982    2.6729   13.2778 C   0  0  0  0  0  0  0  0  0  0  0  0
    1.8368    1.6837   14.0240 C   0  0  0  0  0  0  0  0  0  0  0  0
    2.8684    1.9697   14.8760 C   0  0  0  0  0  0  0  0  0  0  0  0
    0.9644    5.0166   12.6263 N   0  0  0  0  0  0  0  0  0  0  0  0
    1.1071    6.3703   13.0824 C   0  0  0  0  0  0  0  0  0  0  0  0
    0.8161    7.4074   12.0513 C   0  0  0  0  0  0  0  0  0  0  0  0
   -0.2986    7.1501   11.2010 N   0  0  0  0  0  0  0  0  0  0  0  0
   -0.8516    5.8358   11.2723 C   0  0  0  0  0  0  0  0  0  0  0  0
    0.1955    4.7542   11.4441 C   0  0  0  0  0  0  0  0  0  0  0  0
   -0.1592    7.4897   10.2183 H   0  0  0  0  0  0  0  0  0  0  0  0
    4.4130    5.0385   16.2522 C   0  0  0  0  0  0  0  0  0  0  0  0
    4.2943    3.7116   15.8009 O   0  0  0  0  0  0  0  0  0  0  0  0
    4.7739    1.7768   20.1996 N   0  0  0  0  0  0  0  0  0  0  0  0
    5.4311    1.1160   20.7441 H   0  0  0  0  0  0  0  0  0  0  0  0
    4.8860    3.1324   20.5326 C   0  0  0  0  0  0  0  0  0  0  0  0
    5.2744    4.1416   19.6824 C   0  0  0  0  0  0  0  0  0  0  0  0
    5.3653    5.4806   20.0810 C   0  0  0  0  0  0  0  0  0  0  0  0
    5.0579    5.8185   21.3693 C   0  0  0  0  0  0  0  0  0  0  0  0
    4.6631    4.8412   22.2595 C   0  0  0  0  0  0  0  0  0  0  0  0
    4.3034    4.8781   23.5726 N   0  0  0  0  0  0  0  0  0  0  0  0
    4.0147    3.6575   23.9494 N   0  0  0  0  0  0  0  0  0  0  0  0
    4.1677    2.7942   22.9320 C   0  0  0  0  0  0  0  0  0  0  0  0
    4.5828    3.5421   21.8447 C   0  0  0  0  0  0  0  0  0  0  0  0
    4.2794    5.7489   24.1307 H   0  0  0  0  0  0  0  0  0  0  0  0
 23 24  1  0  0  0
 24 10  1  0  0  0
 10 11  2  0  0  0
 11 12  1  0  0  0
 12 13  2  0  0  0
 13 14  1  0  0  0
 14 15  2  0  0  0
 15  8  1  0  0  0
  8  1  1  0  0  0
  1  2  2  0  0  0
  2  3  1  0  0  0
  3  4  2  0  0  0
  4  5  1  0  0  0
  4  6  1  0  0  0
  6 25  1  0  0  0
 25 27  1  0  0  0
 27 28  2  0  0  0
 28 29  1  0  0  0
 29 30  2  0  0  0
 30 31  1  0  0  0
 31 32  1  0  0  0
 32 33  1  0  0  0
 33 34  2  0  0  0
 34 35  1  0  0  0
  6  7  2  0  0  0
 12 16  1  0  0  0
 16 17  1  0  0  0
 17 18  1  0  0  0
 18 19  1  0  0  0
 19 20  1  0  0  0
 20 21  1  0  0  0
 15 10  1  0  0  0
  7  1  1  0  0  0
 21 16  1  0  0  0
 35 27  1  0  0  0
 35 31  2  0  0  0
  8  9  1  0  0  0
 25 26  1  0  0  0
 32 36  1  0  0  0
 19 22  1  0  0  0
M  END
> <minimizedAffinity>
-8.61968

> <CNNscore>
0.9381434321

> <CNNaffinity>
7.7105436325

> <CNN_VS>
7.2335958481

> <CNNaffinity_variance>
0.0719540268

$$$$
[H]c1nc(N([H])c2c([H])c([H])c(N3C([H])([H])C([H])([H])N([H])C([H])([H])C3([H])[H])c([H])c2OC([H])([H])[H])nc(N([H])c2c([H])c([H])c([H])c3c2c([H])nn3[H])c1Cl


 36 40  0  0  0  0  0  0  0  0999 V2000
    3.0531    0.9161   17.1801 C   0  0  0  0  0  0  0  0  0  0  0  0
    2.2822   -0.0736   17.5706 N   0  0  0  0  0  0  0  0  0  0  0  0
    2.2685   -0.5650   18.8239 C   0  0  0  0  0  0  0  0  0  0  0  0
    3.0900   -0.0307   19.7763 C   0  0  0  0  0  0  0  0  0  0  0  0
    3.1387   -0.6042   21.4251 Cl  0  0  0  0  0  0  0  0  0  0  0  0
    3.9322    1.0287   19.4072 C   0  0  0  0  0  0  0  0  0  0  0  0
    3.8640    1.4304   18.1546 N   0  0  0  0  0  0  0  0  0  0  0  0
    3.1285    1.4837   15.9015 N   0  0  0  0  0  0  0  0  0  0  0  0
    3.0447    0.8231   15.0514 H   0  0  0  0  0  0  0  0  0  0  0  0
    2.4896    3.4015   14.5948 C   0  0  0  0  0  0  0  0  0  0  0  0
    2.5560    4.7065   14.2008 C   0  0  0  0  0  0  0  0  0  0  0  0
    3.4713    5.5395   14.8104 C   0  0  0  0  0  0  0  0  0  0  0  0
    4.2928    5.0500   15.7931 C   0  0  0  0  0  0  0  0  0  0  0  0
    4.1998    3.7119   16.1725 C   0  0  0  0  0  0  0  0  0  0  0  0
    3.3058    2.8537   15.5928 C   0  0  0  0  0  0  0  0  0  0  0  0
    3.5436    6.9158   14.4041 N   0  0  0  0  0  0  0  0  0  0  0  0
    4.4684    7.7725   15.0910 C   0  0  0  0  0  0  0  0  0  0  0  0
    4.8127    9.0267   14.3618 C   0  0  0  0  0  0  0  0  0  0  0  0
    3.7355    9.6795   13.6946 N   0  0  0  0  0  0  0  0  0  0  0  0
    2.5177    8.9406   13.5980 C   0  0  0  0  0  0  0  0  0  0  0  0
    2.7331    7.4608   13.3536 C   0  0  0  0  0  0  0  0  0  0  0  0
    4.0189   10.1334   12.7924 H   0  0  0  0  0  0  0  0  0  0  0  0
    0.9283    3.0158   12.7422 C   0  0  0  0  0  0  0  0  0  0  0  0
    1.5384    2.5992   13.9392 O   0  0  0  0  0  0  0  0  0  0  0  0
    4.7959    1.6182   20.3304 N   0  0  0  0  0  0  0  0  0  0  0  0
    5.8273    1.3274   20.2013 H   0  0  0  0  0  0  0  0  0  0  0  0
    4.5582    2.5110   21.3828 C   0  0  0  0  0  0  0  0  0  0  0  0
    4.6028    2.2065   22.7235 C   0  0  0  0  0  0  0  0  0  0  0  0
    4.3544    3.1500   23.7276 C   0  0  0  0  0  0  0  0  0  0  0  0
    4.0524    4.4366   23.3782 C   0  0  0  0  0  0  0  0  0  0  0  0
    3.9956    4.7905   22.0459 C   0  0  0  0  0  0  0  0  0  0  0  0
    3.7265    5.9659   21.4126 N   0  0  0  0  0  0  0  0  0  0  0  0
    3.8038    5.7591   20.1218 N   0  0  0  0  0  0  0  0  0  0  0  0
    4.1171    4.4796   19.8604 C   0  0  0  0  0  0  0  0  0  0  0  0
    4.2423    3.8502   21.0860 C   0  0  0  0  0  0  0  0  0  0  0  0
    3.5047    6.8433   21.9139 H   0  0  0  0  0  0  0  0  0  0  0  0
 23 24  1  0  0  0
 24 10  1  0  0  0
 10 11  2  0  0  0
 11 12  1  0  0  0
 12 13  2  0  0  0
 13 14  1  0  0  0
 14 15  2  0  0  0
 15  8  1  0  0  0
  8  1  1  0  0  0
  1  2  2  0  0  0
  2  3  1  0  0  0
  3  4  2  0  0  0
  4  5  1  0  0  0
  4  6  1  0  0  0
  6 25  1  0  0  0
 25 27  1  0  0  0
 27 28  2  0  0  0
 28 29  1  0  0  0
 29 30  2  0  0  0
 30 31  1  0  0  0
 31 32  1  0  0  0
 32 33  1  0  0  0
 33 34  2  0  0  0
 34 35  1  0  0  0
  6  7  2  0  0  0
 12 16  1  0  0  0
 16 17  1  0  0  0
 17 18  1  0  0  0
 18 19  1  0  0  0
 19 20  1  0  0  0
 20 21  1  0  0  0
 15 10  1  0  0  0
  7  1  1  0  0  0
 21 16  1  0  0  0
 35 27  1  0  0  0
 35 31  2  0  0  0
  8  9  1  0  0  0
 25 26  1  0  0  0
 32 36  1  0  0  0
 19 22  1  0  0  0
M  END
> <minimizedAffinity>
-9.35999

> <CNNscore>
0.8828871846

> <CNNaffinity>
7.7453117371

> <CNN_VS>
6.8382363319

> <CNNaffinity_variance>
0.0759252757

$$$$
[H]c1nc(N([H])c2c([H])c([H])c(N3C([H])([H])C([H])([H])N([H])C([H])([H])C3([H])[H])c([H])c2OC([H])([H])[H])nc(N([H])c2c([H])c([H])c([H])c3c2c([H])nn3[H])c1Cl


 36 40  0  0  0  0  0  0  0  0999 V2000
    3.5754    1.5257   16.9295 C   0  0  0  0  0  0  0  0  0  0  0  0
    2.7568    0.5174   17.1285 N   0  0  0  0  0  0  0  0  0  0  0  0
    2.5988   -0.0984   18.3153 C   0  0  0  0  0  0  0  0  0  0  0  0
    3.3134    0.3197   19.4025 C   0  0  0  0  0  0  0  0  0  0  0  0
    3.1724   -0.4190   20.9785 Cl  0  0  0  0  0  0  0  0  0  0  0  0
    4.2010    1.3938   19.2397 C   0  0  0  0  0  0  0  0  0  0  0  0
    4.2767    1.9219   18.0354 N   0  0  0  0  0  0  0  0  0  0  0  0
    3.7982    2.2185   15.7325 N   0  0  0  0  0  0  0  0  0  0  0  0
    4.8137    2.4972   15.4934 H   0  0  0  0  0  0  0  0  0  0  0  0
    2.4519    3.9525   14.7454 C   0  0  0  0  0  0  0  0  0  0  0  0
    1.5249    4.4555   13.8793 C   0  0  0  0  0  0  0  0  0  0  0  0
    0.9131    3.5981   12.9882 C   0  0  0  0  0  0  0  0  0  0  0  0
    1.2415    2.2667   12.9853 C   0  0  0  0  0  0  0  0  0  0  0  0
    2.1927    1.7847   13.8831 C   0  0  0  0  0  0  0  0  0  0  0  0
    2.8218    2.6020   14.7821 C   0  0  0  0  0  0  0  0  0  0  0  0
   -0.0604    4.1213   12.0701 N   0  0  0  0  0  0  0  0  0  0  0  0
    0.0411    3.7372   10.6906 C   0  0  0  0  0  0  0  0  0  0  0  0
   -1.2046    3.9385    9.8963 C   0  0  0  0  0  0  0  0  0  0  0  0
   -1.9275    5.1388   10.1578 N   0  0  0  0  0  0  0  0  0  0  0  0
   -1.5146    5.8823   11.3045 C   0  0  0  0  0  0  0  0  0  0  0  0
   -1.1147    5.0060   12.4741 C   0  0  0  0  0  0  0  0  0  0  0  0
   -2.9678    5.0207   10.0914 H   0  0  0  0  0  0  0  0  0  0  0  0
    2.4761    5.1467   16.8883 C   0  0  0  0  0  0  0  0  0  0  0  0
    3.0428    4.8722   15.6305 O   0  0  0  0  0  0  0  0  0  0  0  0
    4.9612    1.8688   20.3084 N   0  0  0  0  0  0  0  0  0  0  0  0
    6.0014    1.5856   20.2558 H   0  0  0  0  0  0  0  0  0  0  0  0
    4.6117    2.6402   21.4237 C   0  0  0  0  0  0  0  0  0  0  0  0
    4.4643    2.1762   22.7102 C   0  0  0  0  0  0  0  0  0  0  0  0
    4.1123    3.0041   23.7830 C   0  0  0  0  0  0  0  0  0  0  0  0
    3.9018    4.3362   23.5602 C   0  0  0  0  0  0  0  0  0  0  0  0
    4.0376    4.8488   22.2866 C   0  0  0  0  0  0  0  0  0  0  0  0
    3.8946    6.1030   21.7751 N   0  0  0  0  0  0  0  0  0  0  0  0
    4.1397    6.0482   20.4898 N   0  0  0  0  0  0  0  0  0  0  0  0
    4.4445    4.7953   20.1141 C   0  0  0  0  0  0  0  0  0  0  0  0
    4.3820    4.0190   21.2574 C   0  0  0  0  0  0  0  0  0  0  0  0
    3.6351    6.9241   22.3485 H   0  0  0  0  0  0  0  0  0  0  0  0
 23 24  1  0  0  0
 24 10  1  0  0  0
 10 11  2  0  0  0
 11 12  1  0  0  0
 12 13  2  0  0  0
 13 14  1  0  0  0
 14 15  2  0  0  0
 15  8  1  0  0  0
  8  1  1  0  0  0
  1  2  2  0  0  0
  2  3  1  0  0  0
  3  4  2  0  0  0
  4  5  1  0  0  0
  4  6  1  0  0  0
  6 25  1  0  0  0
 25 27  1  0  0  0
 27 28  2  0  0  0
 28 29  1  0  0  0
 29 30  2  0  0  0
 30 31  1  0  0  0
 31 32  1  0  0  0
 32 33  1  0  0  0
 33 34  2  0  0  0
 34 35  1  0  0  0
  6  7  2  0  0  0
 12 16  1  0  0  0
 16 17  1  0  0  0
 17 18  1  0  0  0
 18 19  1  0  0  0
 19 20  1  0  0  0
 20 21  1  0  0  0
 15 10  1  0  0  0
  7  1  1  0  0  0
 21 16  1  0  0  0
 35 27  1  0  0  0
 35 31  2  0  0  0
  8  9  1  0  0  0
 25 26  1  0  0  0
 32 36  1  0  0  0
 19 22  1  0  0  0
M  END
> <minimizedAffinity>
-9.10470

> <CNNscore>
0.8314054012

> <CNNaffinity>
7.4649724960

> <CNN_VS>
6.2064185143

> <CNNaffinity_variance>
0.2214102745

$$$$
[H]c1nc(N([H])c2c([H])c([H])c(N3C([H])([H])C([H])([H])N([H])C([H])([H])C3([H])[H])c([H])c2OC([H])([H])[H])nc(N([H])c2c([H])c([H])c([H])c3c2c([H])nn3[H])c1Cl


 36 40  0  0  0  0  0  0  0  0999 V2000
    4.8263    3.6663   22.6832 C   0  0  0  0  0  0  0  0  0  0  0  0
    4.1990    2.8411   23.4905 N   0  0  0  0  0  0  0  0  0  0  0  0
    3.7819    1.6123   23.1320 C   0  0  0  0  0  0  0  0  0  0  0  0
    4.0046    1.1585   21.8625 C   0  0  0  0  0  0  0  0  0  0  0  0
    3.4993   -0.4195   21.3109 Cl  0  0  0  0  0  0  0  0  0  0  0  0
    4.6713    2.0040   20.9633 C   0  0  0  0  0  0  0  0  0  0  0  0
    5.0350    3.1848   21.4198 N   0  0  0  0  0  0  0  0  0  0  0  0
    5.2911    4.9552   22.9755 N   0  0  0  0  0  0  0  0  0  0  0  0
    5.4108    5.2238   24.0146 H   0  0  0  0  0  0  0  0  0  0  0  0
    6.9890    6.2181   21.8286 C   0  0  0  0  0  0  0  0  0  0  0  0
    7.4509    7.1622   20.9580 C   0  0  0  0  0  0  0  0  0  0  0  0
    6.5387    7.9132   20.2457 C   0  0  0  0  0  0  0  0  0  0  0  0
    5.1950    7.7028   20.4206 C   0  0  0  0  0  0  0  0  0  0  0  0
    4.7559    6.7305   21.3178 C   0  0  0  0  0  0  0  0  0  0  0  0
    5.6281    5.9652   22.0428 C   0  0  0  0  0  0  0  0  0  0  0  0
    7.0177    8.9056   19.3238 N   0  0  0  0  0  0  0  0  0  0  0  0
    7.6972    8.4542   18.1424 C   0  0  0  0  0  0  0  0  0  0  0  0
    7.7731    9.4620   17.0460 C   0  0  0  0  0  0  0  0  0  0  0  0
    8.0414   10.8036   17.4455 N   0  0  0  0  0  0  0  0  0  0  0  0
    7.9658   11.0678   18.8465 C   0  0  0  0  0  0  0  0  0  0  0  0
    6.8486   10.3137   19.5386 C   0  0  0  0  0  0  0  0  0  0  0  0
    7.5451   11.5190   16.8603 H   0  0  0  0  0  0  0  0  0  0  0  0
    9.3330    5.7819   22.4066 C   0  0  0  0  0  0  0  0  0  0  0  0
    7.9638    5.4830   22.5270 O   0  0  0  0  0  0  0  0  0  0  0  0
    4.9291    1.6025   19.6525 N   0  0  0  0  0  0  0  0  0  0  0  0
    5.5662    0.7338   19.5861 H   0  0  0  0  0  0  0  0  0  0  0  0
    4.5090    2.1259   18.4234 C   0  0  0  0  0  0  0  0  0  0  0  0
    4.9085    3.3244   17.8790 C   0  0  0  0  0  0  0  0  0  0  0  0
    4.4487    3.7898   16.6413 C   0  0  0  0  0  0  0  0  0  0  0  0
    3.5624    3.0322   15.9279 C   0  0  0  0  0  0  0  0  0  0  0  0
    3.1320    1.8223   16.4325 C   0  0  0  0  0  0  0  0  0  0  0  0
    2.2750    0.8757   15.9587 N   0  0  0  0  0  0  0  0  0  0  0  0
    2.2143   -0.0937   16.8370 N   0  0  0  0  0  0  0  0  0  0  0  0
    3.0038    0.1664   17.8918 C   0  0  0  0  0  0  0  0  0  0  0  0
    3.5964    1.3915   17.6429 C   0  0  0  0  0  0  0  0  0  0  0  0
    1.7821    0.9581   15.0528 H   0  0  0  0  0  0  0  0  0  0  0  0
 23 24  1  0  0  0
 24 10  1  0  0  0
 10 11  2  0  0  0
 11 12  1  0  0  0
 12 13  2  0  0  0
 13 14  1  0  0  0
 14 15  2  0  0  0
 15  8  1  0  0  0
  8  1  1  0  0  0
  1  2  2  0  0  0
  2  3  1  0  0  0
  3  4  2  0  0  0
  4  5  1  0  0  0
  4  6  1  0  0  0
  6 25  1  0  0  0
 25 27  1  0  0  0
 27 28  2  0  0  0
 28 29  1  0  0  0
 29 30  2  0  0  0
 30 31  1  0  0  0
 31 32  1  0  0  0
 32 33  1  0  0  0
 33 34  2  0  0  0
 34 35  1  0  0  0
  6  7  2  0  0  0
 12 16  1  0  0  0
 16 17  1  0  0  0
 17 18  1  0  0  0
 18 19  1  0  0  0
 19 20  1  0  0  0
 20 21  1  0  0  0
 15 10  1  0  0  0
  7  1  1  0  0  0
 21 16  1  0  0  0
 35 27  1  0  0  0
 35 31  2  0  0  0
  8  9  1  0  0  0
 25 26  1  0  0  0
 32 36  1  0  0  0
 19 22  1  0  0  0
M  END
> <minimizedAffinity>
-9.38762

> <CNNscore>
0.6453475952

> <CNNaffinity>
7.3054428101

> <CNN_VS>
4.7145500183

> <CNNaffinity_variance>
0.0955486745

$$$$
[H]c1nc(N([H])c2c([H])c([H])c(N3C([H])([H])C([H])([H])N([H])C([H])([H])C3([H])[H])c([H])c2OC([H])([H])[H])nc(N([H])c2c([H])c([H])c([H])c3c2c([H])nn3[H])c1Cl


 36 40  0  0  0  0  0  0  0  0999 V2000
    4.1726    5.3509   21.7592 C   0  0  0  0  0  0  0  0  0  0  0  0
    3.8624    4.8249   22.9225 N   0  0  0  0  0  0  0  0  0  0  0  0
    3.8186    3.5004   23.1598 C   0  0  0  0  0  0  0  0  0  0  0  0
    4.1072    2.6169   22.1581 C   0  0  0  0  0  0  0  0  0  0  0  0
    4.0755    0.8844   22.3754 Cl  0  0  0  0  0  0  0  0  0  0  0  0
    4.4444    3.1309   20.8971 C   0  0  0  0  0  0  0  0  0  0  0  0
    4.4564    4.4424   20.7763 N   0  0  0  0  0  0  0  0  0  0  0  0
    4.2405    6.7110   21.4302 N   0  0  0  0  0  0  0  0  0  0  0  0
    4.2373    7.4257   22.2396 H   0  0  0  0  0  0  0  0  0  0  0  0
    4.7189    8.6009   20.0185 C   0  0  0  0  0  0  0  0  0  0  0  0
    4.8330    9.2560   18.8267 C   0  0  0  0  0  0  0  0  0  0  0  0
    4.5368    8.5763   17.6631 C   0  0  0  0  0  0  0  0  0  0  0  0
    4.1362    7.2662   17.7198 C   0  0  0  0  0  0  0  0  0  0  0  0
    4.0298    6.6258   18.9534 C   0  0  0  0  0  0  0  0  0  0  0  0
    4.3142    7.2645   20.1295 C   0  0  0  0  0  0  0  0  0  0  0  0
    4.6593    9.2582   16.4044 N   0  0  0  0  0  0  0  0  0  0  0  0
    3.5759   10.1036   15.9889 C   0  0  0  0  0  0  0  0  0  0  0  0
    3.9316   11.0965   14.9349 C   0  0  0  0  0  0  0  0  0  0  0  0
    4.7909   10.6292   13.8982 N   0  0  0  0  0  0  0  0  0  0  0  0
    5.3997    9.3561   14.1143 C   0  0  0  0  0  0  0  0  0  0  0  0
    5.8075    9.1243   15.5551 C   0  0  0  0  0  0  0  0  0  0  0  0
    5.4626   11.3581   13.5545 H   0  0  0  0  0  0  0  0  0  0  0  0
    6.2806    9.9773   21.3167 C   0  0  0  0  0  0  0  0  0  0  0  0
    5.0336    9.3429   21.1712 O   0  0  0  0  0  0  0  0  0  0  0  0
    4.7485    2.2838   19.8314 N   0  0  0  0  0  0  0  0  0  0  0  0
    5.4029    1.4694   20.1025 H   0  0  0  0  0  0  0  0  0  0  0  0
    4.3561    2.3079   18.4873 C   0  0  0  0  0  0  0  0  0  0  0  0
    4.7252    3.2513   17.5568 C   0  0  0  0  0  0  0  0  0  0  0  0
    4.2960    3.2161   16.2247 C   0  0  0  0  0  0  0  0  0  0  0  0
    3.4726    2.2058   15.8126 C   0  0  0  0  0  0  0  0  0  0  0  0
    3.0748    1.2357   16.7094 C   0  0  0  0  0  0  0  0  0  0  0  0
    2.2791    0.1368   16.5896 N   0  0  0  0  0  0  0  0  0  0  0  0
    2.2249   -0.4550   17.7565 N   0  0  0  0  0  0  0  0  0  0  0  0
    2.9594    0.2089   18.6640 C   0  0  0  0  0  0  0  0  0  0  0  0
    3.5082    1.2937   18.0037 C   0  0  0  0  0  0  0  0  0  0  0  0
    1.8200   -0.1381   15.7041 H   0  0  0  0  0  0  0  0  0  0  0  0
 23 24  1  0  0  0
 24 10  1  0  0  0
 10 11  2  0  0  0
 11 12  1  0  0  0
 12 13  2  0  0  0
 13 14  1  0  0  0
 14 15  2  0  0  0
 15  8  1  0  0  0
  8  1  1  0  0  0
  1  2  2  0  0  0
  2  3  1  0  0  0
  3  4  2  0  0  0
  4  5  1  0  0  0
  4  6  1  0  0  0
  6 25  1  0  0  0
 25 27  1  0  0  0
 27 28  2  0  0  0
 28 29  1  0  0  0
 29 30  2  0  0  0
 30 31  1  0  0  0
 31 32  1  0  0  0
 32 33  1  0  0  0
 33 34  2  0  0  0
 34 35  1  0  0  0
  6  7  2  0  0  0
 12 16  1  0  0  0
 16 17  1  0  0  0
 17 18  1  0  0  0
 18 19  1  0  0  0
 19 20  1  0  0  0
 20 21  1  0  0  0
 15 10  1  0  0  0
  7  1  1  0  0  0
 21 16  1  0  0  0
 35 27  1  0  0  0
 35 31  2  0  0  0
  8  9  1  0  0  0
 25 26  1  0  0  0
 32 36  1  0  0  0
 19 22  1  0  0  0
M  END
> <minimizedAffinity>
-9.96740

> <CNNscore>
0.5093166232

> <CNNaffinity>
7.1628503799

> <CNN_VS>
3.6481587887

> <CNNaffinity_variance>
0.2056473941

$$$$
[H]c1nc(N([H])c2c([H])c([H])c(N3C([H])([H])C([H])([H])N([H])C([H])([H])C3([H])[H])c([H])c2OC([H])([H])[H])nc(N([H])c2c([H])c([H])c([H])c3c2c([H])nn3[H])c1Cl


 36 40  0  0  0  0  0  0  0  0999 V2000
    3.9774    6.4481   19.0228 C   0  0  0  0  0  0  0  0  0  0  0  0
    3.7337    6.7618   17.7704 N   0  0  0  0  0  0  0  0  0  0  0  0
    3.8276    5.8924   16.7468 C   0  0  0  0  0  0  0  0  0  0  0  0
    4.1952    4.5974   16.9817 C   0  0  0  0  0  0  0  0  0  0  0  0
    4.3425    3.4028   15.7165 Cl  0  0  0  0  0  0  0  0  0  0  0  0
    4.4659    4.2142   18.3038 C   0  0  0  0  0  0  0  0  0  0  0  0
    4.3429    5.1456   19.2271 N   0  0  0  0  0  0  0  0  0  0  0  0
    3.9037    7.2884   20.1413 N   0  0  0  0  0  0  0  0  0  0  0  0
    2.9567    7.7616   20.3542 H   0  0  0  0  0  0  0  0  0  0  0  0
    5.2993    8.9411   21.1969 C   0  0  0  0  0  0  0  0  0  0  0  0
    6.2894    9.3721   22.0316 C   0  0  0  0  0  0  0  0  0  0  0  0
    6.9927    8.4398   22.7662 C   0  0  0  0  0  0  0  0  0  0  0  0
    6.6904    7.1075   22.6489 C   0  0  0  0  0  0  0  0  0  0  0  0
    5.6731    6.7001   21.7873 C   0  0  0  0  0  0  0  0  0  0  0  0
    4.9525    7.5928   21.0417 C   0  0  0  0  0  0  0  0  0  0  0  0
    8.0332    8.8867   23.6506 N   0  0  0  0  0  0  0  0  0  0  0  0
    7.9027    8.5872   25.0486 C   0  0  0  0  0  0  0  0  0  0  0  0
    9.1731    8.6756   25.8242 C   0  0  0  0  0  0  0  0  0  0  0  0
   10.0324    9.7649   25.4973 N   0  0  0  0  0  0  0  0  0  0  0  0
    9.6985   10.4946   24.3165 C   0  0  0  0  0  0  0  0  0  0  0  0
    9.1817    9.6157   23.1956 C   0  0  0  0  0  0  0  0  0  0  0  0
   11.0515    9.5251   25.5634 H   0  0  0  0  0  0  0  0  0  0  0  0
    5.2329   10.6245   19.4136 C   0  0  0  0  0  0  0  0  0  0  0  0
    4.6162    9.9352   20.4733 O   0  0  0  0  0  0  0  0  0  0  0  0
    4.8471    2.9083   18.6120 N   0  0  0  0  0  0  0  0  0  0  0  0
    5.6968    2.5626   18.0433 H   0  0  0  0  0  0  0  0  0  0  0  0
    4.3237    1.9802   19.5208 C   0  0  0  0  0  0  0  0  0  0  0  0
    4.5236    1.9842   20.8818 C   0  0  0  0  0  0  0  0  0  0  0  0
    3.9689    1.0237   21.7360 C   0  0  0  0  0  0  0  0  0  0  0  0
    3.1910    0.0298   21.2113 C   0  0  0  0  0  0  0  0  0  0  0  0
    2.9615   -0.0165   19.8516 C   0  0  0  0  0  0  0  0  0  0  0  0
    2.2468   -0.8668   19.0635 N   0  0  0  0  0  0  0  0  0  0  0  0
    2.3549   -0.4595   17.8236 N   0  0  0  0  0  0  0  0  0  0  0  0
    3.1210    0.6409   17.7467 C   0  0  0  0  0  0  0  0  0  0  0  0
    3.5148    0.9332   19.0403 C   0  0  0  0  0  0  0  0  0  0  0  0
    1.7255   -1.6807   19.4326 H   0  0  0  0  0  0  0  0  0  0  0  0
 23 24  1  0  0  0
 24 10  1  0  0  0
 10 11  2  0  0  0
 11 12  1  0  0  0
 12 13  2  0  0  0
 13 14  1  0  0  0
 14 15  2  0  0  0
 15  8  1  0  0  0
  8  1  1  0  0  0
  1  2  2  0  0  0
  2  3  1  0  0  0
  3  4  2  0  0  0
  4  5  1  0  0  0
  4  6  1  0  0  0
  6 25  1  0  0  0
 25 27  1  0  0  0
 27 28  2  0  0  0
 28 29  1  0  0  0
 29 30  2  0  0  0
 30 31  1  0  0  0
 31 32  1  0  0  0
 32 33  1  0  0  0
 33 34  2  0  0  0
 34 35  1  0  0  0
  6  7  2  0  0  0
 12 16  1  0  0  0
 16 17  1  0  0  0
 17 18  1  0  0  0
 18 19  1  0  0  0
 19 20  1  0  0  0
 20 21  1  0  0  0
 15 10  1  0  0  0
  7  1  1  0  0  0
 21 16  1  0  0  0
 35 27  1  0  0  0
 35 31  2  0  0  0
  8  9  1  0  0  0
 25 26  1  0  0  0
 32 36  1  0  0  0
 19 22  1  0  0  0
M  END
> <minimizedAffinity>
-9.13249

> <CNNscore>
0.4949035048

> <CNNaffinity>
7.0868730545

> <CNN_VS>
3.5073182583

> <CNNaffinity_variance>
0.2884994745

$$$$
[H]c1nc(N([H])c2c([H])c([H])c(N3C([H])([H])C([H])([H])N([H])C([H])([H])C3([H])[H])c([H])c2OC([H])([H])[H])nc(N([H])c2c([H])c([H])c([H])c3c2c([H])nn3[H])c1Cl


 36 40  0  0  0  0  0  0  0  0999 V2000
    3.6067    6.2404   16.5278 C   0  0  0  0  0  0  0  0  0  0  0  0
    3.1206    6.2077   15.3076 N   0  0  0  0  0  0  0  0  0  0  0  0
    3.0412    5.0903   14.5609 C   0  0  0  0  0  0  0  0  0  0  0  0
    3.4813    3.8989   15.0650 C   0  0  0  0  0  0  0  0  0  0  0  0
    3.4169    2.4015   14.1688 Cl  0  0  0  0  0  0  0  0  0  0  0  0
    4.0091    3.8831   16.3647 C   0  0  0  0  0  0  0  0  0  0  0  0
    4.0392    5.0335   17.0055 N   0  0  0  0  0  0  0  0  0  0  0  0
    3.7250    7.3552   17.3680 N   0  0  0  0  0  0  0  0  0  0  0  0
    3.1572    8.2384   17.1158 H   0  0  0  0  0  0  0  0  0  0  0  0
    4.2348    8.4990   19.4236 C   0  0  0  0  0  0  0  0  0  0  0  0
    4.9232    8.7095   20.5831 C   0  0  0  0  0  0  0  0  0  0  0  0
    5.9578    7.8561   20.9066 C   0  0  0  0  0  0  0  0  0  0  0  0
    6.2767    6.8194   20.0676 C   0  0  0  0  0  0  0  0  0  0  0  0
    5.5538    6.6318   18.8906 C   0  0  0  0  0  0  0  0  0  0  0  0
    4.5212    7.4556   18.5340 C   0  0  0  0  0  0  0  0  0  0  0  0
    6.6839    8.0687   22.1280 N   0  0  0  0  0  0  0  0  0  0  0  0
    7.4478    6.9738   22.6560 C   0  0  0  0  0  0  0  0  0  0  0  0
    8.4973    7.3658   23.6400 C   0  0  0  0  0  0  0  0  0  0  0  0
    8.1337    8.3798   24.5733 N   0  0  0  0  0  0  0  0  0  0  0  0
    6.9100    9.0660   24.3089 C   0  0  0  0  0  0  0  0  0  0  0  0
    6.6711    9.3173   22.8339 C   0  0  0  0  0  0  0  0  0  0  0  0
    8.9258    9.0223   24.8190 H   0  0  0  0  0  0  0  0  0  0  0  0
    3.4512   10.7113   18.7092 C   0  0  0  0  0  0  0  0  0  0  0  0
    3.1909    9.3996   19.1452 O   0  0  0  0  0  0  0  0  0  0  0  0
    4.4768    2.7008   16.9383 N   0  0  0  0  0  0  0  0  0  0  0  0
    5.0265    2.0768   16.2501 H   0  0  0  0  0  0  0  0  0  0  0  0
    4.3576    2.1903   18.2369 C   0  0  0  0  0  0  0  0  0  0  0  0
    4.9962    2.6744   19.3549 C   0  0  0  0  0  0  0  0  0  0  0  0
    4.8318    2.1156   20.6280 C   0  0  0  0  0  0  0  0  0  0  0  0
    4.0032    1.0400   20.7857 C   0  0  0  0  0  0  0  0  0  0  0  0
    3.3405    0.5184   19.6938 C   0  0  0  0  0  0  0  0  0  0  0  0
    2.4730   -0.5216   19.5495 N   0  0  0  0  0  0  0  0  0  0  0  0
    2.1323   -0.5945   18.2871 N   0  0  0  0  0  0  0  0  0  0  0  0
    2.7422    0.3641   17.5710 C   0  0  0  0  0  0  0  0  0  0  0  0
    3.5186    1.0827   18.4625 C   0  0  0  0  0  0  0  0  0  0  0  0
    2.1680   -1.1202   20.3362 H   0  0  0  0  0  0  0  0  0  0  0  0
 23 24  1  0  0  0
 24 10  1  0  0  0
 10 11  2  0  0  0
 11 12  1  0  0  0
 12 13  2  0  0  0
 13 14  1  0  0  0
 14 15  2  0  0  0
 15  8  1  0  0  0
  8  1  1  0  0  0
  1  2  2  0  0  0
  2  3  1  0  0  0
  3  4  2  0  0  0
  4  5  1  0  0  0
  4  6  1  0  0  0
  6 25  1  0  0  0
 25 27  1  0  0  0
 27 28  2  0  0  0
 28 29  1  0  0  0
 29 30  2  0  0  0
 30 31  1  0  0  0
 31 32  1  0  0  0
 32 33  1  0  0  0
 33 34  2  0  0  0
 34 35  1  0  0  0
  6  7  2  0  0  0
 12 16  1  0  0  0
 16 17  1  0  0  0
 17 18  1  0  0  0
 18 19  1  0  0  0
 19 20  1  0  0  0
 20 21  1  0  0  0
 15 10  1  0  0  0
  7  1  1  0  0  0
 21 16  1  0  0  0
 35 27  1  0  0  0
 35 31  2  0  0  0
  8  9  1  0  0  0
 25 26  1  0  0  0
 32 36  1  0  0  0
 19 22  1  0  0  0
M  END
> <minimizedAffinity>
-9.21267

> <CNNscore>
0.4850148857

> <CNNaffinity>
7.1898393631

> <CNN_VS>
3.4871790409

> <CNNaffinity_variance>
0.1726938486

$$$$
[H]c1nc(N([H])c2c([H])c([H])c(N3C([H])([H])C([H])([H])N([H])C([H])([H])C3([H])[H])c([H])c2OC([H])([H])[H])nc(N([H])c2c([H])c([H])c([H])c3c2c([H])nn3[H])c1Cl


 36 40  0  0  0  0  0  0  0  0999 V2000
    4.3487    5.6065   17.3057 C   0  0  0  0  0  0  0  0  0  0  0  0
    3.9271    6.5924   18.0651 N   0  0  0  0  0  0  0  0  0  0  0  0
    3.8595    6.5295   19.4082 C   0  0  0  0  0  0  0  0  0  0  0  0
    4.2429    5.3907   20.0590 C   0  0  0  0  0  0  0  0  0  0  0  0
    4.1891    5.2204   21.7962 Cl  0  0  0  0  0  0  0  0  0  0  0  0
    4.7008    4.3099   19.2908 C   0  0  0  0  0  0  0  0  0  0  0  0
    4.7255    4.4802   17.9849 N   0  0  0  0  0  0  0  0  0  0  0  0
    4.4491    5.5904   15.9085 N   0  0  0  0  0  0  0  0  0  0  0  0
    5.4304    5.4655   15.4755 H   0  0  0  0  0  0  0  0  0  0  0  0
    2.6468    4.5720   14.6804 C   0  0  0  0  0  0  0  0  0  0  0  0
    1.5986    4.5594   13.8065 C   0  0  0  0  0  0  0  0  0  0  0  0
    1.2399    5.7357   13.1812 C   0  0  0  0  0  0  0  0  0  0  0  0
    1.9341    6.8887   13.4436 C   0  0  0  0  0  0  0  0  0  0  0  0
    3.0001    6.8678   14.3416 C   0  0  0  0  0  0  0  0  0  0  0  0
    3.3870    5.7223   14.9820 C   0  0  0  0  0  0  0  0  0  0  0  0
    0.1343    5.7311   12.2636 N   0  0  0  0  0  0  0  0  0  0  0  0
   -0.8439    4.6885   12.3939 C   0  0  0  0  0  0  0  0  0  0  0  0
   -2.1504    4.9764   11.7355 C   0  0  0  0  0  0  0  0  0  0  0  0
   -2.0835    5.6131   10.4620 N   0  0  0  0  0  0  0  0  0  0  0  0
   -0.8032    6.1149   10.0782 C   0  0  0  0  0  0  0  0  0  0  0  0
   -0.0249    6.7146   11.2317 C   0  0  0  0  0  0  0  0  0  0  0  0
   -2.8638    6.2943   10.2961 H   0  0  0  0  0  0  0  0  0  0  0  0
    3.1509    2.1759   14.5272 C   0  0  0  0  0  0  0  0  0  0  0  0
    2.9675    3.3447   15.2881 O   0  0  0  0  0  0  0  0  0  0  0  0
    5.1060    3.1185   19.8924 N   0  0  0  0  0  0  0  0  0  0  0  0
    6.1781    3.0142   19.9614 H   0  0  0  0  0  0  0  0  0  0  0  0
    4.3706    2.0477   20.4156 C   0  0  0  0  0  0  0  0  0  0  0  0
    4.2042    1.7603   21.7505 C   0  0  0  0  0  0  0  0  0  0  0  0
    3.4533    0.6706   22.2073 C   0  0  0  0  0  0  0  0  0  0  0  0
    2.8512   -0.1556   21.3000 C   0  0  0  0  0  0  0  0  0  0  0  0
    2.9891    0.0915   19.9496 C   0  0  0  0  0  0  0  0  0  0  0  0
    2.5161   -0.5427   18.8410 N   0  0  0  0  0  0  0  0  0  0  0  0
    2.9435    0.1071   17.7875 N   0  0  0  0  0  0  0  0  0  0  0  0
    3.6918    1.1626   18.1477 C   0  0  0  0  0  0  0  0  0  0  0  0
    3.7275    1.1619   19.5307 C   0  0  0  0  0  0  0  0  0  0  0  0
    1.9239   -1.3901   18.8807 H   0  0  0  0  0  0  0  0  0  0  0  0
 23 24  1  0  0  0
 24 10  1  0  0  0
 10 11  2  0  0  0
 11 12  1  0  0  0
 12 13  2  0  0  0
 13 14  1  0  0  0
 14 15  2  0  0  0
 15  8  1  0  0  0
  8  1  1  0  0  0
  1  2  2  0  0  0
  2  3  1  0  0  0
  3  4  2  0  0  0
  4  5  1  0  0  0
  4  6  1  0  0  0
  6 25  1  0  0  0
 25 27  1  0  0  0
 27 28  2  0  0  0
 28 29  1  0  0  0
 29 30  2  0  0  0
 30 31  1  0  0  0
 31 32  1  0  0  0
 32 33  1  0  0  0
 33 34  2  0  0  0
 34 35  1  0  0  0
  6  7  2  0  0  0
 12 16  1  0  0  0
 16 17  1  0  0  0
 17 18  1  0  0  0
 18 19  1  0  0  0
 19 20  1  0  0  0
 20 21  1  0  0  0
 15 10  1  0  0  0
  7  1  1  0  0  0
 21 16  1  0  0  0
 35 27  1  0  0  0
 35 31  2  0  0  0
  8  9  1  0  0  0
 25 26  1  0  0  0
 32 36  1  0  0  0
 19 22  1  0  0  0
M  END
> <minimizedAffinity>
-8.50925

> <CNNscore>
0.4663174450

> <CNNaffinity>
7.0719504356

> <CNN_VS>
3.2977738380

> <CNNaffinity_variance>
0.5158400536

$$$$
[H]c1nc(N([H])c2c([H])c([H])c(N3C([H])([H])C([H])([H])N([H])C([H])([H])C3([H])[H])c([H])c2OC([H])([H])[H])nc(N([H])c2c([H])c([H])c([H])c3c2c([H])nn3[H])c1Cl


 36 40  0  0  0  0  0  0  0  0999 V2000
    4.7524    6.3758   18.1939 C   0  0  0  0  0  0  0  0  0  0  0  0
    4.1897    6.6930   17.0499 N   0  0  0  0  0  0  0  0  0  0  0  0
    3.8350    5.7937   16.1128 C   0  0  0  0  0  0  0  0  0  0  0  0
    4.0561    4.4621   16.3255 C   0  0  0  0  0  0  0  0  0  0  0  0
    3.6288    3.2271   15.1671 Cl  0  0  0  0  0  0  0  0  0  0  0  0
    4.6550    4.0738   17.5331 C   0  0  0  0  0  0  0  0  0  0  0  0
    4.9612    5.0364   18.3785 N   0  0  0  0  0  0  0  0  0  0  0  0
    5.1507    7.2456   19.2175 N   0  0  0  0  0  0  0  0  0  0  0  0
    4.5703    8.1434   19.3696 H   0  0  0  0  0  0  0  0  0  0  0  0
    5.9736    6.6970   21.4118 C   0  0  0  0  0  0  0  0  0  0  0  0
    6.9389    6.4990   22.3561 C   0  0  0  0  0  0  0  0  0  0  0  0
    8.2607    6.6786   22.0039 C   0  0  0  0  0  0  0  0  0  0  0  0
    8.5827    7.0496   20.7237 C   0  0  0  0  0  0  0  0  0  0  0  0
    7.5728    7.2438   19.7827 C   0  0  0  0  0  0  0  0  0  0  0  0
    6.2506    7.0760   20.0921 C   0  0  0  0  0  0  0  0  0  0  0  0
    9.2826    6.4673   22.9915 N   0  0  0  0  0  0  0  0  0  0  0  0
   10.3305    5.5346   22.6865 C   0  0  0  0  0  0  0  0  0  0  0  0
   11.5563    5.6819   23.5226 C   0  0  0  0  0  0  0  0  0  0  0  0
   11.3426    5.9492   24.9063 N   0  0  0  0  0  0  0  0  0  0  0  0
   10.0060    6.2821   25.2816 C   0  0  0  0  0  0  0  0  0  0  0  0
    9.2930    7.1416   24.2575 C   0  0  0  0  0  0  0  0  0  0  0  0
   12.0627    6.5885   25.3225 H   0  0  0  0  0  0  0  0  0  0  0  0
    4.1162    5.2081   22.0051 C   0  0  0  0  0  0  0  0  0  0  0  0
    4.6444    6.4996   21.8271 O   0  0  0  0  0  0  0  0  0  0  0  0
    4.9096    2.7310   17.8123 N   0  0  0  0  0  0  0  0  0  0  0  0
    5.4875    2.2347   17.0476 H   0  0  0  0  0  0  0  0  0  0  0  0
    4.5490    1.9261   18.9000 C   0  0  0  0  0  0  0  0  0  0  0  0
    5.0655    2.0117   20.1721 C   0  0  0  0  0  0  0  0  0  0  0  0
    4.6591    1.1735   21.2172 C   0  0  0  0  0  0  0  0  0  0  0  0
    3.7072    0.2214   20.9810 C   0  0  0  0  0  0  0  0  0  0  0  0
    3.1592    0.0967   19.7210 C   0  0  0  0  0  0  0  0  0  0  0  0
    2.2168   -0.7382   19.2017 N   0  0  0  0  0  0  0  0  0  0  0  0
    2.0579   -0.4355   17.9375 N   0  0  0  0  0  0  0  0  0  0  0  0
    2.8637    0.5790   17.5837 C   0  0  0  0  0  0  0  0  0  0  0  0
    3.5736    0.9275   18.7188 C   0  0  0  0  0  0  0  0  0  0  0  0
    1.7387   -1.4697   19.7555 H   0  0  0  0  0  0  0  0  0  0  0  0
 23 24  1  0  0  0
 24 10  1  0  0  0
 10 11  2  0  0  0
 11 12  1  0  0  0
 12 13  2  0  0  0
 13 14  1  0  0  0
 14 15  2  0  0  0
 15  8  1  0  0  0
  8  1  1  0  0  0
  1  2  2  0  0  0
  2  3  1  0  0  0
  3  4  2  0  0  0
  4  5  1  0  0  0
  4  6  1  0  0  0
  6 25  1  0  0  0
 25 27  1  0  0  0
 27 28  2  0  0  0
 28 29  1  0  0  0
 29 30  2  0  0  0
 30 31  1  0  0  0
 31 32  1  0  0  0
 32 33  1  0  0  0
 33 34  2  0  0  0
 34 35  1  0  0  0
  6  7  2  0  0  0
 12 16  1  0  0  0
 16 17  1  0  0  0
 17 18  1  0  0  0
 18 19  1  0  0  0
 19 20  1  0  0  0
 20 21  1  0  0  0
 15 10  1  0  0  0
  7  1  1  0  0  0
 21 16  1  0  0  0
 35 27  1  0  0  0
 35 31  2  0  0  0
  8  9  1  0  0  0
 25 26  1  0  0  0
 32 36  1  0  0  0
 19 22  1  0  0  0
M  END
> <minimizedAffinity>
-8.99777

> <CNNscore>
0.4243226945

> <CNNaffinity>
7.1931052208

> <CNN_VS>
3.0521976948

> <CNNaffinity_variance>
0.2223070115

$$$$
[H]c1nc([H])c(C([H])([H])C([H])([H])C([H])([H])Oc2c([H])c([H])c(-c3c([H])c(C([H])([H])[H])c(C([H])([H])[H])c([H])c3C([H])([H])[H])c([H])c2[H])c([H])c1[H]


 25 27  0  0  0  0  0  0  0  0999 V2000
    3.9699    1.8138   18.4999 C   0  0  0  0  0  0  0  0  0  0  0  0
    3.3777    0.7280   17.8915 C   0  0  0  0  0  0  0  0  0  0  0  0
    3.0820    0.7492   16.5466 C   0  0  0  0  0  0  0  0  0  0  0  0
    3.3573    1.8430   15.7408 C   0  0  0  0  0  0  0  0  0  0  0  0
    3.9496    2.9358   16.3364 C   0  0  0  0  0  0  0  0  0  0  0  0
    4.2446    2.9162   17.6756 C   0  0  0  0  0  0  0  0  0  0  0  0
    5.4130    2.1280   24.0939 C   0  0  0  0  0  0  0  0  0  0  0  0
    5.0318    2.0428   22.6448 C   0  0  0  0  0  0  0  0  0  0  0  0
    4.1226    1.1164   22.1925 C   0  0  0  0  0  0  0  0  0  0  0  0
    3.7611    1.0304   20.8400 C   0  0  0  0  0  0  0  0  0  0  0  0
    2.7697    0.0202   20.4207 C   0  0  0  0  0  0  0  0  0  0  0  0
    4.3098    1.8773   19.9148 C   0  0  0  0  0  0  0  0  0  0  0  0
    5.2339    2.8161   20.3881 C   0  0  0  0  0  0  0  0  0  0  0  0
    5.5857    2.8969   21.7173 C   0  0  0  0  0  0  0  0  0  0  0  0
    6.5722    3.9115   22.1706 C   0  0  0  0  0  0  0  0  0  0  0  0
    3.0727    1.8882   14.4007 O   0  0  0  0  0  0  0  0  0  0  0  0
    1.7469    1.8790   13.9040 C   0  0  0  0  0  0  0  0  0  0  0  0
    1.6511    2.4441   12.5185 C   0  0  0  0  0  0  0  0  0  0  0  0
    2.0149    3.9179   12.6044 C   0  0  0  0  0  0  0  0  0  0  0  0
    0.8498    4.7684   12.8997 C   0  0  0  0  0  0  0  0  0  0  0  0
    0.9890    5.8126   13.7838 C   0  0  0  0  0  0  0  0  0  0  0  0
   -0.1100    6.6192   14.0657 C   0  0  0  0  0  0  0  0  0  0  0  0
   -1.3398    6.4023   13.4830 C   0  0  0  0  0  0  0  0  0  0  0  0
   -1.4331    5.3619   12.6173 N   0  0  0  0  0  0  0  0  0  0  0  0
   -0.3900    4.5677   12.3267 C   0  0  0  0  0  0  0  0  0  0  0  0
  7  8  1  0  0  0
  8  9  2  0  0  0
  9 10  1  0  0  0
 10 11  1  0  0  0
 10 12  2  0  0  0
 12 13  1  0  0  0
 13 14  2  0  0  0
 14 15  1  0  0  0
 12  1  1  0  0  0
  1  2  2  0  0  0
  2  3  1  0  0  0
  3  4  2  0  0  0
  4 16  1  0  0  0
 16 17  1  0  0  0
 17 18  1  0  0  0
 18 19  1  0  0  0
 19 20  1  0  0  0
 20 21  2  0  0  0
 21 22  1  0  0  0
 22 23  2  0  0  0
 23 24  1  0  0  0
 24 25  2  0  0  0
  4  5  1  0  0  0
  5  6  2  0  0  0
 14  8  1  0  0  0
  6  1  1  0  0  0
 25 20  1  0  0  0
M  END
> <minimizedAffinity>
-8.32511

> <CNNscore>
0.7204755545

> <CNNaffinity>
6.1255097389

> <CNN_VS>
4.4132800102

> <CNNaffinity_variance>
0.1800737530

$$$$
[H]c1nc([H])c(C([H])([H])C([H])([H])C([H])([H])Oc2c([H])c([H])c(-c3c([H])c(C([H])([H])[H])c(C([H])([H])[H])c([H])c3C([H])([H])[H])c([H])c2[H])c([H])c1[H]


 25 27  0  0  0  0  0  0  0  0999 V2000
    3.9922    1.8653   18.4809 C   0  0  0  0  0  0  0  0  0  0  0  0
    4.2026    2.8979   17.5924 C   0  0  0  0  0  0  0  0  0  0  0  0
    3.8702    2.7614   16.2630 C   0  0  0  0  0  0  0  0  0  0  0  0
    3.3149    1.5996   15.7497 C   0  0  0  0  0  0  0  0  0  0  0  0
    3.0989    0.5590   16.6274 C   0  0  0  0  0  0  0  0  0  0  0  0
    3.4295    0.6934   17.9516 C   0  0  0  0  0  0  0  0  0  0  0  0
    5.3866    2.1591   24.0884 C   0  0  0  0  0  0  0  0  0  0  0  0
    5.0181    2.0791   22.6356 C   0  0  0  0  0  0  0  0  0  0  0  0
    4.1265    1.1425   22.1693 C   0  0  0  0  0  0  0  0  0  0  0  0
    3.7769    1.0613   20.8134 C   0  0  0  0  0  0  0  0  0  0  0  0
    2.8042    0.0395   20.3787 C   0  0  0  0  0  0  0  0  0  0  0  0
    4.3200    1.9233   19.8989 C   0  0  0  0  0  0  0  0  0  0  0  0
    5.2262    2.8723   20.3864 C   0  0  0  0  0  0  0  0  0  0  0  0
    5.5662    2.9484   21.7190 C   0  0  0  0  0  0  0  0  0  0  0  0
    6.5338    3.9743   22.1876 C   0  0  0  0  0  0  0  0  0  0  0  0
    2.9758    1.4395   14.4313 O   0  0  0  0  0  0  0  0  0  0  0  0
    1.8055    2.0077   13.8726 C   0  0  0  0  0  0  0  0  0  0  0  0
    2.1112    2.9933   12.7847 C   0  0  0  0  0  0  0  0  0  0  0  0
    1.1390    2.7271   11.6463 C   0  0  0  0  0  0  0  0  0  0  0  0
    1.5674    1.6076   10.7911 C   0  0  0  0  0  0  0  0  0  0  0  0
    0.6180    0.7576   10.2742 C   0  0  0  0  0  0  0  0  0  0  0  0
    1.0188   -0.3021    9.4652 C   0  0  0  0  0  0  0  0  0  0  0  0
    2.3448   -0.5266    9.1649 C   0  0  0  0  0  0  0  0  0  0  0  0
    3.2481    0.3355    9.6954 N   0  0  0  0  0  0  0  0  0  0  0  0
    2.8902    1.3658   10.4787 C   0  0  0  0  0  0  0  0  0  0  0  0
  7  8  1  0  0  0
  8  9  2  0  0  0
  9 10  1  0  0  0
 10 11  1  0  0  0
 10 12  2  0  0  0
 12 13  1  0  0  0
 13 14  2  0  0  0
 14 15  1  0  0  0
 12  1  1  0  0  0
  1  2  2  0  0  0
  2  3  1  0  0  0
  3  4  2  0  0  0
  4 16  1  0  0  0
 16 17  1  0  0  0
 17 18  1  0  0  0
 18 19  1  0  0  0
 19 20  1  0  0  0
 20 21  2  0  0  0
 21 22  1  0  0  0
 22 23  2  0  0  0
 23 24  1  0  0  0
 24 25  2  0  0  0
  4  5  1  0  0  0
  5  6  2  0  0  0
 14  8  1  0  0  0
  6  1  1  0  0  0
 25 20  1  0  0  0
M  END
> <minimizedAffinity>
-7.82930

> <CNNscore>
0.6571508646

> <CNNaffinity>
5.8821020126

> <CNN_VS>
3.8654284477

> <CNNaffinity_variance>
0.1141436547

$$$$
[H]c1nc([H])c(C([H])([H])C([H])([H])C([H])([H])Oc2c([H])c([H])c(-c3c([H])c(C([H])([H])[H])c(C([H])([H])[H])c([H])c3C([H])([H])[H])c([H])c2[H])c([H])c1[H]


 25 27  0  0  0  0  0  0  0  0999 V2000
    4.0431    1.9148   18.4939 C   0  0  0  0  0  0  0  0  0  0  0  0
    4.3301    2.9414   17.6202 C   0  0  0  0  0  0  0  0  0  0  0  0
    4.0099    2.8394   16.2847 C   0  0  0  0  0  0  0  0  0  0  0  0
    3.3918    1.7194   15.7505 C   0  0  0  0  0  0  0  0  0  0  0  0
    3.0990    0.6853   16.6133 C   0  0  0  0  0  0  0  0  0  0  0  0
    3.4173    0.7854   17.9436 C   0  0  0  0  0  0  0  0  0  0  0  0
    5.3667    2.0674   24.1242 C   0  0  0  0  0  0  0  0  0  0  0  0
    5.0164    2.0242   22.6654 C   0  0  0  0  0  0  0  0  0  0  0  0
    4.1045    1.1228   22.1701 C   0  0  0  0  0  0  0  0  0  0  0  0
    3.7718    1.0760   20.8083 C   0  0  0  0  0  0  0  0  0  0  0  0
    2.7758    0.0912   20.3420 C   0  0  0  0  0  0  0  0  0  0  0  0
    4.3526    1.9378   19.9171 C   0  0  0  0  0  0  0  0  0  0  0  0
    5.2792    2.8508   20.4340 C   0  0  0  0  0  0  0  0  0  0  0  0
    5.6026    2.8931   21.7722 C   0  0  0  0  0  0  0  0  0  0  0  0
    6.5931    3.8815   22.2724 C   0  0  0  0  0  0  0  0  0  0  0  0
    3.0633    1.5942   14.4257 O   0  0  0  0  0  0  0  0  0  0  0  0
    2.3258    2.5813   13.7284 C   0  0  0  0  0  0  0  0  0  0  0  0
    3.0664    3.1153   12.5391 C   0  0  0  0  0  0  0  0  0  0  0  0
    3.8977    4.2958   13.0160 C   0  0  0  0  0  0  0  0  0  0  0  0
    4.4586    5.0759   11.9002 C   0  0  0  0  0  0  0  0  0  0  0  0
    5.3839    4.4881   11.0699 C   0  0  0  0  0  0  0  0  0  0  0  0
    5.9166    5.2221   10.0138 C   0  0  0  0  0  0  0  0  0  0  0  0
    5.5433    6.5267    9.7736 C   0  0  0  0  0  0  0  0  0  0  0  0
    4.6282    7.0676   10.6166 N   0  0  0  0  0  0  0  0  0  0  0  0
    4.0977    6.3834   11.6430 C   0  0  0  0  0  0  0  0  0  0  0  0
  7  8  1  0  0  0
  8  9  2  0  0  0
  9 10  1  0  0  0
 10 11  1  0  0  0
 10 12  2  0  0  0
 12 13  1  0  0  0
 13 14  2  0  0  0
 14 15  1  0  0  0
 12  1  1  0  0  0
  1  2  2  0  0  0
  2  3  1  0  0  0
  3  4  2  0  0  0
  4 16  1  0  0  0
 16 17  1  0  0  0
 17 18  1  0  0  0
 18 19  1  0  0  0
 19 20  1  0  0  0
 20 21  2  0  0  0
 21 22  1  0  0  0
 22 23  2  0  0  0
 23 24  1  0  0  0
 24 25  2  0  0  0
  4  5  1  0  0  0
  5  6  2  0  0  0
 14  8  1  0  0  0
  6  1  1  0  0  0
 25 20  1  0  0  0
M  END
> <minimizedAffinity>
-7.75471

> <CNNscore>
0.5057902336

> <CNNaffinity>
5.9081802368

> <CNN_VS>
2.9882998466

> <CNNaffinity_variance>
0.1516848803

$$$$
[H]c1nc([H])c(C([H])([H])C([H])([H])C([H])([H])Oc2c([H])c([H])c(-c3c([H])c(C([H])([H])[H])c(C([H])([H])[H])c([H])c3C([H])([H])[H])c([H])c2[H])c([H])c1[H]


 25 27  0  0  0  0  0  0  0  0999 V2000
    4.5067    6.3792   18.8548 C   0  0  0  0  0  0  0  0  0  0  0  0
    5.7608    5.9317   19.2108 C   0  0  0  0  0  0  0  0  0  0  0  0
    5.9177    5.0001   20.2128 C   0  0  0  0  0  0  0  0  0  0  0  0
    4.8440    4.4675   20.9092 C   0  0  0  0  0  0  0  0  0  0  0  0
    3.5840    4.9061   20.5632 C   0  0  0  0  0  0  0  0  0  0  0  0
    3.4261    5.8339   19.5656 C   0  0  0  0  0  0  0  0  0  0  0  0
    3.5325   10.2203   14.6392 C   0  0  0  0  0  0  0  0  0  0  0  0
    3.7819    9.2288   15.7380 C   0  0  0  0  0  0  0  0  0  0  0  0
    3.8497    9.6157   17.0553 C   0  0  0  0  0  0  0  0  0  0  0  0
    4.0824    8.6954   18.0880 C   0  0  0  0  0  0  0  0  0  0  0  0
    4.1324    9.1740   19.4836 C   0  0  0  0  0  0  0  0  0  0  0  0
    4.2522    7.3651   17.8133 C   0  0  0  0  0  0  0  0  0  0  0  0
    4.1807    6.9840   16.4682 C   0  0  0  0  0  0  0  0  0  0  0  0
    3.9517    7.8914   15.4576 C   0  0  0  0  0  0  0  0  0  0  0  0
    3.8845    7.4371   14.0443 C   0  0  0  0  0  0  0  0  0  0  0  0
    4.9744    3.5398   21.9098 O   0  0  0  0  0  0  0  0  0  0  0  0
    3.8603    3.0016   22.5979 C   0  0  0  0  0  0  0  0  0  0  0  0
    3.6203    1.5607   22.2598 C   0  0  0  0  0  0  0  0  0  0  0  0
    4.5804    1.1925   21.1396 C   0  0  0  0  0  0  0  0  0  0  0  0
    3.8812    0.8472   19.8906 C   0  0  0  0  0  0  0  0  0  0  0  0
    4.2327    1.4891   18.7262 C   0  0  0  0  0  0  0  0  0  0  0  0
    3.5741    1.1655   17.5432 C   0  0  0  0  0  0  0  0  0  0  0  0
    2.5755    0.2168   17.5027 C   0  0  0  0  0  0  0  0  0  0  0  0
    2.2604   -0.3918   18.6736 N   0  0  0  0  0  0  0  0  0  0  0  0
    2.8786   -0.0999   19.8293 C   0  0  0  0  0  0  0  0  0  0  0  0
  7  8  1  0  0  0
  8  9  2  0  0  0
  9 10  1  0  0  0
 10 11  1  0  0  0
 10 12  2  0  0  0
 12 13  1  0  0  0
 13 14  2  0  0  0
 14 15  1  0  0  0
 12  1  1  0  0  0
  1  2  2  0  0  0
  2  3  1  0  0  0
  3  4  2  0  0  0
  4 16  1  0  0  0
 16 17  1  0  0  0
 17 18  1  0  0  0
 18 19  1  0  0  0
 19 20  1  0  0  0
 20 21  2  0  0  0
 21 22  1  0  0  0
 22 23  2  0  0  0
 23 24  1  0  0  0
 24 25  2  0  0  0
  4  5  1  0  0  0
  5  6  2  0  0  0
 14  8  1  0  0  0
  6  1  1  0  0  0
 25 20  1  0  0  0
M  END
> <minimizedAffinity>
-7.51355

> <CNNscore>
0.5036472082

> <CNNaffinity>
5.9483461380

> <CNN_VS>
2.9958679676

> <CNNaffinity_variance>
0.4732466638

$$$$
[H]c1nc([H])c(C([H])([H])C([H])([H])C([H])([H])Oc2c([H])c([H])c(-c3c([H])c(C([H])([H])[H])c(C([H])([H])[H])c([H])c3C([H])([H])[H])c([H])c2[H])c([H])c1[H]


 25 27  0  0  0  0  0  0  0  0999 V2000
    3.7056    3.6569   17.6107 C   0  0  0  0  0  0  0  0  0  0  0  0
    2.7852    4.6767   17.4989 C   0  0  0  0  0  0  0  0  0  0  0  0
    2.2516    5.0124   16.2745 C   0  0  0  0  0  0  0  0  0  0  0  0
    2.6021    4.3567   15.1045 C   0  0  0  0  0  0  0  0  0  0  0  0
    3.5216    3.3346   15.2019 C   0  0  0  0  0  0  0  0  0  0  0  0
    4.0539    2.9993   16.4206 C   0  0  0  0  0  0  0  0  0  0  0  0
    6.0788    1.9270   22.5957 C   0  0  0  0  0  0  0  0  0  0  0  0
    5.4691    2.3810   21.3015 C   0  0  0  0  0  0  0  0  0  0  0  0
    5.7550    3.6134   20.7640 C   0  0  0  0  0  0  0  0  0  0  0  0
    5.1894    4.0450   19.5552 C   0  0  0  0  0  0  0  0  0  0  0  0
    5.5466    5.3760   19.0258 C   0  0  0  0  0  0  0  0  0  0  0  0
    4.3229    3.2423   18.8631 C   0  0  0  0  0  0  0  0  0  0  0  0
    4.0403    1.9899   19.4209 C   0  0  0  0  0  0  0  0  0  0  0  0
    4.5983    1.5703   20.6082 C   0  0  0  0  0  0  0  0  0  0  0  0
    4.2664    0.2309   21.1596 C   0  0  0  0  0  0  0  0  0  0  0  0
    2.0853    4.6721   13.8747 O   0  0  0  0  0  0  0  0  0  0  0  0
    1.4160    3.7232   13.0648 C   0  0  0  0  0  0  0  0  0  0  0  0
    0.2677    4.3234   12.3103 C   0  0  0  0  0  0  0  0  0  0  0  0
    0.0505    5.7257   12.8565 C   0  0  0  0  0  0  0  0  0  0  0  0
   -1.3740    6.0949   12.9074 C   0  0  0  0  0  0  0  0  0  0  0  0
   -2.2413    5.5481   11.9909 C   0  0  0  0  0  0  0  0  0  0  0  0
   -3.5889    5.8945   12.0356 C   0  0  0  0  0  0  0  0  0  0  0  0
   -4.0831    6.7733   12.9750 C   0  0  0  0  0  0  0  0  0  0  0  0
   -3.1933    7.2892   13.8598 N   0  0  0  0  0  0  0  0  0  0  0  0
   -1.8884    6.9730   13.8402 C   0  0  0  0  0  0  0  0  0  0  0  0
  7  8  1  0  0  0
  8  9  2  0  0  0
  9 10  1  0  0  0
 10 11  1  0  0  0
 10 12  2  0  0  0
 12 13  1  0  0  0
 13 14  2  0  0  0
 14 15  1  0  0  0
 12  1  1  0  0  0
  1  2  2  0  0  0
  2  3  1  0  0  0
  3  4  2  0  0  0
  4 16  1  0  0  0
 16 17  1  0  0  0
 17 18  1  0  0  0
 18 19  1  0  0  0
 19 20  1  0  0  0
 20 21  2  0  0  0
 21 22  1  0  0  0
 22 23  2  0  0  0
 23 24  1  0  0  0
 24 25  2  0  0  0
  4  5  1  0  0  0
  5  6  2  0  0  0
 14  8  1  0  0  0
  6  1  1  0  0  0
 25 20  1  0  0  0
M  END
> <minimizedAffinity>
-7.68016

> <CNNscore>
0.4751620889

> <CNNaffinity>
5.6313900948

> <CNN_VS>
2.6758229733

> <CNNaffinity_variance>
0.1903568953

$$$$
[H]c1nc([H])c(C([H])([H])C([H])([H])C([H])([H])Oc2c([H])c([H])c(-c3c([H])c(C([H])([H])[H])c(C([H])([H])[H])c([H])c3C([H])([H])[H])c([H])c2[H])c([H])c1[H]


 25 27  0  0  0  0  0  0  0  0999 V2000
    3.9380    2.6561   17.1018 C   0  0  0  0  0  0  0  0  0  0  0  0
    4.1018    3.6113   16.1216 C   0  0  0  0  0  0  0  0  0  0  0  0
    3.6268    3.4000   14.8464 C   0  0  0  0  0  0  0  0  0  0  0  0
    2.9685    2.2363   14.4802 C   0  0  0  0  0  0  0  0  0  0  0  0
    2.7976    1.2727   15.4508 C   0  0  0  0  0  0  0  0  0  0  0  0
    3.2702    1.4817   16.7212 C   0  0  0  0  0  0  0  0  0  0  0  0
    5.8152    3.0971   22.5567 C   0  0  0  0  0  0  0  0  0  0  0  0
    5.3299    2.9904   21.1404 C   0  0  0  0  0  0  0  0  0  0  0  0
    4.9243    4.0969   20.4329 C   0  0  0  0  0  0  0  0  0  0  0  0
    4.4696    4.0056   19.1091 C   0  0  0  0  0  0  0  0  0  0  0  0
    4.0589    5.2339   18.4007 C   0  0  0  0  0  0  0  0  0  0  0  0
    4.4141    2.7956   18.4713 C   0  0  0  0  0  0  0  0  0  0  0  0
    4.8300    1.6767   19.2025 C   0  0  0  0  0  0  0  0  0  0  0  0
    5.2761    1.7714   20.5022 C   0  0  0  0  0  0  0  0  0  0  0  0
    5.7070    0.5536   21.2366 C   0  0  0  0  0  0  0  0  0  0  0  0
    2.4869    2.0028   13.2183 O   0  0  0  0  0  0  0  0  0  0  0  0
    1.1304    2.2124   12.8710 C   0  0  0  0  0  0  0  0  0  0  0  0
    0.9782    3.0729   11.6526 C   0  0  0  0  0  0  0  0  0  0  0  0
    1.4474    4.4707   12.0239 C   0  0  0  0  0  0  0  0  0  0  0  0
    0.3916    5.2638   12.6753 C   0  0  0  0  0  0  0  0  0  0  0  0
   -0.8495    5.3388   12.0875 C   0  0  0  0  0  0  0  0  0  0  0  0
   -1.8505    6.0875   12.7002 C   0  0  0  0  0  0  0  0  0  0  0  0
   -1.6349    6.7595   13.8838 C   0  0  0  0  0  0  0  0  0  0  0  0
   -0.3968    6.6587   14.4292 N   0  0  0  0  0  0  0  0  0  0  0  0
    0.5875    5.9439   13.8606 C   0  0  0  0  0  0  0  0  0  0  0  0
  7  8  1  0  0  0
  8  9  2  0  0  0
  9 10  1  0  0  0
 10 11  1  0  0  0
 10 12  2  0  0  0
 12 13  1  0  0  0
 13 14  2  0  0  0
 14 15  1  0  0  0
 12  1  1  0  0  0
  1  2  2  0  0  0
  2  3  1  0  0  0
  3  4  2  0  0  0
  4 16  1  0  0  0
 16 17  1  0  0  0
 17 18  1  0  0  0
 18 19  1  0  0  0
 19 20  1  0  0  0
 20 21  2  0  0  0
 21 22  1  0  0  0
 22 23  2  0  0  0
 23 24  1  0  0  0
 24 25  2  0  0  0
  4  5  1  0  0  0
  5  6  2  0  0  0
 14  8  1  0  0  0
  6  1  1  0  0  0
 25 20  1  0  0  0
M  END
> <minimizedAffinity>
-7.68185

> <CNNscore>
0.4478711188

> <CNNaffinity>
5.8573646545

> <CNN_VS>
2.6233444214

> <CNNaffinity_variance>
0.2399005890

$$$$
[H]c1nc([H])c(C([H])([H])C([H])([H])C([H])([H])Oc2c([H])c([H])c(-c3c([H])c(C([H])([H])[H])c(C([H])([H])[H])c([H])c3C([H])([H])[H])c([H])c2[H])c([H])c1[H]


 25 27  0  0  0  0  0  0  0  0999 V2000
    4.1570    1.8743   18.5302 C   0  0  0  0  0  0  0  0  0  0  0  0
    4.7145    2.7328   17.6072 C   0  0  0  0  0  0  0  0  0  0  0  0
    4.3902    2.6382   16.2721 C   0  0  0  0  0  0  0  0  0  0  0  0
    3.5007    1.6921   15.7871 C   0  0  0  0  0  0  0  0  0  0  0  0
    2.9356    0.8272   16.6994 C   0  0  0  0  0  0  0  0  0  0  0  0
    3.2577    0.9201   18.0293 C   0  0  0  0  0  0  0  0  0  0  0  0
    5.4110    2.0435   24.1758 C   0  0  0  0  0  0  0  0  0  0  0  0
    5.0789    1.9959   22.7130 C   0  0  0  0  0  0  0  0  0  0  0  0
    4.1904    1.0778   22.2057 C   0  0  0  0  0  0  0  0  0  0  0  0
    3.8747    1.0268   20.8401 C   0  0  0  0  0  0  0  0  0  0  0  0
    2.9034    0.0237   20.3608 C   0  0  0  0  0  0  0  0  0  0  0  0
    4.4492    1.9010   19.9569 C   0  0  0  0  0  0  0  0  0  0  0  0
    5.3518    2.8310   20.4860 C   0  0  0  0  0  0  0  0  0  0  0  0
    5.6586    2.8773   21.8279 C   0  0  0  0  0  0  0  0  0  0  0  0
    6.6239    3.8838   22.3411 C   0  0  0  0  0  0  0  0  0  0  0  0
    3.1621    1.5781   14.4638 O   0  0  0  0  0  0  0  0  0  0  0  0
    2.0770    2.2858   13.8926 C   0  0  0  0  0  0  0  0  0  0  0  0
    2.5006    3.5895   13.2850 C   0  0  0  0  0  0  0  0  0  0  0  0
    1.7101    4.6892   13.9762 C   0  0  0  0  0  0  0  0  0  0  0  0
    2.4394    5.2767   15.1125 C   0  0  0  0  0  0  0  0  0  0  0  0
    3.5452    6.0569   14.8680 C   0  0  0  0  0  0  0  0  0  0  0  0
    4.2375    6.6142   15.9395 C   0  0  0  0  0  0  0  0  0  0  0  0
    3.8468    6.4070   17.2446 C   0  0  0  0  0  0  0  0  0  0  0  0
    2.7511    5.6313   17.4407 N   0  0  0  0  0  0  0  0  0  0  0  0
    2.0642    5.0811   16.4266 C   0  0  0  0  0  0  0  0  0  0  0  0
  7  8  1  0  0  0
  8  9  2  0  0  0
  9 10  1  0  0  0
 10 11  1  0  0  0
 10 12  2  0  0  0
 12 13  1  0  0  0
 13 14  2  0  0  0
 14 15  1  0  0  0
 12  1  1  0  0  0
  1  2  2  0  0  0
  2  3  1  0  0  0
  3  4  2  0  0  0
  4 16  1  0  0  0
 16 17  1  0  0  0
 17 18  1  0  0  0
 18 19  1  0  0  0
 19 20  1  0  0  0
 20 21  2  0  0  0
 21 22  1  0  0  0
 22 23  2  0  0  0
 23 24  1  0  0  0
 24 25  2  0  0  0
  4  5  1  0  0  0
  5  6  2  0  0  0
 14  8  1  0  0  0
  6  1  1  0  0  0
 25 20  1  0  0  0
M  END
> <minimizedAffinity>
-7.72911

> <CNNscore>
0.4416791201

> <CNNaffinity>
6.2711553574

> <CNN_VS>
2.7698383331

> <CNNaffinity_variance>
0.0910659879

$$$$
[H]c1nc([H])c(C([H])([H])C([H])([H])C([H])([H])Oc2c([H])c([H])c(-c3c([H])c(C([H])([H])[H])c(C([H])([H])[H])c([H])c3C([H])([H])[H])c([H])c2[H])c([H])c1[H]


 25 27  0  0  0  0  0  0  0  0999 V2000
    6.4010    6.1730   20.4051 C   0  0  0  0  0  0  0  0  0  0  0  0
    5.3463    5.2859   20.4252 C   0  0  0  0  0  0  0  0  0  0  0  0
    4.8116    4.8012   19.2523 C   0  0  0  0  0  0  0  0  0  0  0  0
    5.2936    5.1697   18.0060 C   0  0  0  0  0  0  0  0  0  0  0  0
    6.3484    6.0562   17.9712 C   0  0  0  0  0  0  0  0  0  0  0  0
    6.8819    6.5399   19.1384 C   0  0  0  0  0  0  0  0  0  0  0  0
    8.9184    8.3196   25.1516 C   0  0  0  0  0  0  0  0  0  0  0  0
    8.2621    7.7699   23.9188 C   0  0  0  0  0  0  0  0  0  0  0  0
    7.1547    8.3672   23.3653 C   0  0  0  0  0  0  0  0  0  0  0  0
    6.5356    7.8597   22.2135 C   0  0  0  0  0  0  0  0  0  0  0  0
    5.3558    8.5550   21.6623 C   0  0  0  0  0  0  0  0  0  0  0  0
    7.0207    6.7383   21.5958 C   0  0  0  0  0  0  0  0  0  0  0  0
    8.1488    6.1398   22.1691 C   0  0  0  0  0  0  0  0  0  0  0  0
    8.7534    6.6419   23.3002 C   0  0  0  0  0  0  0  0  0  0  0  0
    9.9496    5.9700   23.8710 C   0  0  0  0  0  0  0  0  0  0  0  0
    4.7787    4.7013   16.8251 O   0  0  0  0  0  0  0  0  0  0  0  0
    3.3869    4.6434   16.5721 C   0  0  0  0  0  0  0  0  0  0  0  0
    2.9840    3.3776   15.8767 C   0  0  0  0  0  0  0  0  0  0  0  0
    4.0049    2.3132   16.2463 C   0  0  0  0  0  0  0  0  0  0  0  0
    3.5135    1.4021   17.2933 C   0  0  0  0  0  0  0  0  0  0  0  0
    4.0184    1.5112   18.5678 C   0  0  0  0  0  0  0  0  0  0  0  0
    3.5565    0.6517   19.5608 C   0  0  0  0  0  0  0  0  0  0  0  0
    2.6036   -0.3102   19.3044 C   0  0  0  0  0  0  0  0  0  0  0  0
    2.1326   -0.3834   18.0342 N   0  0  0  0  0  0  0  0  0  0  0  0
    2.5599    0.4323   17.0568 C   0  0  0  0  0  0  0  0  0  0  0  0
  7  8  1  0  0  0
  8  9  2  0  0  0
  9 10  1  0  0  0
 10 11  1  0  0  0
 10 12  2  0  0  0
 12 13  1  0  0  0
 13 14  2  0  0  0
 14 15  1  0  0  0
 12  1  1  0  0  0
  1  2  2  0  0  0
  2  3  1  0  0  0
  3  4  2  0  0  0
  4 16  1  0  0  0
 16 17  1  0  0  0
 17 18  1  0  0  0
 18 19  1  0  0  0
 19 20  1  0  0  0
 20 21  2  0  0  0
 21 22  1  0  0  0
 22 23  2  0  0  0
 23 24  1  0  0  0
 24 25  2  0  0  0
  4  5  1  0  0  0
  5  6  2  0  0  0
 14  8  1  0  0  0
  6  1  1  0  0  0
 25 20  1  0  0  0
M  END
> <minimizedAffinity>
-7.34571

> <CNNscore>
0.3769469261

> <CNNaffinity>
5.6837573051

> <CNN_VS>
2.1424748898

> <CNNaffinity_variance>
0.3187072575

$$$$
[H]c1nc([H])c(C([H])([H])C([H])([H])C([H])([H])Oc2c([H])c([H])c(-c3c([H])c(C([H])([H])[H])c(C([H])([H])[H])c([H])c3C([H])([H])[H])c([H])c2[H])c([H])c1[H]


 25 27  0  0  0  0  0  0  0  0999 V2000
    3.8118    2.3613   17.2375 C   0  0  0  0  0  0  0  0  0  0  0  0
    2.9983    1.3095   16.8743 C   0  0  0  0  0  0  0  0  0  0  0  0
    2.6141    1.1369   15.5632 C   0  0  0  0  0  0  0  0  0  0  0  0
    3.0153    1.9945   14.5506 C   0  0  0  0  0  0  0  0  0  0  0  0
    3.8291    3.0505   14.8999 C   0  0  0  0  0  0  0  0  0  0  0  0
    4.2126    3.2238   16.2052 C   0  0  0  0  0  0  0  0  0  0  0  0
    5.6075    3.2783   22.6605 C   0  0  0  0  0  0  0  0  0  0  0  0
    5.1411    3.0483   21.2526 C   0  0  0  0  0  0  0  0  0  0  0  0
    4.4264    4.0009   20.5661 C   0  0  0  0  0  0  0  0  0  0  0  0
    3.9870    3.7936   19.2502 C   0  0  0  0  0  0  0  0  0  0  0  0
    3.2333    4.8616   18.5643 C   0  0  0  0  0  0  0  0  0  0  0  0
    4.2591    2.6204   18.5993 C   0  0  0  0  0  0  0  0  0  0  0  0
    4.9877    1.6588   19.3091 C   0  0  0  0  0  0  0  0  0  0  0  0
    5.4173    1.8670   20.6011 C   0  0  0  0  0  0  0  0  0  0  0  0
    6.1881    0.8145   21.3128 C   0  0  0  0  0  0  0  0  0  0  0  0
    2.6465    1.8438   13.2390 O   0  0  0  0  0  0  0  0  0  0  0  0
    2.9078    2.8300   12.2574 C   0  0  0  0  0  0  0  0  0  0  0  0
    2.1295    2.6023   10.9962 C   0  0  0  0  0  0  0  0  0  0  0  0
    2.2529    1.1273   10.6480 C   0  0  0  0  0  0  0  0  0  0  0  0
    3.4213    0.8463    9.7971 C   0  0  0  0  0  0  0  0  0  0  0  0
    4.1351   -0.3116    9.9999 C   0  0  0  0  0  0  0  0  0  0  0  0
    5.2404   -0.5812    9.1976 C   0  0  0  0  0  0  0  0  0  0  0  0
    5.6435    0.2813    8.2013 C   0  0  0  0  0  0  0  0  0  0  0  0
    4.9114    1.4114    8.0354 N   0  0  0  0  0  0  0  0  0  0  0  0
    3.8410    1.6971    8.7942 C   0  0  0  0  0  0  0  0  0  0  0  0
  7  8  1  0  0  0
  8  9  2  0  0  0
  9 10  1  0  0  0
 10 11  1  0  0  0
 10 12  2  0  0  0
 12 13  1  0  0  0
 13 14  2  0  0  0
 14 15  1  0  0  0
 12  1  1  0  0  0
  1  2  2  0  0  0
  2  3  1  0  0  0
  3  4  2  0  0  0
  4 16  1  0  0  0
 16 17  1  0  0  0
 17 18  1  0  0  0
 18 19  1  0  0  0
 19 20  1  0  0  0
 20 21  2  0  0  0
 21 22  1  0  0  0
 22 23  2  0  0  0
 23 24  1  0  0  0
 24 25  2  0  0  0
  4  5  1  0  0  0
  5  6  2  0  0  0
 14  8  1  0  0  0
  6  1  1  0  0  0
 25 20  1  0  0  0
M  END
> <minimizedAffinity>
-7.10519

> <CNNscore>
0.3651007414

> <CNNaffinity>
5.6327719688

> <CNN_VS>
2.0565292835

> <CNNaffinity_variance>
0.2537982166

$$$$
[H]Oc1c([H])c([H])c(C([H])([H])[C@@]([H])(C(=O)N([H])[C@]([H])(C(=O)N2C([H])([H])C([H])([H])C([H])([H])[C@@]2([H])C(=O)N([H])[C@]([H])(C(=O)N([H])[C@]([H])(C(=O)N([H])[H])C([H])([H])c2c([H])c([H])c([H])c([H])c2[H])C([H])([H])[H])C([H])([H])c2c([H])c([H])c([H])c([H])c2[H])N([H])[H])c([H])c1[H]


 55 58  0  0  0  0  0  0  0  0999 V2000
    1.2330    6.8459   13.8690 C   0  0  0  0  0  0  0  0  0  0  0  0
    1.4941    8.0185   13.0164 C   0  0  0  0  0  0  0  0  0  0  0  0
    2.9894    8.2145   13.0868 C   0  0  0  0  0  0  0  0  0  0  0  0
    3.4995    6.7882   13.4087 C   0  0  0  0  0  0  0  0  0  0  0  0
    2.4806    6.3500   14.3297 N   0  0  0  0  0  0  0  0  0  0  0  0
    2.7100    5.5941   15.4966 C   0  0  0  0  0  0  0  0  0  0  0  0
    1.6669    5.3739   16.2374 O   0  0  0  0  0  0  0  0  0  0  0  0
   -0.9104    6.1322   12.7028 N   0  0  0  0  0  0  0  0  0  0  0  0
    0.3671    5.8245   13.2172 C   0  0  0  0  0  0  0  0  0  0  0  0
    0.8080    4.6666   13.1346 O   0  0  0  0  0  0  0  0  0  0  0  0
   -1.2156    7.1505   12.8092 H   0  0  0  0  0  0  0  0  0  0  0  0
   -3.2320    5.6264   12.0199 C   0  0  0  0  0  0  0  0  0  0  0  0
   -1.7986    5.2130   12.0662 C   0  0  0  0  0  0  0  0  0  0  0  0
   -1.3637    4.9056   10.6618 C   0  0  0  0  0  0  0  0  0  0  0  0
   -1.1216    5.8124    9.8480 O   0  0  0  0  0  0  0  0  0  0  0  0
   -1.2367    3.5583   10.2852 N   0  0  0  0  0  0  0  0  0  0  0  0
   -1.4679    2.8264   11.0249 H   0  0  0  0  0  0  0  0  0  0  0  0
   -0.8304    3.0299    9.0192 C   0  0  0  0  0  0  0  0  0  0  0  0
   -1.9462    3.0223    8.0031 C   0  0  0  0  0  0  0  0  0  0  0  0
   -2.8492    1.9085    8.0625 N   0  0  0  0  0  0  0  0  0  0  0  0
   -2.1414    3.8818    7.1432 O   0  0  0  0  0  0  0  0  0  0  0  0
   -2.5157    1.0026    7.6687 H   0  0  0  0  0  0  0  0  0  0  0  0
   -3.7872    2.0632    8.4931 H   0  0  0  0  0  0  0  0  0  0  0  0
   -0.2118    1.6883    9.0260 C   0  0  0  0  0  0  0  0  0  0  0  0
    1.2425    1.6289    9.1619 C   0  0  0  0  0  0  0  0  0  0  0  0
    1.9360    0.7692   10.0047 C   0  0  0  0  0  0  0  0  0  0  0  0
    3.3129    0.7908   10.0822 C   0  0  0  0  0  0  0  0  0  0  0  0
    4.0488    1.6615    9.3306 C   0  0  0  0  0  0  0  0  0  0  0  0
    3.3852    2.5270    8.4847 C   0  0  0  0  0  0  0  0  0  0  0  0
    2.0112    2.4994    8.4122 C   0  0  0  0  0  0  0  0  0  0  0  0
    4.0024    5.0400   15.9590 C   0  0  0  0  0  0  0  0  0  0  0  0
    4.1019    5.0435   17.3952 N   0  0  0  0  0  0  0  0  0  0  0  0
    4.5802    6.1059   18.1907 C   0  0  0  0  0  0  0  0  0  0  0  0
    4.9858    7.2036   17.7041 O   0  0  0  0  0  0  0  0  0  0  0  0
    3.7876    4.1657   17.9111 H   0  0  0  0  0  0  0  0  0  0  0  0
    4.6005    5.9143   19.6768 C   0  0  0  0  0  0  0  0  0  0  0  0
    4.2133    7.1033   20.3707 N   0  0  0  0  0  0  0  0  0  0  0  0
    4.5751    7.1606   21.3462 H   0  0  0  0  0  0  0  0  0  0  0  0
    3.1874    7.1868   20.3861 H   0  0  0  0  0  0  0  0  0  0  0  0
    3.8297    4.6844   20.0277 C   0  0  0  0  0  0  0  0  0  0  0  0
    4.3177    4.0377   21.2690 C   0  0  0  0  0  0  0  0  0  0  0  0
    3.6877    4.2872   22.4640 C   0  0  0  0  0  0  0  0  0  0  0  0
    4.1753    3.6674   23.5964 C   0  0  0  0  0  0  0  0  0  0  0  0
    5.2703    2.8208   23.5161 C   0  0  0  0  0  0  0  0  0  0  0  0
    5.7274    2.2140   24.7032 O   0  0  0  0  0  0  0  0  0  0  0  0
    5.8979    2.5754   22.3133 C   0  0  0  0  0  0  0  0  0  0  0  0
    5.4033    3.1982   21.1894 C   0  0  0  0  0  0  0  0  0  0  0  0
    6.5028    1.5938   24.7431 H   0  0  0  0  0  0  0  0  0  0  0  0
    4.2502    3.6953   15.3613 C   0  0  0  0  0  0  0  0  0  0  0  0
    3.8667    2.5571   16.2264 C   0  0  0  0  0  0  0  0  0  0  0  0
    2.7504    1.8197   15.9309 C   0  0  0  0  0  0  0  0  0  0  0  0
    2.4040    0.7701   16.7964 C   0  0  0  0  0  0  0  0  0  0  0  0
    3.1549    0.4790   17.9118 C   0  0  0  0  0  0  0  0  0  0  0  0
    4.2781    1.2467   18.1775 C   0  0  0  0  0  0  0  0  0  0  0  0
    4.6258    2.2663   17.3491 C   0  0  0  0  0  0  0  0  0  0  0  0
 12 13  1  0  0  0
 13  8  1  0  0  0
  8  9  1  0  0  0
  9 10  2  0  0  0
  9  1  1  0  0  0
  1  2  1  0  0  0
  2  3  1  0  0  0
  3  4  1  0  0  0
  4  5  1  0  0  0
  5  6  1  0  0  0
  6  7  2  0  0  0
  6 31  1  0  0  0
 31 49  1  0  0  0
 49 50  1  0  0  0
 50 51  2  0  0  0
 51 52  1  0  0  0
 52 53  2  0  0  0
 53 54  1  0  0  0
 54 55  2  0  0  0
 31 32  1  0  0  0
 32 33  1  0  0  0
 33 34  2  0  0  0
 33 36  1  0  0  0
 36 37  1  0  0  0
 36 40  1  0  0  0
 40 41  1  0  0  0
 41 42  2  0  0  0
 42 43  1  0  0  0
 43 44  2  0  0  0
 44 45  1  0  0  0
 44 46  1  0  0  0
 46 47  2  0  0  0
 13 14  1  0  0  0
 14 15  2  0  0  0
 14 16  1  0  0  0
 16 18  1  0  0  0
 18 24  1  0  0  0
 24 25  1  0  0  0
 25 26  2  0  0  0
 26 27  1  0  0  0
 27 28  2  0  0  0
 28 29  1  0  0  0
 29 30  2  0  0  0
 18 19  1  0  0  0
 19 20  1  0  0  0
 19 21  2  0  0  0
  5  1  1  0  0  0
 55 50  1  0  0  0
 47 41  1  0  0  0
 30 25  1  0  0  0
  8 11  1  0  0  0
 32 35  1  0  0  0
 37 38  1  0  0  0
 37 39  1  0  0  0
 45 48  1  0  0  0
 16 17  1  0  0  0
 20 22  1  0  0  0
 20 23  1  0  0  0
M  END
> <minimizedAffinity>
-8.63198

> <CNNscore>
0.4544858336

> <CNNaffinity>
6.9414877892

> <CNN_VS>
3.1548078060

> <CNNaffinity_variance>
0.2197329551

$$$$
[H]Oc1c([H])c([H])c(C([H])([H])[C@@]([H])(C(=O)N([H])[C@]([H])(C(=O)N2C([H])([H])C([H])([H])C([H])([H])[C@@]2([H])C(=O)N([H])[C@]([H])(C(=O)N([H])[C@]([H])(C(=O)N([H])[H])C([H])([H])c2c([H])c([H])c([H])c([H])c2[H])C([H])([H])[H])C([H])([H])c2c([H])c([H])c([H])c([H])c2[H])N([H])[H])c([H])c1[H]


 55 58  0  0  0  0  0  0  0  0999 V2000
    4.2905    5.4623   16.2958 C   0  0  0  0  0  0  0  0  0  0  0  0
    3.4781    4.2523   16.0810 C   0  0  0  0  0  0  0  0  0  0  0  0
    2.9578    3.8951   17.4525 C   0  0  0  0  0  0  0  0  0  0  0  0
    2.9615    5.2627   18.1790 C   0  0  0  0  0  0  0  0  0  0  0  0
    4.1838    5.8271   17.6634 N   0  0  0  0  0  0  0  0  0  0  0  0
    5.1136    6.5750   18.4129 C   0  0  0  0  0  0  0  0  0  0  0  0
    6.1941    6.9220   17.7823 O   0  0  0  0  0  0  0  0  0  0  0  0
    4.8778    7.6136   15.0748 N   0  0  0  0  0  0  0  0  0  0  0  0
    3.9770    6.5600   15.3394 C   0  0  0  0  0  0  0  0  0  0  0  0
    2.8764    6.5244   14.7656 O   0  0  0  0  0  0  0  0  0  0  0  0
    5.8042    7.5703   15.6052 H   0  0  0  0  0  0  0  0  0  0  0  0
    4.4990   10.0420   14.8090 C   0  0  0  0  0  0  0  0  0  0  0  0
    4.6526    8.6994   14.1752 C   0  0  0  0  0  0  0  0  0  0  0  0
    5.7410    8.7997   13.1451 C   0  0  0  0  0  0  0  0  0  0  0  0
    6.6010    9.6945   13.1997 O   0  0  0  0  0  0  0  0  0  0  0  0
    5.7648    7.8516   12.1089 N   0  0  0  0  0  0  0  0  0  0  0  0
    4.9946    7.1146   12.1110 H   0  0  0  0  0  0  0  0  0  0  0  0
    6.7023    7.7421   11.0336 C   0  0  0  0  0  0  0  0  0  0  0  0
    6.0349    7.5951    9.6882 C   0  0  0  0  0  0  0  0  0  0  0  0
    5.5764    8.8080    9.0730 N   0  0  0  0  0  0  0  0  0  0  0  0
    5.8571    6.5362    9.0856 O   0  0  0  0  0  0  0  0  0  0  0  0
    4.6936    9.2245    9.4395 H   0  0  0  0  0  0  0  0  0  0  0  0
    6.1465    9.2062    8.2948 H   0  0  0  0  0  0  0  0  0  0  0  0
    7.7282    6.6855   11.1507 C   0  0  0  0  0  0  0  0  0  0  0  0
    9.1043    7.1197   11.3852 C   0  0  0  0  0  0  0  0  0  0  0  0
   10.2122    6.7070   10.6554 C   0  0  0  0  0  0  0  0  0  0  0  0
   11.4812    7.1562   10.9555 C   0  0  0  0  0  0  0  0  0  0  0  0
   11.6970    8.0266   11.9853 C   0  0  0  0  0  0  0  0  0  0  0  0
   10.6138    8.4527   12.7270 C   0  0  0  0  0  0  0  0  0  0  0  0
    9.3504    8.0007   12.4215 C   0  0  0  0  0  0  0  0  0  0  0  0
    4.9871    6.9927   19.8274 C   0  0  0  0  0  0  0  0  0  0  0  0
    5.5136    5.9996   20.7267 N   0  0  0  0  0  0  0  0  0  0  0  0
    4.7614    5.2063   21.6184 C   0  0  0  0  0  0  0  0  0  0  0  0
    3.5011    5.2913   21.7222 O   0  0  0  0  0  0  0  0  0  0  0  0
    6.5679    5.8448   20.7243 H   0  0  0  0  0  0  0  0  0  0  0  0
    5.4993    4.2208   22.4728 C   0  0  0  0  0  0  0  0  0  0  0  0
    4.6852    3.7302   23.5412 N   0  0  0  0  0  0  0  0  0  0  0  0
    5.2272    3.3767   24.3581 H   0  0  0  0  0  0  0  0  0  0  0  0
    4.0643    2.9834   23.1999 H   0  0  0  0  0  0  0  0  0  0  0  0
    6.1170    3.1765   21.6023 C   0  0  0  0  0  0  0  0  0  0  0  0
    5.1423    2.1519   21.1579 C   0  0  0  0  0  0  0  0  0  0  0  0
    4.5577    1.3179   22.0798 C   0  0  0  0  0  0  0  0  0  0  0  0
    3.6580    0.3760   21.6241 C   0  0  0  0  0  0  0  0  0  0  0  0
    3.3626    0.2846   20.2726 C   0  0  0  0  0  0  0  0  0  0  0  0
    2.4368   -0.6952   19.8613 O   0  0  0  0  0  0  0  0  0  0  0  0
    3.9535    1.1249   19.3530 C   0  0  0  0  0  0  0  0  0  0  0  0
    4.8493    2.0613   19.8180 C   0  0  0  0  0  0  0  0  0  0  0  0
    2.1635   -0.8344   18.9162 H   0  0  0  0  0  0  0  0  0  0  0  0
    5.5826    8.3445   20.0391 C   0  0  0  0  0  0  0  0  0  0  0  0
    4.8666    9.4461   19.3574 C   0  0  0  0  0  0  0  0  0  0  0  0
    5.5571   10.5507   18.9329 C   0  0  0  0  0  0  0  0  0  0  0  0
    4.8340   11.5869   18.3212 C   0  0  0  0  0  0  0  0  0  0  0  0
    3.4718   11.5083   18.1459 C   0  0  0  0  0  0  0  0  0  0  0  0
    2.8078   10.3745   18.5876 C   0  0  0  0  0  0  0  0  0  0  0  0
    3.4941    9.3634   19.1820 C   0  0  0  0  0  0  0  0  0  0  0  0
 12 13  1  0  0  0
 13  8  1  0  0  0
  8  9  1  0  0  0
  9 10  2  0  0  0
  9  1  1  0  0  0
  1  2  1  0  0  0
  2  3  1  0  0  0
  3  4  1  0  0  0
  4  5  1  0  0  0
  5  6  1  0  0  0
  6  7  2  0  0  0
  6 31  1  0  0  0
 31 49  1  0  0  0
 49 50  1  0  0  0
 50 51  2  0  0  0
 51 52  1  0  0  0
 52 53  2  0  0  0
 53 54  1  0  0  0
 54 55  2  0  0  0
 31 32  1  0  0  0
 32 33  1  0  0  0
 33 34  2  0  0  0
 33 36  1  0  0  0
 36 37  1  0  0  0
 36 40  1  0  0  0
 40 41  1  0  0  0
 41 42  2  0  0  0
 42 43  1  0  0  0
 43 44  2  0  0  0
 44 45  1  0  0  0
 44 46  1  0  0  0
 46 47  2  0  0  0
 13 14  1  0  0  0
 14 15  2  0  0  0
 14 16  1  0  0  0
 16 18  1  0  0  0
 18 24  1  0  0  0
 24 25  1  0  0  0
 25 26  2  0  0  0
 26 27  1  0  0  0
 27 28  2  0  0  0
 28 29  1  0  0  0
 29 30  2  0  0  0
 18 19  1  0  0  0
 19 20  1  0  0  0
 19 21  2  0  0  0
  5  1  1  0  0  0
 55 50  1  0  0  0
 47 41  1  0  0  0
 30 25  1  0  0  0
  8 11  1  0  0  0
 32 35  1  0  0  0
 37 38  1  0  0  0
 37 39  1  0  0  0
 45 48  1  0  0  0
 16 17  1  0  0  0
 20 22  1  0  0  0
 20 23  1  0  0  0
M  END
> <minimizedAffinity>
-9.87090

> <CNNscore>
0.4259320796

> <CNNaffinity>
6.9753770828

> <CNN_VS>
2.9710369110

> <CNNaffinity_variance>
0.4221031666

$$$$
[H]Oc1c([H])c([H])c(C([H])([H])[C@@]([H])(C(=O)N([H])[C@]([H])(C(=O)N2C([H])([H])C([H])([H])C([H])([H])[C@@]2([H])C(=O)N([H])[C@]([H])(C(=O)N([H])[C@]([H])(C(=O)N([H])[H])C([H])([H])c2c([H])c([H])c([H])c([H])c2[H])C([H])([H])[H])C([H])([H])c2c([H])c([H])c([H])c([H])c2[H])N([H])[H])c([H])c1[H]


 55 58  0  0  0  0  0  0  0  0999 V2000
    5.9101   10.3823   19.1908 C   0  0  0  0  0  0  0  0  0  0  0  0
    4.7725   11.2068   19.6338 C   0  0  0  0  0  0  0  0  0  0  0  0
    3.7316   11.0298   18.5547 C   0  0  0  0  0  0  0  0  0  0  0  0
    4.0921    9.6438   17.9654 C   0  0  0  0  0  0  0  0  0  0  0  0
    5.5316    9.7151   17.9966 N   0  0  0  0  0  0  0  0  0  0  0  0
    6.3915    9.2335   16.9894 C   0  0  0  0  0  0  0  0  0  0  0  0
    7.6551    9.4713   17.1686 O   0  0  0  0  0  0  0  0  0  0  0  0
    7.7230    8.9057   20.1892 N   0  0  0  0  0  0  0  0  0  0  0  0
    6.4383    9.4857   20.2562 C   0  0  0  0  0  0  0  0  0  0  0  0
    5.7026    9.2559   21.2297 O   0  0  0  0  0  0  0  0  0  0  0  0
    8.2953    9.1553   19.3223 H   0  0  0  0  0  0  0  0  0  0  0  0
    8.8491    8.7090   22.3812 C   0  0  0  0  0  0  0  0  0  0  0  0
    8.3003    8.0385   21.1659 C   0  0  0  0  0  0  0  0  0  0  0  0
    7.3255    6.9902   21.6205 C   0  0  0  0  0  0  0  0  0  0  0  0
    7.0792    6.8171   22.8257 O   0  0  0  0  0  0  0  0  0  0  0  0
    6.6937    6.2021   20.6443 N   0  0  0  0  0  0  0  0  0  0  0  0
    6.9539    6.3918   19.6281 H   0  0  0  0  0  0  0  0  0  0  0  0
    5.7305    5.1618   20.8369 C   0  0  0  0  0  0  0  0  0  0  0  0
    4.3241    5.6875   20.9888 C   0  0  0  0  0  0  0  0  0  0  0  0
    4.1081    6.6174   22.0603 N   0  0  0  0  0  0  0  0  0  0  0  0
    3.3643    5.3888   20.2777 O   0  0  0  0  0  0  0  0  0  0  0  0
    4.0414    6.2268   23.0246 H   0  0  0  0  0  0  0  0  0  0  0  0
    4.0281    7.6297   21.8192 H   0  0  0  0  0  0  0  0  0  0  0  0
    5.9851    4.2161   21.9430 C   0  0  0  0  0  0  0  0  0  0  0  0
    5.4083    2.8787   21.8186 C   0  0  0  0  0  0  0  0  0  0  0  0
    5.9978    1.8080   21.1579 C   0  0  0  0  0  0  0  0  0  0  0  0
    5.3745    0.5804   21.0751 C   0  0  0  0  0  0  0  0  0  0  0  0
    4.1498    0.3707   21.6415 C   0  0  0  0  0  0  0  0  0  0  0  0
    3.5413    1.4175   22.3040 C   0  0  0  0  0  0  0  0  0  0  0  0
    4.1694    2.6395   22.3830 C   0  0  0  0  0  0  0  0  0  0  0  0
    6.0040    8.5009   15.7628 C   0  0  0  0  0  0  0  0  0  0  0  0
    5.1052    7.4141   16.0513 N   0  0  0  0  0  0  0  0  0  0  0  0
    5.3657    6.3297   16.9153 C   0  0  0  0  0  0  0  0  0  0  0  0
    6.4565    6.1975   17.5469 O   0  0  0  0  0  0  0  0  0  0  0  0
    4.1542    7.4229   15.5708 H   0  0  0  0  0  0  0  0  0  0  0  0
    4.2934    5.2969   17.0865 C   0  0  0  0  0  0  0  0  0  0  0  0
    3.0107    5.8933   17.2963 N   0  0  0  0  0  0  0  0  0  0  0  0
    2.3347    5.2777   17.7964 H   0  0  0  0  0  0  0  0  0  0  0  0
    2.6021    6.1817   16.3965 H   0  0  0  0  0  0  0  0  0  0  0  0
    4.3704    4.3133   15.9656 C   0  0  0  0  0  0  0  0  0  0  0  0
    3.8847    2.9670   16.3511 C   0  0  0  0  0  0  0  0  0  0  0  0
    3.1749    2.2113   15.4499 C   0  0  0  0  0  0  0  0  0  0  0  0
    2.7384    0.9647   15.8496 C   0  0  0  0  0  0  0  0  0  0  0  0
    3.0147    0.5013   17.1268 C   0  0  0  0  0  0  0  0  0  0  0  0
    2.5453   -0.7789   17.4833 O   0  0  0  0  0  0  0  0  0  0  0  0
    3.7274    1.2655   18.0263 C   0  0  0  0  0  0  0  0  0  0  0  0
    4.1586    2.5074   17.6174 C   0  0  0  0  0  0  0  0  0  0  0  0
    2.6949   -1.1935   18.3739 H   0  0  0  0  0  0  0  0  0  0  0  0
    5.4735    9.4366   14.7285 C   0  0  0  0  0  0  0  0  0  0  0  0
    4.4053    8.8692   13.8751 C   0  0  0  0  0  0  0  0  0  0  0  0
    3.0934    9.1680   14.1330 C   0  0  0  0  0  0  0  0  0  0  0  0
    2.1104    8.5817   13.3201 C   0  0  0  0  0  0  0  0  0  0  0  0
    2.4408    7.7310   12.2907 C   0  0  0  0  0  0  0  0  0  0  0  0
    3.7790    7.4531   12.0597 C   0  0  0  0  0  0  0  0  0  0  0  0
    4.7419    8.0127   12.8385 C   0  0  0  0  0  0  0  0  0  0  0  0
 12 13  1  0  0  0
 13  8  1  0  0  0
  8  9  1  0  0  0
  9 10  2  0  0  0
  9  1  1  0  0  0
  1  2  1  0  0  0
  2  3  1  0  0  0
  3  4  1  0  0  0
  4  5  1  0  0  0
  5  6  1  0  0  0
  6  7  2  0  0  0
  6 31  1  0  0  0
 31 49  1  0  0  0
 49 50  1  0  0  0
 50 51  2  0  0  0
 51 52  1  0  0  0
 52 53  2  0  0  0
 53 54  1  0  0  0
 54 55  2  0  0  0
 31 32  1  0  0  0
 32 33  1  0  0  0
 33 34  2  0  0  0
 33 36  1  0  0  0
 36 37  1  0  0  0
 36 40  1  0  0  0
 40 41  1  0  0  0
 41 42  2  0  0  0
 42 43  1  0  0  0
 43 44  2  0  0  0
 44 45  1  0  0  0
 44 46  1  0  0  0
 46 47  2  0  0  0
 13 14  1  0  0  0
 14 15  2  0  0  0
 14 16  1  0  0  0
 16 18  1  0  0  0
 18 24  1  0  0  0
 24 25  1  0  0  0
 25 26  2  0  0  0
 26 27  1  0  0  0
 27 28  2  0  0  0
 28 29  1  0  0  0
 29 30  2  0  0  0
 18 19  1  0  0  0
 19 20  1  0  0  0
 19 21  2  0  0  0
  5  1  1  0  0  0
 55 50  1  0  0  0
 47 41  1  0  0  0
 30 25  1  0  0  0
  8 11  1  0  0  0
 32 35  1  0  0  0
 37 38  1  0  0  0
 37 39  1  0  0  0
 45 48  1  0  0  0
 16 17  1  0  0  0
 20 22  1  0  0  0
 20 23  1  0  0  0
M  END
> <minimizedAffinity>
-10.22462

> <CNNscore>
0.4192076325

> <CNNaffinity>
7.2708725929

> <CNN_VS>
3.0480053425

> <CNNaffinity_variance>
0.2061869204

$$$$
[H]Oc1c([H])c([H])c(C([H])([H])[C@@]([H])(C(=O)N([H])[C@]([H])(C(=O)N2C([H])([H])C([H])([H])C([H])([H])[C@@]2([H])C(=O)N([H])[C@]([H])(C(=O)N([H])[C@]([H])(C(=O)N([H])[H])C([H])([H])c2c([H])c([H])c([H])c([H])c2[H])C([H])([H])[H])C([H])([H])c2c([H])c([H])c([H])c([H])c2[H])N([H])[H])c([H])c1[H]


 55 58  0  0  0  0  0  0  0  0999 V2000
    3.8851    2.7198   15.7333 C   0  0  0  0  0  0  0  0  0  0  0  0
    3.1662    1.4932   15.3473 C   0  0  0  0  0  0  0  0  0  0  0  0
    3.0836    0.6845   16.6195 C   0  0  0  0  0  0  0  0  0  0  0  0
    3.1558    1.7760   17.7157 C   0  0  0  0  0  0  0  0  0  0  0  0
    4.1267    2.6671   17.1310 N   0  0  0  0  0  0  0  0  0  0  0  0
    5.1507    3.3299   17.8366 C   0  0  0  0  0  0  0  0  0  0  0  0
    5.9752    4.0223   17.1113 O   0  0  0  0  0  0  0  0  0  0  0  0
    3.9345    5.1255   14.9125 N   0  0  0  0  0  0  0  0  0  0  0  0
    3.2140    3.9663   15.2709 C   0  0  0  0  0  0  0  0  0  0  0  0
    1.9740    3.9603   15.2062 O   0  0  0  0  0  0  0  0  0  0  0  0
    4.9972    5.0490   14.9919 H   0  0  0  0  0  0  0  0  0  0  0  0
    4.2674    7.5447   14.5272 C   0  0  0  0  0  0  0  0  0  0  0  0
    3.3672    6.3559   14.4615 C   0  0  0  0  0  0  0  0  0  0  0  0
    2.8539    6.2458   13.0543 C   0  0  0  0  0  0  0  0  0  0  0  0
    3.5914    6.4658   12.0791 O   0  0  0  0  0  0  0  0  0  0  0  0
    1.5095    5.8863   12.8634 N   0  0  0  0  0  0  0  0  0  0  0  0
    0.9252    5.7200   13.7394 H   0  0  0  0  0  0  0  0  0  0  0  0
    0.8094    5.7101   11.6281 C   0  0  0  0  0  0  0  0  0  0  0  0
    0.5553    7.0121   10.9087 C   0  0  0  0  0  0  0  0  0  0  0  0
    0.0520    6.9074    9.5688 N   0  0  0  0  0  0  0  0  0  0  0  0
    0.7404    8.1377   11.3724 O   0  0  0  0  0  0  0  0  0  0  0  0
    0.7337    6.6544    8.8217 H   0  0  0  0  0  0  0  0  0  0  0  0
   -0.9637    7.0903    9.4134 H   0  0  0  0  0  0  0  0  0  0  0  0
   -0.4656    4.9659   11.6865 C   0  0  0  0  0  0  0  0  0  0  0  0
   -1.6174    5.6662   12.2521 C   0  0  0  0  0  0  0  0  0  0  0  0
   -1.5836    6.5035   13.3603 C   0  0  0  0  0  0  0  0  0  0  0  0
   -2.7246    7.1138   13.8378 C   0  0  0  0  0  0  0  0  0  0  0  0
   -3.9349    6.9168   13.2370 C   0  0  0  0  0  0  0  0  0  0  0  0
   -3.9971    6.0893   12.1341 C   0  0  0  0  0  0  0  0  0  0  0  0
   -2.8545    5.4842   11.6629 C   0  0  0  0  0  0  0  0  0  0  0  0
    5.3812    3.3107   19.2987 C   0  0  0  0  0  0  0  0  0  0  0  0
    4.7674    4.4376   19.9510 N   0  0  0  0  0  0  0  0  0  0  0  0
    5.3681    5.6944   20.1750 C   0  0  0  0  0  0  0  0  0  0  0  0
    6.5513    5.9679   19.8124 O   0  0  0  0  0  0  0  0  0  0  0  0
    3.7677    4.3182   20.2999 H   0  0  0  0  0  0  0  0  0  0  0  0
    4.5570    6.7444   20.8716 C   0  0  0  0  0  0  0  0  0  0  0  0
    4.0109    6.2637   22.1027 N   0  0  0  0  0  0  0  0  0  0  0  0
    3.1585    6.7749   22.4156 H   0  0  0  0  0  0  0  0  0  0  0  0
    4.7215    6.3061   22.8464 H   0  0  0  0  0  0  0  0  0  0  0  0
    5.3556    8.0025   20.9693 C   0  0  0  0  0  0  0  0  0  0  0  0
    4.7617    9.1190   20.1962 C   0  0  0  0  0  0  0  0  0  0  0  0
    3.7938    8.8619   19.2559 C   0  0  0  0  0  0  0  0  0  0  0  0
    3.2690    9.9292   18.5561 C   0  0  0  0  0  0  0  0  0  0  0  0
    3.7154   11.2181   18.8044 C   0  0  0  0  0  0  0  0  0  0  0  0
    3.1457   12.2714   18.0613 O   0  0  0  0  0  0  0  0  0  0  0  0
    4.6874   11.4687   19.7495 C   0  0  0  0  0  0  0  0  0  0  0  0
    5.2041   10.3970   20.4424 C   0  0  0  0  0  0  0  0  0  0  0  0
    3.4016   13.2254   18.1702 H   0  0  0  0  0  0  0  0  0  0  0  0
    4.9690    2.0022   19.8859 C   0  0  0  0  0  0  0  0  0  0  0  0
    4.9840    1.9597   21.3655 C   0  0  0  0  0  0  0  0  0  0  0  0
    3.8412    1.6432   22.0518 C   0  0  0  0  0  0  0  0  0  0  0  0
    3.8908    1.6472   23.4547 C   0  0  0  0  0  0  0  0  0  0  0  0
    5.0466    1.9572   24.1334 C   0  0  0  0  0  0  0  0  0  0  0  0
    6.1831    2.2714   23.4047 C   0  0  0  0  0  0  0  0  0  0  0  0
    6.1504    2.2721   22.0461 C   0  0  0  0  0  0  0  0  0  0  0  0
 12 13  1  0  0  0
 13  8  1  0  0  0
  8  9  1  0  0  0
  9 10  2  0  0  0
  9  1  1  0  0  0
  1  2  1  0  0  0
  2  3  1  0  0  0
  3  4  1  0  0  0
  4  5  1  0  0  0
  5  6  1  0  0  0
  6  7  2  0  0  0
  6 31  1  0  0  0
 31 49  1  0  0  0
 49 50  1  0  0  0
 50 51  2  0  0  0
 51 52  1  0  0  0
 52 53  2  0  0  0
 53 54  1  0  0  0
 54 55  2  0  0  0
 31 32  1  0  0  0
 32 33  1  0  0  0
 33 34  2  0  0  0
 33 36  1  0  0  0
 36 37  1  0  0  0
 36 40  1  0  0  0
 40 41  1  0  0  0
 41 42  2  0  0  0
 42 43  1  0  0  0
 43 44  2  0  0  0
 44 45  1  0  0  0
 44 46  1  0  0  0
 46 47  2  0  0  0
 13 14  1  0  0  0
 14 15  2  0  0  0
 14 16  1  0  0  0
 16 18  1  0  0  0
 18 24  1  0  0  0
 24 25  1  0  0  0
 25 26  2  0  0  0
 26 27  1  0  0  0
 27 28  2  0  0  0
 28 29  1  0  0  0
 29 30  2  0  0  0
 18 19  1  0  0  0
 19 20  1  0  0  0
 19 21  2  0  0  0
  5  1  1  0  0  0
 55 50  1  0  0  0
 47 41  1  0  0  0
 30 25  1  0  0  0
  8 11  1  0  0  0
 32 35  1  0  0  0
 37 38  1  0  0  0
 37 39  1  0  0  0
 45 48  1  0  0  0
 16 17  1  0  0  0
 20 22  1  0  0  0
 20 23  1  0  0  0
M  END
> <minimizedAffinity>
-10.48642

> <CNNscore>
0.4147618115

> <CNNaffinity>
7.0684099197

> <CNN_VS>
2.9317064285

> <CNNaffinity_variance>
0.3059679270

$$$$
[H]Oc1c([H])c([H])c(C([H])([H])[C@@]([H])(C(=O)N([H])[C@]([H])(C(=O)N2C([H])([H])C([H])([H])C([H])([H])[C@@]2([H])C(=O)N([H])[C@]([H])(C(=O)N([H])[C@]([H])(C(=O)N([H])[H])C([H])([H])c2c([H])c([H])c([H])c([H])c2[H])C([H])([H])[H])C([H])([H])c2c([H])c([H])c([H])c([H])c2[H])N([H])[H])c([H])c1[H]


 55 58  0  0  0  0  0  0  0  0999 V2000
    5.3115    7.5208   19.2179 C   0  0  0  0  0  0  0  0  0  0  0  0
    6.7661    7.7542   19.2141 C   0  0  0  0  0  0  0  0  0  0  0  0
    7.3559    6.4703   18.6820 C   0  0  0  0  0  0  0  0  0  0  0  0
    6.1983    5.8990   17.8265 C   0  0  0  0  0  0  0  0  0  0  0  0
    5.0698    6.2398   18.6564 N   0  0  0  0  0  0  0  0  0  0  0  0
    3.9504    5.4149   18.8855 C   0  0  0  0  0  0  0  0  0  0  0  0
    3.0805    5.8716   19.7340 O   0  0  0  0  0  0  0  0  0  0  0  0
    4.5482    8.8619   17.1973 N   0  0  0  0  0  0  0  0  0  0  0  0
    4.5359    8.6254   18.5885 C   0  0  0  0  0  0  0  0  0  0  0  0
    3.8605    9.3509   19.3364 O   0  0  0  0  0  0  0  0  0  0  0  0
    5.1503    8.1921   16.6226 H   0  0  0  0  0  0  0  0  0  0  0  0
    4.6227   11.1238   16.2023 C   0  0  0  0  0  0  0  0  0  0  0  0
    3.8347    9.8964   16.5193 C   0  0  0  0  0  0  0  0  0  0  0  0
    3.2231    9.4004   15.2403 C   0  0  0  0  0  0  0  0  0  0  0  0
    2.7900   10.1888   14.3836 O   0  0  0  0  0  0  0  0  0  0  0  0
    3.1502    8.0130   15.0328 N   0  0  0  0  0  0  0  0  0  0  0  0
    3.5297    7.3882   15.8086 H   0  0  0  0  0  0  0  0  0  0  0  0
    2.6259    7.3162   13.8984 C   0  0  0  0  0  0  0  0  0  0  0  0
    3.4807    7.4790   12.6655 C   0  0  0  0  0  0  0  0  0  0  0  0
    3.0627    8.4875   11.7338 N   0  0  0  0  0  0  0  0  0  0  0  0
    4.4919    6.8282   12.4006 O   0  0  0  0  0  0  0  0  0  0  0  0
    2.2548    8.2599   11.1154 H   0  0  0  0  0  0  0  0  0  0  0  0
    3.5871    9.3897   11.7235 H   0  0  0  0  0  0  0  0  0  0  0  0
    1.2273    7.6108   13.5249 C   0  0  0  0  0  0  0  0  0  0  0  0
    0.5119    6.5842   12.7691 C   0  0  0  0  0  0  0  0  0  0  0  0
   -0.2509    6.8104   11.6301 C   0  0  0  0  0  0  0  0  0  0  0  0
   -0.9073    5.7825   10.9861 C   0  0  0  0  0  0  0  0  0  0  0  0
   -0.8318    4.4989   11.4459 C   0  0  0  0  0  0  0  0  0  0  0  0
   -0.0808    4.2459   12.5758 C   0  0  0  0  0  0  0  0  0  0  0  0
    0.5719    5.2765   13.2129 C   0  0  0  0  0  0  0  0  0  0  0  0
    3.6746    4.0970   18.2704 C   0  0  0  0  0  0  0  0  0  0  0  0
    3.4879    3.0723   19.2641 N   0  0  0  0  0  0  0  0  0  0  0  0
    3.9297    1.7358   19.1702 C   0  0  0  0  0  0  0  0  0  0  0  0
    4.5575    1.2858   18.1654 O   0  0  0  0  0  0  0  0  0  0  0  0
    2.9683    3.3411   20.1548 H   0  0  0  0  0  0  0  0  0  0  0  0
    3.6392    0.8194   20.3198 C   0  0  0  0  0  0  0  0  0  0  0  0
    3.3067   -0.4990   19.8769 N   0  0  0  0  0  0  0  0  0  0  0  0
    2.7338   -1.0419   20.5573 H   0  0  0  0  0  0  0  0  0  0  0  0
    4.1634   -1.0271   19.6604 H   0  0  0  0  0  0  0  0  0  0  0  0
    4.7514    0.9035   21.3128 C   0  0  0  0  0  0  0  0  0  0  0  0
    4.9648    2.2806   21.8180 C   0  0  0  0  0  0  0  0  0  0  0  0
    6.1250    2.9497   21.5127 C   0  0  0  0  0  0  0  0  0  0  0  0
    6.2854    4.2287   22.0053 C   0  0  0  0  0  0  0  0  0  0  0  0
    5.2966    4.8090   22.7850 C   0  0  0  0  0  0  0  0  0  0  0  0
    5.5117    6.1175   23.2623 O   0  0  0  0  0  0  0  0  0  0  0  0
    4.1348    4.1313   23.0877 C   0  0  0  0  0  0  0  0  0  0  0  0
    3.9844    2.8560   22.5910 C   0  0  0  0  0  0  0  0  0  0  0  0
    4.8610    6.6133   23.8263 H   0  0  0  0  0  0  0  0  0  0  0  0
    2.5398    4.1864   17.3055 C   0  0  0  0  0  0  0  0  0  0  0  0
    2.7922    3.5420   15.9971 C   0  0  0  0  0  0  0  0  0  0  0  0
    3.6076    4.1521   15.0806 C   0  0  0  0  0  0  0  0  0  0  0  0
    3.7931    3.5229   13.8394 C   0  0  0  0  0  0  0  0  0  0  0  0
    3.1809    2.3281   13.5393 C   0  0  0  0  0  0  0  0  0  0  0  0
    2.3638    1.7404   14.4924 C   0  0  0  0  0  0  0  0  0  0  0  0
    2.1742    2.3378   15.6982 C   0  0  0  0  0  0  0  0  0  0  0  0
 12 13  1  0  0  0
 13  8  1  0  0  0
  8  9  1  0  0  0
  9 10  2  0  0  0
  9  1  1  0  0  0
  1  2  1  0  0  0
  2  3  1  0  0  0
  3  4  1  0  0  0
  4  5  1  0  0  0
  5  6  1  0  0  0
  6  7  2  0  0  0
  6 31  1  0  0  0
 31 49  1  0  0  0
 49 50  1  0  0  0
 50 51  2  0  0  0
 51 52  1  0  0  0
 52 53  2  0  0  0
 53 54  1  0  0  0
 54 55  2  0  0  0
 31 32  1  0  0  0
 32 33  1  0  0  0
 33 34  2  0  0  0
 33 36  1  0  0  0
 36 37  1  0  0  0
 36 40  1  0  0  0
 40 41  1  0  0  0
 41 42  2  0  0  0
 42 43  1  0  0  0
 43 44  2  0  0  0
 44 45  1  0  0  0
 44 46  1  0  0  0
 46 47  2  0  0  0
 13 14  1  0  0  0
 14 15  2  0  0  0
 14 16  1  0  0  0
 16 18  1  0  0  0
 18 24  1  0  0  0
 24 25  1  0  0  0
 25 26  2  0  0  0
 26 27  1  0  0  0
 27 28  2  0  0  0
 28 29  1  0  0  0
 29 30  2  0  0  0
 18 19  1  0  0  0
 19 20  1  0  0  0
 19 21  2  0  0  0
  5  1  1  0  0  0
 55 50  1  0  0  0
 47 41  1  0  0  0
 30 25  1  0  0  0
  8 11  1  0  0  0
 32 35  1  0  0  0
 37 38  1  0  0  0
 37 39  1  0  0  0
 45 48  1  0  0  0
 16 17  1  0  0  0
 20 22  1  0  0  0
 20 23  1  0  0  0
M  END
> <minimizedAffinity>
-9.06703

> <CNNscore>
0.3543393910

> <CNNaffinity>
7.1083526611

> <CNN_VS>
2.5187692642

> <CNNaffinity_variance>
0.4256573319

$$$$
[H]Oc1c([H])c([H])c(C([H])([H])[C@@]([H])(C(=O)N([H])[C@]([H])(C(=O)N2C([H])([H])C([H])([H])C([H])([H])[C@@]2([H])C(=O)N([H])[C@]([H])(C(=O)N([H])[C@]([H])(C(=O)N([H])[H])C([H])([H])c2c([H])c([H])c([H])c([H])c2[H])C([H])([H])[H])C([H])([H])c2c([H])c([H])c([H])c([H])c2[H])N([H])[H])c([H])c1[H]


 55 58  0  0  0  0  0  0  0  0999 V2000
    1.2904    6.6207   14.1885 C   0  0  0  0  0  0  0  0  0  0  0  0
    1.3599    7.8441   13.3707 C   0  0  0  0  0  0  0  0  0  0  0  0
    2.7726    8.3441   13.5537 C   0  0  0  0  0  0  0  0  0  0  0  0
    3.5455    7.0467   13.8966 C   0  0  0  0  0  0  0  0  0  0  0  0
    2.5786    6.3825   14.7347 N   0  0  0  0  0  0  0  0  0  0  0  0
    2.8785    5.6602   15.9069 C   0  0  0  0  0  0  0  0  0  0  0  0
    1.8551    5.2090   16.5659 O   0  0  0  0  0  0  0  0  0  0  0  0
   -0.5273    5.5373   12.7792 N   0  0  0  0  0  0  0  0  0  0  0  0
    0.7047    5.4594   13.4631 C   0  0  0  0  0  0  0  0  0  0  0  0
    1.3432    4.3945   13.4742 O   0  0  0  0  0  0  0  0  0  0  0  0
   -1.0127    6.4884   12.8136 H   0  0  0  0  0  0  0  0  0  0  0  0
   -2.5017    4.7793   11.4991 C   0  0  0  0  0  0  0  0  0  0  0  0
   -1.1540    4.4729   12.0628 C   0  0  0  0  0  0  0  0  0  0  0  0
   -0.2887    3.9764   10.9401 C   0  0  0  0  0  0  0  0  0  0  0  0
   -0.1285    4.6440    9.9048 O   0  0  0  0  0  0  0  0  0  0  0  0
    0.3404    2.7291   11.0874 N   0  0  0  0  0  0  0  0  0  0  0  0
    0.1564    2.1997   11.9941 H   0  0  0  0  0  0  0  0  0  0  0  0
    1.2106    2.0648   10.1662 C   0  0  0  0  0  0  0  0  0  0  0  0
    0.7274    0.6836    9.7972 C   0  0  0  0  0  0  0  0  0  0  0  0
   -0.6859    0.4577    9.9036 N   0  0  0  0  0  0  0  0  0  0  0  0
    1.4365   -0.2484    9.4167 O   0  0  0  0  0  0  0  0  0  0  0  0
   -1.0750    0.3131   10.8600 H   0  0  0  0  0  0  0  0  0  0  0  0
   -1.2463    0.4489    9.0233 H   0  0  0  0  0  0  0  0  0  0  0  0
    2.6331    1.9617   10.5513 C   0  0  0  0  0  0  0  0  0  0  0  0
    3.4267    3.1880   10.4938 C   0  0  0  0  0  0  0  0  0  0  0  0
    4.1986    3.6946   11.5321 C   0  0  0  0  0  0  0  0  0  0  0  0
    4.9061    4.8708   11.3969 C   0  0  0  0  0  0  0  0  0  0  0  0
    4.8741    5.5842   10.2330 C   0  0  0  0  0  0  0  0  0  0  0  0
    4.1150    5.1037    9.1852 C   0  0  0  0  0  0  0  0  0  0  0  0
    3.4121    3.9291    9.3272 C   0  0  0  0  0  0  0  0  0  0  0  0
    4.2225    5.3743   16.4575 C   0  0  0  0  0  0  0  0  0  0  0  0
    4.2295    5.4126   17.8965 N   0  0  0  0  0  0  0  0  0  0  0  0
    4.7861    6.4329   18.6962 C   0  0  0  0  0  0  0  0  0  0  0  0
    5.3573    7.4552   18.2113 O   0  0  0  0  0  0  0  0  0  0  0  0
    3.7746    4.5981   18.4114 H   0  0  0  0  0  0  0  0  0  0  0  0
    4.6869    6.2894   20.1845 C   0  0  0  0  0  0  0  0  0  0  0  0
    4.3789    7.5336   20.8186 N   0  0  0  0  0  0  0  0  0  0  0  0
    4.6785    7.5861   21.8153 H   0  0  0  0  0  0  0  0  0  0  0  0
    3.3683    7.7209   20.7600 H   0  0  0  0  0  0  0  0  0  0  0  0
    3.7715    5.1559   20.5123 C   0  0  0  0  0  0  0  0  0  0  0  0
    4.2665    4.3273   21.6373 C   0  0  0  0  0  0  0  0  0  0  0  0
    3.6132    4.3527   22.8454 C   0  0  0  0  0  0  0  0  0  0  0  0
    4.1082    3.5689   23.8675 C   0  0  0  0  0  0  0  0  0  0  0  0
    5.2335    2.7841   23.6674 C   0  0  0  0  0  0  0  0  0  0  0  0
    5.6968    2.0028   24.7450 O   0  0  0  0  0  0  0  0  0  0  0  0
    5.8844    2.7639   22.4522 C   0  0  0  0  0  0  0  0  0  0  0  0
    5.3822    3.5491   21.4389 C   0  0  0  0  0  0  0  0  0  0  0  0
    6.4932    1.4106   24.6953 H   0  0  0  0  0  0  0  0  0  0  0  0
    4.7637    4.0976   15.9061 C   0  0  0  0  0  0  0  0  0  0  0  0
    4.1896    2.8741   16.5099 C   0  0  0  0  0  0  0  0  0  0  0  0
    3.2749    2.1314   15.8109 C   0  0  0  0  0  0  0  0  0  0  0  0
    2.7304    0.9973   16.4340 C   0  0  0  0  0  0  0  0  0  0  0  0
    3.0963    0.6305   17.7084 C   0  0  0  0  0  0  0  0  0  0  0  0
    4.0254    1.4063   18.3839 C   0  0  0  0  0  0  0  0  0  0  0  0
    4.5609    2.5072   17.7940 C   0  0  0  0  0  0  0  0  0  0  0  0
 12 13  1  0  0  0
 13  8  1  0  0  0
  8  9  1  0  0  0
  9 10  2  0  0  0
  9  1  1  0  0  0
  1  2  1  0  0  0
  2  3  1  0  0  0
  3  4  1  0  0  0
  4  5  1  0  0  0
  5  6  1  0  0  0
  6  7  2  0  0  0
  6 31  1  0  0  0
 31 49  1  0  0  0
 49 50  1  0  0  0
 50 51  2  0  0  0
 51 52  1  0  0  0
 52 53  2  0  0  0
 53 54  1  0  0  0
 54 55  2  0  0  0
 31 32  1  0  0  0
 32 33  1  0  0  0
 33 34  2  0  0  0
 33 36  1  0  0  0
 36 37  1  0  0  0
 36 40  1  0  0  0
 40 41  1  0  0  0
 41 42  2  0  0  0
 42 43  1  0  0  0
 43 44  2  0  0  0
 44 45  1  0  0  0
 44 46  1  0  0  0
 46 47  2  0  0  0
 13 14  1  0  0  0
 14 15  2  0  0  0
 14 16  1  0  0  0
 16 18  1  0  0  0
 18 24  1  0  0  0
 24 25  1  0  0  0
 25 26  2  0  0  0
 26 27  1  0  0  0
 27 28  2  0  0  0
 28 29  1  0  0  0
 29 30  2  0  0  0
 18 19  1  0  0  0
 19 20  1  0  0  0
 19 21  2  0  0  0
  5  1  1  0  0  0
 55 50  1  0  0  0
 47 41  1  0  0  0
 30 25  1  0  0  0
  8 11  1  0  0  0
 32 35  1  0  0  0
 37 38  1  0  0  0
 37 39  1  0  0  0
 45 48  1  0  0  0
 16 17  1  0  0  0
 20 22  1  0  0  0
 20 23  1  0  0  0
M  END
> <minimizedAffinity>
-8.85239

> <CNNscore>
0.3295787275

> <CNNaffinity>
6.9493966103

> <CNN_VS>
2.2903733253

> <CNNaffinity_variance>
0.2987548709

$$$$
[H]Oc1c([H])c([H])c(C([H])([H])[C@@]([H])(C(=O)N([H])[C@]([H])(C(=O)N2C([H])([H])C([H])([H])C([H])([H])[C@@]2([H])C(=O)N([H])[C@]([H])(C(=O)N([H])[C@]([H])(C(=O)N([H])[H])C([H])([H])c2c([H])c([H])c([H])c([H])c2[H])C([H])([H])[H])C([H])([H])c2c([H])c([H])c([H])c([H])c2[H])N([H])[H])c([H])c1[H]


 55 58  0  0  0  0  0  0  0  0999 V2000
    1.5753    7.2708   13.9114 C   0  0  0  0  0  0  0  0  0  0  0  0
    1.9358    8.5526   13.2812 C   0  0  0  0  0  0  0  0  0  0  0  0
    3.4120    8.7096   13.5558 C   0  0  0  0  0  0  0  0  0  0  0  0
    3.8805    7.2424   13.7179 C   0  0  0  0  0  0  0  0  0  0  0  0
    2.7593    6.6899   14.4361 N   0  0  0  0  0  0  0  0  0  0  0  0
    2.8483    5.7645   15.4952 C   0  0  0  0  0  0  0  0  0  0  0  0
    1.7244    5.4548   16.0664 O   0  0  0  0  0  0  0  0  0  0  0  0
    1.2388    6.0168   11.7255 N   0  0  0  0  0  0  0  0  0  0  0  0
    0.7935    6.3733   13.0162 C   0  0  0  0  0  0  0  0  0  0  0  0
   -0.2865    5.9349   13.4443 O   0  0  0  0  0  0  0  0  0  0  0  0
    2.1786    6.4319   11.4326 H   0  0  0  0  0  0  0  0  0  0  0  0
    0.2399    3.7938   11.3107 C   0  0  0  0  0  0  0  0  0  0  0  0
    0.5499    5.1651   10.8095 C   0  0  0  0  0  0  0  0  0  0  0  0
   -0.7354    5.7832   10.3385 C   0  0  0  0  0  0  0  0  0  0  0  0
   -0.7414    6.7014    9.5018 O   0  0  0  0  0  0  0  0  0  0  0  0
   -1.9410    5.2966   10.8703 N   0  0  0  0  0  0  0  0  0  0  0  0
   -1.8699    4.5147   11.5913 H   0  0  0  0  0  0  0  0  0  0  0  0
   -3.2740    5.7182   10.5664 C   0  0  0  0  0  0  0  0  0  0  0  0
   -4.2031    5.6207   11.7516 C   0  0  0  0  0  0  0  0  0  0  0  0
   -4.9261    4.3888   11.8897 N   0  0  0  0  0  0  0  0  0  0  0  0
   -4.3855    6.4980   12.5961 O   0  0  0  0  0  0  0  0  0  0  0  0
   -5.7473    4.2450   11.2637 H   0  0  0  0  0  0  0  0  0  0  0  0
   -4.5947    3.7061   12.6062 H   0  0  0  0  0  0  0  0  0  0  0  0
   -3.9326    5.0645    9.4168 C   0  0  0  0  0  0  0  0  0  0  0  0
   -4.7670    5.9077    8.5625 C   0  0  0  0  0  0  0  0  0  0  0  0
   -5.9423    5.5062    7.9397 C   0  0  0  0  0  0  0  0  0  0  0  0
   -6.6616    6.3651    7.1352 C   0  0  0  0  0  0  0  0  0  0  0  0
   -6.2437    7.6471    6.9197 C   0  0  0  0  0  0  0  0  0  0  0  0
   -5.0789    8.0721    7.5261 C   0  0  0  0  0  0  0  0  0  0  0  0
   -4.3667    7.2097    8.3280 C   0  0  0  0  0  0  0  0  0  0  0  0
    4.0766    5.1250   16.0182 C   0  0  0  0  0  0  0  0  0  0  0  0
    4.1076    5.1251   17.4574 N   0  0  0  0  0  0  0  0  0  0  0  0
    4.6802    6.1226   18.2744 C   0  0  0  0  0  0  0  0  0  0  0  0
    5.2460    7.1560   17.8074 O   0  0  0  0  0  0  0  0  0  0  0  0
    3.6591    4.2983   17.9581 H   0  0  0  0  0  0  0  0  0  0  0  0
    4.6053    5.9398   19.7599 C   0  0  0  0  0  0  0  0  0  0  0  0
    4.1436    7.1226   20.4178 N   0  0  0  0  0  0  0  0  0  0  0  0
    4.4377    7.1942   21.4149 H   0  0  0  0  0  0  0  0  0  0  0  0
    3.1173    7.1808   20.3639 H   0  0  0  0  0  0  0  0  0  0  0  0
    3.8428    4.6931   20.0671 C   0  0  0  0  0  0  0  0  0  0  0  0
    4.3070    4.0296   21.3087 C   0  0  0  0  0  0  0  0  0  0  0  0
    3.6952    4.3122   22.5058 C   0  0  0  0  0  0  0  0  0  0  0  0
    4.1597    3.6752   23.6383 C   0  0  0  0  0  0  0  0  0  0  0  0
    5.2143    2.7789   23.5561 C   0  0  0  0  0  0  0  0  0  0  0  0
    5.6491    2.1564   24.7434 O   0  0  0  0  0  0  0  0  0  0  0  0
    5.8238    2.5004   22.3512 C   0  0  0  0  0  0  0  0  0  0  0  0
    5.3526    3.1409   21.2273 C   0  0  0  0  0  0  0  0  0  0  0  0
    6.3954    1.5016   24.7821 H   0  0  0  0  0  0  0  0  0  0  0  0
    4.2606    3.7653   15.4317 C   0  0  0  0  0  0  0  0  0  0  0  0
    3.8705    2.6516   16.3254 C   0  0  0  0  0  0  0  0  0  0  0  0
    4.6779    2.3033   17.3760 C   0  0  0  0  0  0  0  0  0  0  0  0
    4.2872    1.2197   18.1783 C   0  0  0  0  0  0  0  0  0  0  0  0
    3.1294    0.5197   17.9289 C   0  0  0  0  0  0  0  0  0  0  0  0
    2.3376    0.9021   16.8573 C   0  0  0  0  0  0  0  0  0  0  0  0
    2.7031    1.9488   16.0713 C   0  0  0  0  0  0  0  0  0  0  0  0
 12 13  1  0  0  0
 13  8  1  0  0  0
  8  9  1  0  0  0
  9 10  2  0  0  0
  9  1  1  0  0  0
  1  2  1  0  0  0
  2  3  1  0  0  0
  3  4  1  0  0  0
  4  5  1  0  0  0
  5  6  1  0  0  0
  6  7  2  0  0  0
  6 31  1  0  0  0
 31 49  1  0  0  0
 49 50  1  0  0  0
 50 51  2  0  0  0
 51 52  1  0  0  0
 52 53  2  0  0  0
 53 54  1  0  0  0
 54 55  2  0  0  0
 31 32  1  0  0  0
 32 33  1  0  0  0
 33 34  2  0  0  0
 33 36  1  0  0  0
 36 37  1  0  0  0
 36 40  1  0  0  0
 40 41  1  0  0  0
 41 42  2  0  0  0
 42 43  1  0  0  0
 43 44  2  0  0  0
 44 45  1  0  0  0
 44 46  1  0  0  0
 46 47  2  0  0  0
 13 14  1  0  0  0
 14 15  2  0  0  0
 14 16  1  0  0  0
 16 18  1  0  0  0
 18 24  1  0  0  0
 24 25  1  0  0  0
 25 26  2  0  0  0
 26 27  1  0  0  0
 27 28  2  0  0  0
 28 29  1  0  0  0
 29 30  2  0  0  0
 18 19  1  0  0  0
 19 20  1  0  0  0
 19 21  2  0  0  0
  5  1  1  0  0  0
 55 50  1  0  0  0
 47 41  1  0  0  0
 30 25  1  0  0  0
  8 11  1  0  0  0
 32 35  1  0  0  0
 37 38  1  0  0  0
 37 39  1  0  0  0
 45 48  1  0  0  0
 16 17  1  0  0  0
 20 22  1  0  0  0
 20 23  1  0  0  0
M  END
> <minimizedAffinity>
-9.31218

> <CNNscore>
0.3070355356

> <CNNaffinity>
6.7339744568

> <CNN_VS>
2.0675694942

> <CNNaffinity_variance>
0.1510172188

$$$$
[H]Oc1c([H])c([H])c(C([H])([H])[C@@]([H])(C(=O)N([H])[C@]([H])(C(=O)N2C([H])([H])C([H])([H])C([H])([H])[C@@]2([H])C(=O)N([H])[C@]([H])(C(=O)N([H])[C@]([H])(C(=O)N([H])[H])C([H])([H])c2c([H])c([H])c([H])c([H])c2[H])C([H])([H])[H])C([H])([H])c2c([H])c([H])c([H])c([H])c2[H])N([H])[H])c([H])c1[H]


 55 58  0  0  0  0  0  0  0  0999 V2000
    3.8036   10.8219   18.1626 C   0  0  0  0  0  0  0  0  0  0  0  0
    3.6770   12.2073   18.6470 C   0  0  0  0  0  0  0  0  0  0  0  0
    4.5873   12.2744   19.8496 C   0  0  0  0  0  0  0  0  0  0  0  0
    5.6255   11.1662   19.5462 C   0  0  0  0  0  0  0  0  0  0  0  0
    4.7703   10.1616   18.9651 N   0  0  0  0  0  0  0  0  0  0  0  0
    4.8711    8.7751   19.1964 C   0  0  0  0  0  0  0  0  0  0  0  0
    3.9503    8.0452   18.6446 O   0  0  0  0  0  0  0  0  0  0  0  0
    3.1933   10.0301   15.8250 N   0  0  0  0  0  0  0  0  0  0  0  0
    4.0535   10.7306   16.6972 C   0  0  0  0  0  0  0  0  0  0  0  0
    5.0620   11.3007   16.2505 O   0  0  0  0  0  0  0  0  0  0  0  0
    2.3462    9.5705   16.2860 H   0  0  0  0  0  0  0  0  0  0  0  0
    4.7730    9.9348   13.9257 C   0  0  0  0  0  0  0  0  0  0  0  0
    3.3629    9.8963   14.4134 C   0  0  0  0  0  0  0  0  0  0  0  0
    2.7328    8.6343   13.8975 C   0  0  0  0  0  0  0  0  0  0  0  0
    2.4433    8.5015   12.6968 O   0  0  0  0  0  0  0  0  0  0  0  0
    2.4749    7.5986   14.8108 N   0  0  0  0  0  0  0  0  0  0  0  0
    2.7368    7.7763   15.8287 H   0  0  0  0  0  0  0  0  0  0  0  0
    1.8983    6.3152   14.5508 C   0  0  0  0  0  0  0  0  0  0  0  0
    0.4906    6.4041   14.0145 C   0  0  0  0  0  0  0  0  0  0  0  0
    0.3388    6.2157   12.5998 N   0  0  0  0  0  0  0  0  0  0  0  0
   -0.5211    6.6196   14.6826 O   0  0  0  0  0  0  0  0  0  0  0  0
    0.5999    7.0138   11.9818 H   0  0  0  0  0  0  0  0  0  0  0  0
   -0.0239    5.2958   12.2662 H   0  0  0  0  0  0  0  0  0  0  0  0
    1.9002    5.3468   15.6664 C   0  0  0  0  0  0  0  0  0  0  0  0
    2.3398    3.9860   15.3633 C   0  0  0  0  0  0  0  0  0  0  0  0
    2.3383    3.4037   14.1018 C   0  0  0  0  0  0  0  0  0  0  0  0
    2.7570    2.1041   13.9072 C   0  0  0  0  0  0  0  0  0  0  0  0
    3.1901    1.3380   14.9513 C   0  0  0  0  0  0  0  0  0  0  0  0
    3.2017    1.8916   16.2156 C   0  0  0  0  0  0  0  0  0  0  0  0
    2.7831    3.1892   16.4021 C   0  0  0  0  0  0  0  0  0  0  0  0
    5.9019    8.0788   19.9988 C   0  0  0  0  0  0  0  0  0  0  0  0
    5.4332    6.8064   20.4822 N   0  0  0  0  0  0  0  0  0  0  0  0
    5.6532    6.2767   21.7711 C   0  0  0  0  0  0  0  0  0  0  0  0
    6.3098    6.8891   22.6656 O   0  0  0  0  0  0  0  0  0  0  0  0
    4.8679    6.2037   19.8093 H   0  0  0  0  0  0  0  0  0  0  0  0
    5.0755    4.9297   22.0831 C   0  0  0  0  0  0  0  0  0  0  0  0
    3.6463    4.9406   22.0342 N   0  0  0  0  0  0  0  0  0  0  0  0
    3.1979    4.1910   22.6024 H   0  0  0  0  0  0  0  0  0  0  0  0
    3.3242    4.8633   21.0595 H   0  0  0  0  0  0  0  0  0  0  0  0
    5.7407    3.8973   21.2336 C   0  0  0  0  0  0  0  0  0  0  0  0
    4.9405    2.6557   21.1096 C   0  0  0  0  0  0  0  0  0  0  0  0
    4.5643    2.2049   19.8677 C   0  0  0  0  0  0  0  0  0  0  0  0
    3.8175    1.0467   19.7965 C   0  0  0  0  0  0  0  0  0  0  0  0
    3.4636    0.3684   20.9528 C   0  0  0  0  0  0  0  0  0  0  0  0
    2.7001   -0.8092   20.8229 O   0  0  0  0  0  0  0  0  0  0  0  0
    3.8444    0.8270   22.1959 C   0  0  0  0  0  0  0  0  0  0  0  0
    4.5896    1.9831   22.2560 C   0  0  0  0  0  0  0  0  0  0  0  0
    2.4009   -1.3609   21.5933 H   0  0  0  0  0  0  0  0  0  0  0  0
    7.1860    7.9785   19.2453 C   0  0  0  0  0  0  0  0  0  0  0  0
    8.3944    7.8988   20.0964 C   0  0  0  0  0  0  0  0  0  0  0  0
    8.7079    8.9341   20.9372 C   0  0  0  0  0  0  0  0  0  0  0  0
    9.8808    8.8321   21.7018 C   0  0  0  0  0  0  0  0  0  0  0  0
   10.7002    7.7301   21.6197 C   0  0  0  0  0  0  0  0  0  0  0  0
   10.3496    6.7021   20.7585 C   0  0  0  0  0  0  0  0  0  0  0  0
    9.2175    6.7867   20.0115 C   0  0  0  0  0  0  0  0  0  0  0  0
 12 13  1  0  0  0
 13  8  1  0  0  0
  8  9  1  0  0  0
  9 10  2  0  0  0
  9  1  1  0  0  0
  1  2  1  0  0  0
  2  3  1  0  0  0
  3  4  1  0  0  0
  4  5  1  0  0  0
  5  6  1  0  0  0
  6  7  2  0  0  0
  6 31  1  0  0  0
 31 49  1  0  0  0
 49 50  1  0  0  0
 50 51  2  0  0  0
 51 52  1  0  0  0
 52 53  2  0  0  0
 53 54  1  0  0  0
 54 55  2  0  0  0
 31 32  1  0  0  0
 32 33  1  0  0  0
 33 34  2  0  0  0
 33 36  1  0  0  0
 36 37  1  0  0  0
 36 40  1  0  0  0
 40 41  1  0  0  0
 41 42  2  0  0  0
 42 43  1  0  0  0
 43 44  2  0  0  0
 44 45  1  0  0  0
 44 46  1  0  0  0
 46 47  2  0  0  0
 13 14  1  0  0  0
 14 15  2  0  0  0
 14 16  1  0  0  0
 16 18  1  0  0  0
 18 24  1  0  0  0
 24 25  1  0  0  0
 25 26  2  0  0  0
 26 27  1  0  0  0
 27 28  2  0  0  0
 28 29  1  0  0  0
 29 30  2  0  0  0
 18 19  1  0  0  0
 19 20  1  0  0  0
 19 21  2  0  0  0
  5  1  1  0  0  0
 55 50  1  0  0  0
 47 41  1  0  0  0
 30 25  1  0  0  0
  8 11  1  0  0  0
 32 35  1  0  0  0
 37 38  1  0  0  0
 37 39  1  0  0  0
 45 48  1  0  0  0
 16 17  1  0  0  0
 20 22  1  0  0  0
 20 23  1  0  0  0
M  END
> <minimizedAffinity>
-9.53427

> <CNNscore>
0.2981366515

> <CNNaffinity>
7.0796937943

> <CNN_VS>
2.1107161045

> <CNNaffinity_variance>
0.1255172938

$$$$
[H]Oc1c([H])c([H])c(C([H])([H])[C@@]([H])(C(=O)N([H])[C@]([H])(C(=O)N2C([H])([H])C([H])([H])C([H])([H])[C@@]2([H])C(=O)N([H])[C@]([H])(C(=O)N([H])[C@]([H])(C(=O)N([H])[H])C([H])([H])c2c([H])c([H])c([H])c([H])c2[H])C([H])([H])[H])C([H])([H])c2c([H])c([H])c([H])c([H])c2[H])N([H])[H])c([H])c1[H]


 55 58  0  0  0  0  0  0  0  0999 V2000
    3.8860    2.9165   15.5814 C   0  0  0  0  0  0  0  0  0  0  0  0
    3.1159    1.7356   15.1541 C   0  0  0  0  0  0  0  0  0  0  0  0
    2.9556    0.9116   16.4089 C   0  0  0  0  0  0  0  0  0  0  0  0
    3.0532    1.9798   17.5259 C   0  0  0  0  0  0  0  0  0  0  0  0
    4.0849    2.8284   16.9839 N   0  0  0  0  0  0  0  0  0  0  0  0
    5.1215    3.4253   17.7290 C   0  0  0  0  0  0  0  0  0  0  0  0
    6.0009    4.0855   17.0390 O   0  0  0  0  0  0  0  0  0  0  0  0
    4.0458    5.3946   15.0361 N   0  0  0  0  0  0  0  0  0  0  0  0
    3.2937    4.2037   15.1230 C   0  0  0  0  0  0  0  0  0  0  0  0
    2.0919    4.2034   14.8106 O   0  0  0  0  0  0  0  0  0  0  0  0
    5.0727    5.3112   15.3188 H   0  0  0  0  0  0  0  0  0  0  0  0
    4.3117    7.8515   15.1018 C   0  0  0  0  0  0  0  0  0  0  0  0
    3.5532    6.6647   14.6080 C   0  0  0  0  0  0  0  0  0  0  0  0
    3.4832    6.7550   13.1104 C   0  0  0  0  0  0  0  0  0  0  0  0
    4.3282    7.3944   12.4621 O   0  0  0  0  0  0  0  0  0  0  0  0
    2.4313    6.0956   12.4532 N   0  0  0  0  0  0  0  0  0  0  0  0
    1.7327    5.5719   13.0649 H   0  0  0  0  0  0  0  0  0  0  0  0
    2.1698    6.0322   11.0480 C   0  0  0  0  0  0  0  0  0  0  0  0
    1.4171    7.2366   10.5380 C   0  0  0  0  0  0  0  0  0  0  0  0
    2.1942    8.4232   10.3198 N   0  0  0  0  0  0  0  0  0  0  0  0
    0.2105    7.2811   10.2965 O   0  0  0  0  0  0  0  0  0  0  0  0
    2.4649    8.9773   11.1604 H   0  0  0  0  0  0  0  0  0  0  0  0
    2.4449    8.6684    9.3368 H   0  0  0  0  0  0  0  0  0  0  0  0
    1.4814    4.8221   10.5535 C   0  0  0  0  0  0  0  0  0  0  0  0
    2.3117    3.6494   10.2847 C   0  0  0  0  0  0  0  0  0  0  0  0
    2.0478    2.3596   10.7285 C   0  0  0  0  0  0  0  0  0  0  0  0
    2.8959    1.3106   10.4409 C   0  0  0  0  0  0  0  0  0  0  0  0
    4.0311    1.5013    9.7064 C   0  0  0  0  0  0  0  0  0  0  0  0
    4.3177    2.7730    9.2530 C   0  0  0  0  0  0  0  0  0  0  0  0
    3.4666    3.8148    9.5434 C   0  0  0  0  0  0  0  0  0  0  0  0
    5.3093    3.3702   19.1963 C   0  0  0  0  0  0  0  0  0  0  0  0
    4.7226    4.5090   19.8530 N   0  0  0  0  0  0  0  0  0  0  0  0
    5.3880    5.7073   20.1870 C   0  0  0  0  0  0  0  0  0  0  0  0
    6.6134    5.9095   19.9345 O   0  0  0  0  0  0  0  0  0  0  0  0
    3.6914    4.4476   20.1142 H   0  0  0  0  0  0  0  0  0  0  0  0
    4.5962    6.7820   20.8681 C   0  0  0  0  0  0  0  0  0  0  0  0
    4.0713    6.3404   22.1229 N   0  0  0  0  0  0  0  0  0  0  0  0
    3.2278    6.8656   22.4370 H   0  0  0  0  0  0  0  0  0  0  0  0
    4.7963    6.4001   22.8513 H   0  0  0  0  0  0  0  0  0  0  0  0
    5.4034    8.0375   20.9139 C   0  0  0  0  0  0  0  0  0  0  0  0
    4.7824    9.1454   20.1496 C   0  0  0  0  0  0  0  0  0  0  0  0
    3.8076    8.8740   19.2205 C   0  0  0  0  0  0  0  0  0  0  0  0
    3.2574    9.9337   18.5287 C   0  0  0  0  0  0  0  0  0  0  0  0
    3.6861   11.2293   18.7735 C   0  0  0  0  0  0  0  0  0  0  0  0
    3.0908   12.2743   18.0388 O   0  0  0  0  0  0  0  0  0  0  0  0
    4.6653   11.4941   19.7072 C   0  0  0  0  0  0  0  0  0  0  0  0
    5.2073   10.4300   20.3924 C   0  0  0  0  0  0  0  0  0  0  0  0
    3.3327   13.2321   18.1460 H   0  0  0  0  0  0  0  0  0  0  0  0
    4.8287    2.0690   19.7465 C   0  0  0  0  0  0  0  0  0  0  0  0
    4.8517    1.9794   21.2238 C   0  0  0  0  0  0  0  0  0  0  0  0
    3.7228    1.6045   21.9036 C   0  0  0  0  0  0  0  0  0  0  0  0
    3.7787    1.5650   23.3058 C   0  0  0  0  0  0  0  0  0  0  0  0
    4.9271    1.8899   23.9900 C   0  0  0  0  0  0  0  0  0  0  0  0
    6.0496    2.2635   23.2678 C   0  0  0  0  0  0  0  0  0  0  0  0
    6.0107    2.3069   21.9100 C   0  0  0  0  0  0  0  0  0  0  0  0
 12 13  1  0  0  0
 13  8  1  0  0  0
  8  9  1  0  0  0
  9 10  2  0  0  0
  9  1  1  0  0  0
  1  2  1  0  0  0
  2  3  1  0  0  0
  3  4  1  0  0  0
  4  5  1  0  0  0
  5  6  1  0  0  0
  6  7  2  0  0  0
  6 31  1  0  0  0
 31 49  1  0  0  0
 49 50  1  0  0  0
 50 51  2  0  0  0
 51 52  1  0  0  0
 52 53  2  0  0  0
 53 54  1  0  0  0
 54 55  2  0  0  0
 31 32  1  0  0  0
 32 33  1  0  0  0
 33 34  2  0  0  0
 33 36  1  0  0  0
 36 37  1  0  0  0
 36 40  1  0  0  0
 40 41  1  0  0  0
 41 42  2  0  0  0
 42 43  1  0  0  0
 43 44  2  0  0  0
 44 45  1  0  0  0
 44 46  1  0  0  0
 46 47  2  0  0  0
 13 14  1  0  0  0
 14 15  2  0  0  0
 14 16  1  0  0  0
 16 18  1  0  0  0
 18 24  1  0  0  0
 24 25  1  0  0  0
 25 26  2  0  0  0
 26 27  1  0  0  0
 27 28  2  0  0  0
 28 29  1  0  0  0
 29 30  2  0  0  0
 18 19  1  0  0  0
 19 20  1  0  0  0
 19 21  2  0  0  0
  5  1  1  0  0  0
 55 50  1  0  0  0
 47 41  1  0  0  0
 30 25  1  0  0  0
  8 11  1  0  0  0
 32 35  1  0  0  0
 37 38  1  0  0  0
 37 39  1  0  0  0
 45 48  1  0  0  0
 16 17  1  0  0  0
 20 22  1  0  0  0
 20 23  1  0  0  0
M  END
> <minimizedAffinity>
-9.75168

> <CNNscore>
0.2975740433

> <CNNaffinity>
6.9679307938

> <CNN_VS>
2.0734753609

> <CNNaffinity_variance>
0.3956488967

$$$$
[H]OC([H])([H])[C@@]1([H])O[C@]([H])(n2c([H])nc3c(N([H])C([H])([H])c4c([H])c([H])c([H])c(Cl)c4[H])nc([H])nc32)[C@]([H])(O[H])[C@]1([H])O[H]


 31 34  0  0  0  0  0  0  0  0999 V2000
    3.5148    0.9746   18.5763 N   0  0  0  0  0  0  0  0  0  0  0  0
    2.7048   -0.0377   18.2695 C   0  0  0  0  0  0  0  0  0  0  0  0
    2.2102    0.1531   17.0333 N   0  0  0  0  0  0  0  0  0  0  0  0
    2.7082    1.2979   16.5443 C   0  0  0  0  0  0  0  0  0  0  0  0
    2.5631    1.9929   15.3527 C   0  0  0  0  0  0  0  0  0  0  0  0
    3.2271    3.1683   15.1559 N   0  0  0  0  0  0  0  0  0  0  0  0
    4.0274    3.6657   16.1110 C   0  0  0  0  0  0  0  0  0  0  0  0
    4.1616    2.9856   17.2614 N   0  0  0  0  0  0  0  0  0  0  0  0
    3.5183    1.8069   17.5039 C   0  0  0  0  0  0  0  0  0  0  0  0
    4.1725    2.6703   21.4879 C   0  0  0  0  0  0  0  0  0  0  0  0
    4.2762    2.5807   20.1242 O   0  0  0  0  0  0  0  0  0  0  0  0
    4.2880    1.2542   19.7595 C   0  0  0  0  0  0  0  0  0  0  0  0
    3.8835    0.4394   20.9476 C   0  0  0  0  0  0  0  0  0  0  0  0
    2.5061    0.4805   21.1822 O   0  0  0  0  0  0  0  0  0  0  0  0
    4.4986    1.3062   22.0597 C   0  0  0  0  0  0  0  0  0  0  0  0
    3.9124    1.0721   23.2786 O   0  0  0  0  0  0  0  0  0  0  0  0
    2.0893    1.2217   20.6744 H   0  0  0  0  0  0  0  0  0  0  0  0
    3.7165    0.1433   23.4761 H   0  0  0  0  0  0  0  0  0  0  0  0
    4.8259    3.7759   23.4642 O   0  0  0  0  0  0  0  0  0  0  0  0
    5.0403    3.7474   22.0898 C   0  0  0  0  0  0  0  0  0  0  0  0
    3.9016    3.5365   23.7224 H   0  0  0  0  0  0  0  0  0  0  0  0
    1.7065    1.4487   14.3695 N   0  0  0  0  0  0  0  0  0  0  0  0
    1.4866    0.4365   14.3731 H   0  0  0  0  0  0  0  0  0  0  0  0
    1.1397    2.2998   13.3638 C   0  0  0  0  0  0  0  0  0  0  0  0
    1.6378    1.9743   12.0073 C   0  0  0  0  0  0  0  0  0  0  0  0
    2.8087    2.5907   11.5919 C   0  0  0  0  0  0  0  0  0  0  0  0
    3.2956    2.3187   10.3333 C   0  0  0  0  0  0  0  0  0  0  0  0
    2.6130    1.4415    9.5110 C   0  0  0  0  0  0  0  0  0  0  0  0
    1.4528    0.8329    9.9267 C   0  0  0  0  0  0  0  0  0  0  0  0
    0.6310   -0.2692    8.8422 Cl  0  0  0  0  0  0  0  0  0  0  0  0
    0.9725    1.1077   11.1818 C   0  0  0  0  0  0  0  0  0  0  0  0
 19 20  1  0  0  0
 20 10  1  0  0  0
 10 11  1  0  0  0
 11 12  1  0  0  0
 12 13  1  0  0  0
 13 14  1  0  0  0
 13 15  1  0  0  0
 15 16  1  0  0  0
 12  1  1  0  0  0
  1  2  1  0  0  0
  2  3  2  0  0  0
  3  4  1  0  0  0
  4  5  2  0  0  0
  5 22  1  0  0  0
 22 24  1  0  0  0
 24 25  1  0  0  0
 25 26  2  0  0  0
 26 27  1  0  0  0
 27 28  2  0  0  0
 28 29  1  0  0  0
 29 30  1  0  0  0
 29 31  2  0  0  0
  5  6  1  0  0  0
  6  7  2  0  0  0
  7  8  1  0  0  0
  8  9  2  0  0  0
 15 10  1  0  0  0
  9  1  1  0  0  0
  9  4  1  0  0  0
 31 25  1  0  0  0
 19 21  1  0  0  0
 14 17  1  0  0  0
 16 18  1  0  0  0
 22 23  1  0  0  0
M  END
> <minimizedAffinity>
-7.56044

> <CNNscore>
0.7820560336

> <CNNaffinity>
5.8692922592

> <CNN_VS>
4.5901155472

> <CNNaffinity_variance>
0.1116173044

$$$$
[H]OC([H])([H])[C@@]1([H])O[C@]([H])(n2c([H])nc3c(N([H])C([H])([H])c4c([H])c([H])c([H])c(Cl)c4[H])nc([H])nc32)[C@]([H])(O[H])[C@]1([H])O[H]


 31 34  0  0  0  0  0  0  0  0999 V2000
    4.2354    2.6426   16.9602 N   0  0  0  0  0  0  0  0  0  0  0  0
    5.0652    3.4377   17.6340 C   0  0  0  0  0  0  0  0  0  0  0  0
    5.1303    3.0243   18.9124 N   0  0  0  0  0  0  0  0  0  0  0  0
    4.3349    1.9548   19.0581 C   0  0  0  0  0  0  0  0  0  0  0  0
    4.0053    1.1233   20.1181 C   0  0  0  0  0  0  0  0  0  0  0  0
    3.1363    0.0873   19.9363 N   0  0  0  0  0  0  0  0  0  0  0  0
    2.5909   -0.1395   18.7317 C   0  0  0  0  0  0  0  0  0  0  0  0
    2.9162    0.6710   17.7113 N   0  0  0  0  0  0  0  0  0  0  0  0
    3.7798    1.7191   17.8447 C   0  0  0  0  0  0  0  0  0  0  0  0
    1.8964    2.8739   14.4579 C   0  0  0  0  0  0  0  0  0  0  0  0
    2.5645    2.1154   15.3836 O   0  0  0  0  0  0  0  0  0  0  0  0
    3.8181    2.6467   15.5811 C   0  0  0  0  0  0  0  0  0  0  0  0
    3.8569    4.0011   14.9460 C   0  0  0  0  0  0  0  0  0  0  0  0
    3.2009    4.9706   15.7100 O   0  0  0  0  0  0  0  0  0  0  0  0
    2.9207    3.7392   13.7537 C   0  0  0  0  0  0  0  0  0  0  0  0
    2.3957    4.9015   13.2464 O   0  0  0  0  0  0  0  0  0  0  0  0
    2.6328    4.5433   16.3997 H   0  0  0  0  0  0  0  0  0  0  0  0
    3.0113    5.6485   13.1910 H   0  0  0  0  0  0  0  0  0  0  0  0
    0.1403    2.8853   12.8861 O   0  0  0  0  0  0  0  0  0  0  0  0
    1.0897    2.0585   13.4783 C   0  0  0  0  0  0  0  0  0  0  0  0
   -0.1892    3.5982   13.4873 H   0  0  0  0  0  0  0  0  0  0  0  0
    4.5886    1.3927   21.3766 N   0  0  0  0  0  0  0  0  0  0  0  0
    5.4560    0.9047   21.6636 H   0  0  0  0  0  0  0  0  0  0  0  0
    3.9785    2.3445   22.2591 C   0  0  0  0  0  0  0  0  0  0  0  0
    4.6533    3.6625   22.2164 C   0  0  0  0  0  0  0  0  0  0  0  0
    3.8535    4.7848   22.0615 C   0  0  0  0  0  0  0  0  0  0  0  0
    4.4480    6.0254   22.0081 C   0  0  0  0  0  0  0  0  0  0  0  0
    5.8229    6.1297   22.1093 C   0  0  0  0  0  0  0  0  0  0  0  0
    6.6118    5.0146   22.2627 C   0  0  0  0  0  0  0  0  0  0  0  0
    8.3479    5.2075   22.3855 Cl  0  0  0  0  0  0  0  0  0  0  0  0
    6.0139    3.7812   22.3152 C   0  0  0  0  0  0  0  0  0  0  0  0
 19 20  1  0  0  0
 20 10  1  0  0  0
 10 11  1  0  0  0
 11 12  1  0  0  0
 12 13  1  0  0  0
 13 14  1  0  0  0
 13 15  1  0  0  0
 15 16  1  0  0  0
 12  1  1  0  0  0
  1  2  1  0  0  0
  2  3  2  0  0  0
  3  4  1  0  0  0
  4  5  2  0  0  0
  5 22  1  0  0  0
 22 24  1  0  0  0
 24 25  1  0  0  0
 25 26  2  0  0  0
 26 27  1  0  0  0
 27 28  2  0  0  0
 28 29  1  0  0  0
 29 30  1  0  0  0
 29 31  2  0  0  0
  5  6  1  0  0  0
  6  7  2  0  0  0
  7  8  1  0  0  0
  8  9  2  0  0  0
 15 10  1  0  0  0
  9  1  1  0  0  0
  9  4  1  0  0  0
 31 25  1  0  0  0
 19 21  1  0  0  0
 14 17  1  0  0  0
 16 18  1  0  0  0
 22 23  1  0  0  0
M  END
> <minimizedAffinity>
-7.80635

> <CNNscore>
0.6217213869

> <CNNaffinity>
5.8858203888

> <CNN_VS>
3.6593403816

> <CNNaffinity_variance>
0.4982246757

$$$$
[H]OC([H])([H])[C@@]1([H])O[C@]([H])(n2c([H])nc3c(N([H])C([H])([H])c4c([H])c([H])c([H])c(Cl)c4[H])nc([H])nc32)[C@]([H])(O[H])[C@]1([H])O[H]


 31 34  0  0  0  0  0  0  0  0999 V2000
    4.3513    2.0554   19.4529 N   0  0  0  0  0  0  0  0  0  0  0  0
    3.7251    0.8995   19.2370 C   0  0  0  0  0  0  0  0  0  0  0  0
    3.3730    0.8247   17.9409 N   0  0  0  0  0  0  0  0  0  0  0  0
    3.7776    1.9429   17.3216 C   0  0  0  0  0  0  0  0  0  0  0  0
    3.6983    2.4195   16.0214 C   0  0  0  0  0  0  0  0  0  0  0  0
    4.2245    3.6367   15.7008 N   0  0  0  0  0  0  0  0  0  0  0  0
    4.8243    4.3865   16.6378 C   0  0  0  0  0  0  0  0  0  0  0  0
    4.8963    3.9167   17.8940 N   0  0  0  0  0  0  0  0  0  0  0  0
    4.3849    2.7063   18.2621 C   0  0  0  0  0  0  0  0  0  0  0  0
    4.2452    3.9683   22.3016 C   0  0  0  0  0  0  0  0  0  0  0  0
    4.4392    3.8753   20.9480 O   0  0  0  0  0  0  0  0  0  0  0  0
    4.9232    2.6231   20.6473 C   0  0  0  0  0  0  0  0  0  0  0  0
    4.7659    1.7583   21.8582 C   0  0  0  0  0  0  0  0  0  0  0  0
    3.4484    1.3293   22.0433 O   0  0  0  0  0  0  0  0  0  0  0  0
    4.9915    2.8199   22.9483 C   0  0  0  0  0  0  0  0  0  0  0  0
    4.4630    2.4380   24.1561 O   0  0  0  0  0  0  0  0  0  0  0  0
    2.8277    1.8643   21.4870 H   0  0  0  0  0  0  0  0  0  0  0  0
    4.5884    1.5057   24.3907 H   0  0  0  0  0  0  0  0  0  0  0  0
    4.0237    6.3112   22.1717 O   0  0  0  0  0  0  0  0  0  0  0  0
    4.6603    5.2977   22.8811 C   0  0  0  0  0  0  0  0  0  0  0  0
    3.8788    6.0916   21.2182 H   0  0  0  0  0  0  0  0  0  0  0  0
    3.0527    1.6112   15.0588 N   0  0  0  0  0  0  0  0  0  0  0  0
    3.4876    0.7240   14.7479 H   0  0  0  0  0  0  0  0  0  0  0  0
    1.7920    2.0199   14.5106 C   0  0  0  0  0  0  0  0  0  0  0  0
    1.9451    2.7322   13.2209 C   0  0  0  0  0  0  0  0  0  0  0  0
    2.5248    2.0353   12.1713 C   0  0  0  0  0  0  0  0  0  0  0  0
    2.6914    2.6694   10.9607 C   0  0  0  0  0  0  0  0  0  0  0  0
    2.2805    3.9813   10.8139 C   0  0  0  0  0  0  0  0  0  0  0  0
    1.7066    4.6683   11.8569 C   0  0  0  0  0  0  0  0  0  0  0  0
    1.2054    6.3283   11.6128 Cl  0  0  0  0  0  0  0  0  0  0  0  0
    1.5431    4.0313   13.0607 C   0  0  0  0  0  0  0  0  0  0  0  0
 19 20  1  0  0  0
 20 10  1  0  0  0
 10 11  1  0  0  0
 11 12  1  0  0  0
 12 13  1  0  0  0
 13 14  1  0  0  0
 13 15  1  0  0  0
 15 16  1  0  0  0
 12  1  1  0  0  0
  1  2  1  0  0  0
  2  3  2  0  0  0
  3  4  1  0  0  0
  4  5  2  0  0  0
  5 22  1  0  0  0
 22 24  1  0  0  0
 24 25  1  0  0  0
 25 26  2  0  0  0
 26 27  1  0  0  0
 27 28  2  0  0  0
 28 29  1  0  0  0
 29 30  1  0  0  0
 29 31  2  0  0  0
  5  6  1  0  0  0
  6  7  2  0  0  0
  7  8  1  0  0  0
  8  9  2  0  0  0
 15 10  1  0  0  0
  9  1  1  0  0  0
  9  4  1  0  0  0
 31 25  1  0  0  0
 19 21  1  0  0  0
 14 17  1  0  0  0
 16 18  1  0  0  0
 22 23  1  0  0  0
M  END
> <minimizedAffinity>
-7.73203

> <CNNscore>
0.4963496029

> <CNNaffinity>
5.8090419769

> <CNN_VS>
2.8833155632

> <CNNaffinity_variance>
0.4603318572

$$$$
[H]OC([H])([H])[C@@]1([H])O[C@]([H])(n2c([H])nc3c(N([H])C([H])([H])c4c([H])c([H])c([H])c(Cl)c4[H])nc([H])nc32)[C@]([H])(O[H])[C@]1([H])O[H]


 31 34  0  0  0  0  0  0  0  0999 V2000
    3.2646    4.8239   15.0835 N   0  0  0  0  0  0  0  0  0  0  0  0
    4.0678    5.3621   16.0000 C   0  0  0  0  0  0  0  0  0  0  0  0
    4.4314    4.4116   16.8796 N   0  0  0  0  0  0  0  0  0  0  0  0
    3.8557    3.2545   16.5227 C   0  0  0  0  0  0  0  0  0  0  0  0
    3.8623    1.9650   17.0336 C   0  0  0  0  0  0  0  0  0  0  0  0
    3.1498    0.9771   16.4190 N   0  0  0  0  0  0  0  0  0  0  0  0
    2.4350    1.2405   15.3146 C   0  0  0  0  0  0  0  0  0  0  0  0
    2.4347    2.4921   14.8273 N   0  0  0  0  0  0  0  0  0  0  0  0
    3.1313    3.5123   15.4070 C   0  0  0  0  0  0  0  0  0  0  0  0
    2.7196    7.3024   12.7714 C   0  0  0  0  0  0  0  0  0  0  0  0
    2.4684    6.7632   14.0061 O   0  0  0  0  0  0  0  0  0  0  0  0
    2.6055    5.3960   13.9370 C   0  0  0  0  0  0  0  0  0  0  0  0
    3.2623    5.0576   12.6358 C   0  0  0  0  0  0  0  0  0  0  0  0
    4.6373    5.3092   12.6477 O   0  0  0  0  0  0  0  0  0  0  0  0
    2.6650    6.1742   11.7623 C   0  0  0  0  0  0  0  0  0  0  0  0
    3.4198    6.4096   10.6404 O   0  0  0  0  0  0  0  0  0  0  0  0
    4.8788    5.8818   13.4190 H   0  0  0  0  0  0  0  0  0  0  0  0
    3.7704    5.6203   10.1998 H   0  0  0  0  0  0  0  0  0  0  0  0
    0.8934    7.9634   11.4362 O   0  0  0  0  0  0  0  0  0  0  0  0
    1.7829    8.4252   12.4011 C   0  0  0  0  0  0  0  0  0  0  0  0
    1.2866    7.2865   10.8315 H   0  0  0  0  0  0  0  0  0  0  0  0
    4.6170    1.7204   18.2029 N   0  0  0  0  0  0  0  0  0  0  0  0
    5.6277    1.9460   18.2269 H   0  0  0  0  0  0  0  0  0  0  0  0
    3.9823    1.1586   19.3599 C   0  0  0  0  0  0  0  0  0  0  0  0
    4.5947    1.6336   20.6222 C   0  0  0  0  0  0  0  0  0  0  0  0
    5.8570    1.1548   20.9395 C   0  0  0  0  0  0  0  0  0  0  0  0
    6.4525    1.5679   22.1100 C   0  0  0  0  0  0  0  0  0  0  0  0
    5.7857    2.4471   22.9431 C   0  0  0  0  0  0  0  0  0  0  0  0
    4.5346    2.9191   22.6247 C   0  0  0  0  0  0  0  0  0  0  0  0
    3.7380    4.0308   23.7181 Cl  0  0  0  0  0  0  0  0  0  0  0  0
    3.9463    2.5040   21.4572 C   0  0  0  0  0  0  0  0  0  0  0  0
 19 20  1  0  0  0
 20 10  1  0  0  0
 10 11  1  0  0  0
 11 12  1  0  0  0
 12 13  1  0  0  0
 13 14  1  0  0  0
 13 15  1  0  0  0
 15 16  1  0  0  0
 12  1  1  0  0  0
  1  2  1  0  0  0
  2  3  2  0  0  0
  3  4  1  0  0  0
  4  5  2  0  0  0
  5 22  1  0  0  0
 22 24  1  0  0  0
 24 25  1  0  0  0
 25 26  2  0  0  0
 26 27  1  0  0  0
 27 28  2  0  0  0
 28 29  1  0  0  0
 29 30  1  0  0  0
 29 31  2  0  0  0
  5  6  1  0  0  0
  6  7  2  0  0  0
  7  8  1  0  0  0
  8  9  2  0  0  0
 15 10  1  0  0  0
  9  1  1  0  0  0
  9  4  1  0  0  0
 31 25  1  0  0  0
 19 21  1  0  0  0
 14 17  1  0  0  0
 16 18  1  0  0  0
 22 23  1  0  0  0
M  END
> <minimizedAffinity>
-7.52258

> <CNNscore>
0.4213860631

> <CNNaffinity>
5.5073127747

> <CNN_VS>
2.3207049370

> <CNNaffinity_variance>
0.4817017913

$$$$
[H]OC([H])([H])[C@@]1([H])O[C@]([H])(n2c([H])nc3c(N([H])C([H])([H])c4c([H])c([H])c([H])c(Cl)c4[H])nc([H])nc32)[C@]([H])(O[H])[C@]1([H])O[H]


 31 34  0  0  0  0  0  0  0  0999 V2000
    4.2688    5.0528   17.9260 N   0  0  0  0  0  0  0  0  0  0  0  0
    3.6969    5.5749   16.8419 C   0  0  0  0  0  0  0  0  0  0  0  0
    3.1067    4.5919   16.1387 N   0  0  0  0  0  0  0  0  0  0  0  0
    3.3025    3.4301   16.7785 C   0  0  0  0  0  0  0  0  0  0  0  0
    2.9387    2.1130   16.5396 C   0  0  0  0  0  0  0  0  0  0  0  0
    3.3044    1.1287   17.4106 N   0  0  0  0  0  0  0  0  0  0  0  0
    4.0193    1.4221   18.5073 C   0  0  0  0  0  0  0  0  0  0  0  0
    4.3669    2.7002   18.7303 N   0  0  0  0  0  0  0  0  0  0  0  0
    4.0245    3.7181   17.8884 C   0  0  0  0  0  0  0  0  0  0  0  0
    5.2251    7.6988   19.8933 C   0  0  0  0  0  0  0  0  0  0  0  0
    5.3774    6.9643   18.7462 O   0  0  0  0  0  0  0  0  0  0  0  0
    5.0194    5.6596   18.9959 C   0  0  0  0  0  0  0  0  0  0  0  0
    4.3241    5.6112   20.3200 C   0  0  0  0  0  0  0  0  0  0  0  0
    3.0085    6.0790   20.2522 O   0  0  0  0  0  0  0  0  0  0  0  0
    5.1009    6.7233   21.0452 C   0  0  0  0  0  0  0  0  0  0  0  0
    4.4014    7.2275   22.1132 O   0  0  0  0  0  0  0  0  0  0  0  0
    2.8590    6.5739   19.4074 H   0  0  0  0  0  0  0  0  0  0  0  0
    3.9295    6.5725   22.6500 H   0  0  0  0  0  0  0  0  0  0  0  0
    6.6965    8.6536   21.4675 O   0  0  0  0  0  0  0  0  0  0  0  0
    6.3347    8.6940   20.1247 C   0  0  0  0  0  0  0  0  0  0  0  0
    5.9412    8.4465   22.0715 H   0  0  0  0  0  0  0  0  0  0  0  0
    2.1939    1.8339   15.3717 N   0  0  0  0  0  0  0  0  0  0  0  0
    1.1652    1.7240   15.4241 H   0  0  0  0  0  0  0  0  0  0  0  0
    2.8634    1.7025   14.1102 C   0  0  0  0  0  0  0  0  0  0  0  0
    2.0894    2.3023   12.9988 C   0  0  0  0  0  0  0  0  0  0  0  0
    2.4606    1.9635   11.7062 C   0  0  0  0  0  0  0  0  0  0  0  0
    1.7690    2.5099   10.6486 C   0  0  0  0  0  0  0  0  0  0  0  0
    0.7236    3.3812   10.8923 C   0  0  0  0  0  0  0  0  0  0  0  0
    0.3591    3.7143   12.1751 C   0  0  0  0  0  0  0  0  0  0  0  0
   -0.9733    4.8230   12.4233 Cl  0  0  0  0  0  0  0  0  0  0  0  0
    1.0517    3.1667   13.2249 C   0  0  0  0  0  0  0  0  0  0  0  0
 19 20  1  0  0  0
 20 10  1  0  0  0
 10 11  1  0  0  0
 11 12  1  0  0  0
 12 13  1  0  0  0
 13 14  1  0  0  0
 13 15  1  0  0  0
 15 16  1  0  0  0
 12  1  1  0  0  0
  1  2  1  0  0  0
  2  3  2  0  0  0
  3  4  1  0  0  0
  4  5  2  0  0  0
  5 22  1  0  0  0
 22 24  1  0  0  0
 24 25  1  0  0  0
 25 26  2  0  0  0
 26 27  1  0  0  0
 27 28  2  0  0  0
 28 29  1  0  0  0
 29 30  1  0  0  0
 29 31  2  0  0  0
  5  6  1  0  0  0
  6  7  2  0  0  0
  7  8  1  0  0  0
  8  9  2  0  0  0
 15 10  1  0  0  0
  9  1  1  0  0  0
  9  4  1  0  0  0
 31 25  1  0  0  0
 19 21  1  0  0  0
 14 17  1  0  0  0
 16 18  1  0  0  0
 22 23  1  0  0  0
M  END
> <minimizedAffinity>
-7.39678

> <CNNscore>
0.4158679843

> <CNNaffinity>
5.6295108795

> <CNN_VS>
2.3411333561

> <CNNaffinity_variance>
0.4153638482

$$$$
[H]OC([H])([H])[C@@]1([H])O[C@]([H])(n2c([H])nc3c(N([H])C([H])([H])c4c([H])c([H])c([H])c(Cl)c4[H])nc([H])nc32)[C@]([H])(O[H])[C@]1([H])O[H]


 31 34  0  0  0  0  0  0  0  0999 V2000
    2.8082    5.1848   14.8273 N   0  0  0  0  0  0  0  0  0  0  0  0
    3.5347    5.8943   15.6896 C   0  0  0  0  0  0  0  0  0  0  0  0
    4.0312    5.0703   16.6297 N   0  0  0  0  0  0  0  0  0  0  0  0
    3.6187    3.8220   16.3667 C   0  0  0  0  0  0  0  0  0  0  0  0
    3.8062    2.5868   16.9694 C   0  0  0  0  0  0  0  0  0  0  0  0
    3.2332    1.4679   16.4392 N   0  0  0  0  0  0  0  0  0  0  0  0
    2.4825    1.5484   15.3302 C   0  0  0  0  0  0  0  0  0  0  0  0
    2.3067    2.7487   14.7538 N   0  0  0  0  0  0  0  0  0  0  0  0
    2.8591    3.8949   15.2470 C   0  0  0  0  0  0  0  0  0  0  0  0
    0.1481    4.9936   12.6656 C   0  0  0  0  0  0  0  0  0  0  0  0
    1.3766    4.5396   13.0696 O   0  0  0  0  0  0  0  0  0  0  0  0
    2.0698    5.5748   13.6531 C   0  0  0  0  0  0  0  0  0  0  0  0
    1.1142    6.7013   13.8913 C   0  0  0  0  0  0  0  0  0  0  0  0
    0.2888    6.4795   14.9975 O   0  0  0  0  0  0  0  0  0  0  0  0
    0.1979    6.5073   12.6709 C   0  0  0  0  0  0  0  0  0  0  0  0
   -1.0306    7.0923   12.8513 O   0  0  0  0  0  0  0  0  0  0  0  0
    0.3219    5.5279   15.2702 H   0  0  0  0  0  0  0  0  0  0  0  0
   -1.0204    7.9598   13.2841 H   0  0  0  0  0  0  0  0  0  0  0  0
   -1.5462    4.9577   11.0276 O   0  0  0  0  0  0  0  0  0  0  0  0
   -0.2827    4.4562   11.3236 C   0  0  0  0  0  0  0  0  0  0  0  0
   -2.1112    5.0955   11.8278 H   0  0  0  0  0  0  0  0  0  0  0  0
    4.5942    2.5352   18.1411 N   0  0  0  0  0  0  0  0  0  0  0  0
    5.3262    3.2488   18.3081 H   0  0  0  0  0  0  0  0  0  0  0  0
    4.3801    1.4923   19.1021 C   0  0  0  0  0  0  0  0  0  0  0  0
    4.8427    1.8737   20.4567 C   0  0  0  0  0  0  0  0  0  0  0  0
    6.0182    1.2985   20.9156 C   0  0  0  0  0  0  0  0  0  0  0  0
    6.4728    1.6230   22.1739 C   0  0  0  0  0  0  0  0  0  0  0  0
    5.7540    2.5108   22.9527 C   0  0  0  0  0  0  0  0  0  0  0  0
    4.5893    3.0786   22.4938 C   0  0  0  0  0  0  0  0  0  0  0  0
    3.7209    4.1967   23.5243 Cl  0  0  0  0  0  0  0  0  0  0  0  0
    4.1413    2.7515   21.2393 C   0  0  0  0  0  0  0  0  0  0  0  0
 19 20  1  0  0  0
 20 10  1  0  0  0
 10 11  1  0  0  0
 11 12  1  0  0  0
 12 13  1  0  0  0
 13 14  1  0  0  0
 13 15  1  0  0  0
 15 16  1  0  0  0
 12  1  1  0  0  0
  1  2  1  0  0  0
  2  3  2  0  0  0
  3  4  1  0  0  0
  4  5  2  0  0  0
  5 22  1  0  0  0
 22 24  1  0  0  0
 24 25  1  0  0  0
 25 26  2  0  0  0
 26 27  1  0  0  0
 27 28  2  0  0  0
 28 29  1  0  0  0
 29 30  1  0  0  0
 29 31  2  0  0  0
  5  6  1  0  0  0
  6  7  2  0  0  0
  7  8  1  0  0  0
  8  9  2  0  0  0
 15 10  1  0  0  0
  9  1  1  0  0  0
  9  4  1  0  0  0
 31 25  1  0  0  0
 19 21  1  0  0  0
 14 17  1  0  0  0
 16 18  1  0  0  0
 22 23  1  0  0  0
M  END
> <minimizedAffinity>
-7.69452

> <CNNscore>
0.3329032958

> <CNNaffinity>
5.3909201622

> <CNN_VS>
1.7946550846

> <CNNaffinity_variance>
0.4699181914

$$$$
[H]OC([H])([H])[C@@]1([H])O[C@]([H])(n2c([H])nc3c(N([H])C([H])([H])c4c([H])c([H])c([H])c(Cl)c4[H])nc([H])nc32)[C@]([H])(O[H])[C@]1([H])O[H]


 31 34  0  0  0  0  0  0  0  0999 V2000
    3.2640    4.9565   18.2867 N   0  0  0  0  0  0  0  0  0  0  0  0
    2.4444    5.4199   17.3443 C   0  0  0  0  0  0  0  0  0  0  0  0
    2.1472    4.4239   16.4905 N   0  0  0  0  0  0  0  0  0  0  0  0
    2.7824    3.3129   16.8902 C   0  0  0  0  0  0  0  0  0  0  0  0
    2.8557    2.0100   16.4198 C   0  0  0  0  0  0  0  0  0  0  0  0
    3.6144    1.0836   17.0734 N   0  0  0  0  0  0  0  0  0  0  0  0
    4.2980    1.4207   18.1775 C   0  0  0  0  0  0  0  0  0  0  0  0
    4.2208    2.6846   18.6254 N   0  0  0  0  0  0  0  0  0  0  0  0
    3.4757    3.6454   18.0059 C   0  0  0  0  0  0  0  0  0  0  0  0
    5.1603    4.9891   21.1484 C   0  0  0  0  0  0  0  0  0  0  0  0
    3.9494    4.7954   20.5361 O   0  0  0  0  0  0  0  0  0  0  0  0
    3.8739    5.5999   19.4226 C   0  0  0  0  0  0  0  0  0  0  0  0
    5.2408    6.1413   19.1438 C   0  0  0  0  0  0  0  0  0  0  0  0
    6.0797    5.1969   18.5451 O   0  0  0  0  0  0  0  0  0  0  0  0
    5.7545    6.2648   20.5886 C   0  0  0  0  0  0  0  0  0  0  0  0
    7.1254    6.2985   20.6464 O   0  0  0  0  0  0  0  0  0  0  0  0
    5.6984    4.2872   18.6349 H   0  0  0  0  0  0  0  0  0  0  0  0
    7.5595    6.8259   19.9584 H   0  0  0  0  0  0  0  0  0  0  0  0
    5.5977    6.2400   23.0974 O   0  0  0  0  0  0  0  0  0  0  0  0
    5.0759    5.0290   22.6539 C   0  0  0  0  0  0  0  0  0  0  0  0
    6.3303    6.5837   22.5286 H   0  0  0  0  0  0  0  0  0  0  0  0
    2.1322    1.6874   15.2497 N   0  0  0  0  0  0  0  0  0  0  0  0
    1.1569    1.3453   15.3184 H   0  0  0  0  0  0  0  0  0  0  0  0
    2.7493    1.8341   13.9634 C   0  0  0  0  0  0  0  0  0  0  0  0
    2.2517    3.0238   13.2345 C   0  0  0  0  0  0  0  0  0  0  0  0
    3.1942    3.9295   12.7714 C   0  0  0  0  0  0  0  0  0  0  0  0
    2.7668    5.0516   12.0979 C   0  0  0  0  0  0  0  0  0  0  0  0
    1.4140    5.2542   11.8966 C   0  0  0  0  0  0  0  0  0  0  0  0
    0.4832    4.3538   12.3573 C   0  0  0  0  0  0  0  0  0  0  0  0
   -1.2168    4.6626   12.0730 Cl  0  0  0  0  0  0  0  0  0  0  0  0
    0.9150    3.2377   13.0277 C   0  0  0  0  0  0  0  0  0  0  0  0
 19 20  1  0  0  0
 20 10  1  0  0  0
 10 11  1  0  0  0
 11 12  1  0  0  0
 12 13  1  0  0  0
 13 14  1  0  0  0
 13 15  1  0  0  0
 15 16  1  0  0  0
 12  1  1  0  0  0
  1  2  1  0  0  0
  2  3  2  0  0  0
  3  4  1  0  0  0
  4  5  2  0  0  0
  5 22  1  0  0  0
 22 24  1  0  0  0
 24 25  1  0  0  0
 25 26  2  0  0  0
 26 27  1  0  0  0
 27 28  2  0  0  0
 28 29  1  0  0  0
 29 30  1  0  0  0
 29 31  2  0  0  0
  5  6  1  0  0  0
  6  7  2  0  0  0
  7  8  1  0  0  0
  8  9  2  0  0  0
 15 10  1  0  0  0
  9  1  1  0  0  0
  9  4  1  0  0  0
 31 25  1  0  0  0
 19 21  1  0  0  0
 14 17  1  0  0  0
 16 18  1  0  0  0
 22 23  1  0  0  0
M  END
> <minimizedAffinity>
-7.08099

> <CNNscore>
0.3327620327

> <CNNaffinity>
5.4728593826

> <CNN_VS>
1.8211598396

> <CNNaffinity_variance>
0.3629026115

$$$$
[H]OC([H])([H])[C@@]1([H])O[C@]([H])(n2c([H])nc3c(N([H])C([H])([H])c4c([H])c([H])c([H])c(Cl)c4[H])nc([H])nc32)[C@]([H])(O[H])[C@]1([H])O[H]


 31 34  0  0  0  0  0  0  0  0999 V2000
    2.4819    3.6843   14.2731 N   0  0  0  0  0  0  0  0  0  0  0  0
    3.0905    4.8633   14.3927 C   0  0  0  0  0  0  0  0  0  0  0  0
    3.9004    4.8340   15.4663 N   0  0  0  0  0  0  0  0  0  0  0  0
    3.8093    3.6252   16.0390 C   0  0  0  0  0  0  0  0  0  0  0  0
    4.3933    3.0246   17.1445 C   0  0  0  0  0  0  0  0  0  0  0  0
    4.0817    1.7379   17.4741 N   0  0  0  0  0  0  0  0  0  0  0  0
    3.2079    1.0387   16.7340 C   0  0  0  0  0  0  0  0  0  0  0  0
    2.6476    1.6288   15.6654 N   0  0  0  0  0  0  0  0  0  0  0  0
    2.9278    2.9124   15.2967 C   0  0  0  0  0  0  0  0  0  0  0  0
    0.6337    3.9136   11.3891 C   0  0  0  0  0  0  0  0  0  0  0  0
    0.7784    4.1883   12.7240 O   0  0  0  0  0  0  0  0  0  0  0  0
    1.5288    3.1950   13.3096 C   0  0  0  0  0  0  0  0  0  0  0  0
    2.1434    2.3711   12.2221 C   0  0  0  0  0  0  0  0  0  0  0  0
    3.2377    3.0028   11.6242 O   0  0  0  0  0  0  0  0  0  0  0  0
    1.0167    2.4634   11.1787 C   0  0  0  0  0  0  0  0  0  0  0  0
    1.4672    2.1974    9.9097 O   0  0  0  0  0  0  0  0  0  0  0  0
    3.2556    3.9644   11.8610 H   0  0  0  0  0  0  0  0  0  0  0  0
    2.1020    1.4684    9.8363 H   0  0  0  0  0  0  0  0  0  0  0  0
   -1.6568    4.1120   11.9078 O   0  0  0  0  0  0  0  0  0  0  0  0
   -0.7478    4.2063   10.8588 C   0  0  0  0  0  0  0  0  0  0  0  0
   -1.4054    3.4371   12.5857 H   0  0  0  0  0  0  0  0  0  0  0  0
    5.3026    3.7891   17.9096 N   0  0  0  0  0  0  0  0  0  0  0  0
    6.3124    3.5584   17.9015 H   0  0  0  0  0  0  0  0  0  0  0  0
    4.8266    4.8875   18.6995 C   0  0  0  0  0  0  0  0  0  0  0  0
    4.7270    4.5435   20.1368 C   0  0  0  0  0  0  0  0  0  0  0  0
    3.9416    5.3606   20.9361 C   0  0  0  0  0  0  0  0  0  0  0  0
    3.8340    5.0760   22.2788 C   0  0  0  0  0  0  0  0  0  0  0  0
    4.5066    3.9878   22.8031 C   0  0  0  0  0  0  0  0  0  0  0  0
    5.2840    3.1807   22.0072 C   0  0  0  0  0  0  0  0  0  0  0  0
    6.1128    1.8161   22.7264 Cl  0  0  0  0  0  0  0  0  0  0  0  0
    5.3875    3.4691   20.6702 C   0  0  0  0  0  0  0  0  0  0  0  0
 19 20  1  0  0  0
 20 10  1  0  0  0
 10 11  1  0  0  0
 11 12  1  0  0  0
 12 13  1  0  0  0
 13 14  1  0  0  0
 13 15  1  0  0  0
 15 16  1  0  0  0
 12  1  1  0  0  0
  1  2  1  0  0  0
  2  3  2  0  0  0
  3  4  1  0  0  0
  4  5  2  0  0  0
  5 22  1  0  0  0
 22 24  1  0  0  0
 24 25  1  0  0  0
 25 26  2  0  0  0
 26 27  1  0  0  0
 27 28  2  0  0  0
 28 29  1  0  0  0
 29 30  1  0  0  0
 29 31  2  0  0  0
  5  6  1  0  0  0
  6  7  2  0  0  0
  7  8  1  0  0  0
  8  9  2  0  0  0
 15 10  1  0  0  0
  9  1  1  0  0  0
  9  4  1  0  0  0
 31 25  1  0  0  0
 19 21  1  0  0  0
 14 17  1  0  0  0
 16 18  1  0  0  0
 22 23  1  0  0  0
M  END
> <minimizedAffinity>
-6.92866

> <CNNscore>
0.3072874248

> <CNNaffinity>
5.4723634720

> <CNN_VS>
1.6815885305

> <CNNaffinity_variance>
0.5972142220

$$$$
[H]OC([H])([H])[C@@]1([H])O[C@]([H])(n2c([H])nc3c(N([H])C([H])([H])c4c([H])c([H])c([H])c(Cl)c4[H])nc([H])nc32)[C@]([H])(O[H])[C@]1([H])O[H]


 31 34  0  0  0  0  0  0  0  0999 V2000
    5.5322    4.8326   19.3462 N   0  0  0  0  0  0  0  0  0  0  0  0
    5.6688    4.8991   18.0227 C   0  0  0  0  0  0  0  0  0  0  0  0
    5.1887    3.7691   17.4731 N   0  0  0  0  0  0  0  0  0  0  0  0
    4.7408    2.9722   18.4538 C   0  0  0  0  0  0  0  0  0  0  0  0
    4.1547    1.7158   18.4968 C   0  0  0  0  0  0  0  0  0  0  0  0
    3.8020    1.1610   19.6923 N   0  0  0  0  0  0  0  0  0  0  0  0
    4.0173    1.8229   20.8392 C   0  0  0  0  0  0  0  0  0  0  0  0
    4.5854    3.0389   20.7875 N   0  0  0  0  0  0  0  0  0  0  0  0
    4.9550    3.6342   19.6166 C   0  0  0  0  0  0  0  0  0  0  0  0
    6.3531    7.9445   20.5414 C   0  0  0  0  0  0  0  0  0  0  0  0
    6.7391    6.7558   19.9789 O   0  0  0  0  0  0  0  0  0  0  0  0
    5.8802    5.7628   20.3901 C   0  0  0  0  0  0  0  0  0  0  0  0
    4.6962    6.4083   21.0386 C   0  0  0  0  0  0  0  0  0  0  0  0
    3.8051    6.9513   20.1084 O   0  0  0  0  0  0  0  0  0  0  0  0
    5.3956    7.6241   21.6704 C   0  0  0  0  0  0  0  0  0  0  0  0
    4.5146    8.6407   21.9428 O   0  0  0  0  0  0  0  0  0  0  0  0
    4.2328    7.0213   19.2178 H   0  0  0  0  0  0  0  0  0  0  0  0
    3.6580    8.3654   22.3037 H   0  0  0  0  0  0  0  0  0  0  0  0
    7.5003    8.8169   22.4062 O   0  0  0  0  0  0  0  0  0  0  0  0
    7.5078    8.7914   21.0152 C   0  0  0  0  0  0  0  0  0  0  0  0
    6.5919    8.7701   22.7948 H   0  0  0  0  0  0  0  0  0  0  0  0
    3.9490    1.0395   17.2733 N   0  0  0  0  0  0  0  0  0  0  0  0
    4.7290    0.5267   16.8243 H   0  0  0  0  0  0  0  0  0  0  0  0
    2.6569    1.0627   16.6512 C   0  0  0  0  0  0  0  0  0  0  0  0
    2.5896    2.0325   15.5334 C   0  0  0  0  0  0  0  0  0  0  0  0
    2.9189    1.5718   14.2675 C   0  0  0  0  0  0  0  0  0  0  0  0
    2.8764    2.4482   13.2066 C   0  0  0  0  0  0  0  0  0  0  0  0
    2.5085    3.7636   13.4208 C   0  0  0  0  0  0  0  0  0  0  0  0
    2.1830    4.2159   14.6773 C   0  0  0  0  0  0  0  0  0  0  0  0
    1.7245    5.8926   14.8887 Cl  0  0  0  0  0  0  0  0  0  0  0  0
    2.2271    3.3382   15.7304 C   0  0  0  0  0  0  0  0  0  0  0  0
 19 20  1  0  0  0
 20 10  1  0  0  0
 10 11  1  0  0  0
 11 12  1  0  0  0
 12 13  1  0  0  0
 13 14  1  0  0  0
 13 15  1  0  0  0
 15 16  1  0  0  0
 12  1  1  0  0  0
  1  2  1  0  0  0
  2  3  2  0  0  0
  3  4  1  0  0  0
  4  5  2  0  0  0
  5 22  1  0  0  0
 22 24  1  0  0  0
 24 25  1  0  0  0
 25 26  2  0  0  0
 26 27  1  0  0  0
 27 28  2  0  0  0
 28 29  1  0  0  0
 29 30  1  0  0  0
 29 31  2  0  0  0
  5  6  1  0  0  0
  6  7  2  0  0  0
  7  8  1  0  0  0
  8  9  2  0  0  0
 15 10  1  0  0  0
  9  1  1  0  0  0
  9  4  1  0  0  0
 31 25  1  0  0  0
 19 21  1  0  0  0
 14 17  1  0  0  0
 16 18  1  0  0  0
 22 23  1  0  0  0
M  END
> <minimizedAffinity>
-8.37974

> <CNNscore>
0.2780983746

> <CNNaffinity>
5.3916134834

> <CNN_VS>
1.4993989468

> <CNNaffinity_variance>
0.2424583733

$$$$
[H]c1c([H])c(S(=O)(=O)N2C([H])([H])C([H])([H])C([H])(N3C([H])([H])C([H])([H])C([H])(C#N)C([H])([H])C3([H])[H])C([H])([H])C2([H])[H])c([H])c([H])c1C(F)(F)F


 27 29  0  0  0  0  0  0  0  0999 V2000
    3.1172    1.2159   16.9260 N   0  0  0  0  0  0  0  0  0  0  0  0
    2.7453    0.7529   15.6192 C   0  0  0  0  0  0  0  0  0  0  0  0
    2.5805    1.8617   14.6232 C   0  0  0  0  0  0  0  0  0  0  0  0
    2.7687    3.2264   15.2262 C   0  0  0  0  0  0  0  0  0  0  0  0
    3.9966    3.3318   16.0729 C   0  0  0  0  0  0  0  0  0  0  0  0
    4.1835    2.1119   16.9652 C   0  0  0  0  0  0  0  0  0  0  0  0
    2.5135    4.2714   14.3213 N   0  0  0  0  0  0  0  0  0  0  0  0
    3.6017    4.7967   13.5631 C   0  0  0  0  0  0  0  0  0  0  0  0
    3.1154    5.9874   12.7583 C   0  0  0  0  0  0  0  0  0  0  0  0
    1.7474    6.4696   13.1848 C   0  0  0  0  0  0  0  0  0  0  0  0
    0.7897    5.3453   12.9635 C   0  0  0  0  0  0  0  0  0  0  0  0
    1.4001    4.0438   13.4349 C   0  0  0  0  0  0  0  0  0  0  0  0
    1.4381    7.6216   12.3463 C   0  0  0  0  0  0  0  0  0  0  0  0
    1.1729    8.5364   11.6641 N   0  0  0  0  0  0  0  0  0  0  0  0
    2.6925    0.2268   18.1900 S   0  0  0  0  0  0  0  0  0  0  0  0
    1.1669    0.2125   18.3045 O   0  0  0  0  0  0  0  0  0  0  0  0
    3.0781   -1.2273   17.9835 O   0  0  0  0  0  0  0  0  0  0  0  0
    4.3203    1.7377   22.2041 C   0  0  0  0  0  0  0  0  0  0  0  0
    3.4463    0.6462   22.1164 C   0  0  0  0  0  0  0  0  0  0  0  0
    2.9612    0.1938   20.9142 C   0  0  0  0  0  0  0  0  0  0  0  0
    3.3175    0.8008   19.7070 C   0  0  0  0  0  0  0  0  0  0  0  0
    4.1783    1.8772   19.8041 C   0  0  0  0  0  0  0  0  0  0  0  0
    4.6746    2.3433   21.0179 C   0  0  0  0  0  0  0  0  0  0  0  0
    4.4259    3.4872   23.7712 F   0  0  0  0  0  0  0  0  0  0  0  0
    4.8317    2.1952   23.5268 C   0  0  0  0  0  0  0  0  0  0  0  0
    4.3775    1.3885   24.5450 F   0  0  0  0  0  0  0  0  0  0  0  0
    6.2146    2.1915   23.4670 F   0  0  0  0  0  0  0  0  0  0  0  0
 24 25  1  0  0  0
 25 26  1  0  0  0
 25 27  1  0  0  0
 25 18  1  0  0  0
 18 19  2  0  0  0
 19 20  1  0  0  0
 20 21  2  0  0  0
 21 22  1  0  0  0
 22 23  2  0  0  0
 21 15  1  0  0  0
 15 16  2  0  0  0
 15 17  2  0  0  0
 15  1  1  0  0  0
  1  2  1  0  0  0
  2  3  1  0  0  0
  3  4  1  0  0  0
  4  5  1  0  0  0
  5  6  1  0  0  0
  4  7  1  0  0  0
  7  8  1  0  0  0
  8  9  1  0  0  0
  9 10  1  0  0  0
 10 11  1  0  0  0
 11 12  1  0  0  0
 10 13  1  0  0  0
 13 14  3  0  0  0
 23 18  1  0  0  0
  6  1  1  0  0  0
 12  7  1  0  0  0
M  END
> <minimizedAffinity>
-7.51544

> <CNNscore>
0.7200626731

> <CNNaffinity>
6.4427924156

> <CNN_VS>
4.6392145157

> <CNNaffinity_variance>
0.0913767144

$$$$
[H]c1c([H])c(S(=O)(=O)N2C([H])([H])C([H])([H])C([H])(N3C([H])([H])C([H])([H])C([H])(C#N)C([H])([H])C3([H])[H])C([H])([H])C2([H])[H])c([H])c([H])c1C(F)(F)F


 27 29  0  0  0  0  0  0  0  0999 V2000
    2.6309    5.5281   12.3091 N   0  0  0  0  0  0  0  0  0  0  0  0
    3.4642    4.6955   11.4890 C   0  0  0  0  0  0  0  0  0  0  0  0
    4.0931    5.4323   10.3442 C   0  0  0  0  0  0  0  0  0  0  0  0
    3.6568    6.8688   10.2591 C   0  0  0  0  0  0  0  0  0  0  0  0
    3.7277    7.5845   11.5700 C   0  0  0  0  0  0  0  0  0  0  0  0
    3.2003    6.7326   12.7169 C   0  0  0  0  0  0  0  0  0  0  0  0
    4.1618    7.5347    9.1287 N   0  0  0  0  0  0  0  0  0  0  0  0
    4.9334    6.7900    8.1880 C   0  0  0  0  0  0  0  0  0  0  0  0
    5.4723    7.7353    7.1307 C   0  0  0  0  0  0  0  0  0  0  0  0
    5.3129    9.1918    7.5040 C   0  0  0  0  0  0  0  0  0  0  0  0
    3.8506    9.4562    7.6525 C   0  0  0  0  0  0  0  0  0  0  0  0
    3.1932    8.3237    8.4102 C   0  0  0  0  0  0  0  0  0  0  0  0
    5.8977    9.9619    6.4127 C   0  0  0  0  0  0  0  0  0  0  0  0
    6.3476   10.5851    5.5286 N   0  0  0  0  0  0  0  0  0  0  0  0
    1.4247    4.7464   13.1402 S   0  0  0  0  0  0  0  0  0  0  0  0
    0.5770    5.7934   13.8654 O   0  0  0  0  0  0  0  0  0  0  0  0
    0.4451    4.0092   12.2444 O   0  0  0  0  0  0  0  0  0  0  0  0
    3.0767    1.8849   16.3227 C   0  0  0  0  0  0  0  0  0  0  0  0
    2.6733    1.4406   15.0566 C   0  0  0  0  0  0  0  0  0  0  0  0
    2.1807    2.2983   14.1043 C   0  0  0  0  0  0  0  0  0  0  0  0
    2.0568    3.6687   14.3485 C   0  0  0  0  0  0  0  0  0  0  0  0
    2.4555    4.0967   15.6003 C   0  0  0  0  0  0  0  0  0  0  0  0
    2.9554    3.2350   16.5720 C   0  0  0  0  0  0  0  0  0  0  0  0
    4.9219    1.2307   17.6247 F   0  0  0  0  0  0  0  0  0  0  0  0
    3.6135    0.9247   17.3278 C   0  0  0  0  0  0  0  0  0  0  0  0
    2.8774    0.9539   18.4902 F   0  0  0  0  0  0  0  0  0  0  0  0
    3.5941   -0.3361   16.7569 F   0  0  0  0  0  0  0  0  0  0  0  0
 24 25  1  0  0  0
 25 26  1  0  0  0
 25 27  1  0  0  0
 25 18  1  0  0  0
 18 19  2  0  0  0
 19 20  1  0  0  0
 20 21  2  0  0  0
 21 22  1  0  0  0
 22 23  2  0  0  0
 21 15  1  0  0  0
 15 16  2  0  0  0
 15 17  2  0  0  0
 15  1  1  0  0  0
  1  2  1  0  0  0
  2  3  1  0  0  0
  3  4  1  0  0  0
  4  5  1  0  0  0
  5  6  1  0  0  0
  4  7  1  0  0  0
  7  8  1  0  0  0
  8  9  1  0  0  0
  9 10  1  0  0  0
 10 11  1  0  0  0
 11 12  1  0  0  0
 10 13  1  0  0  0
 13 14  3  0  0  0
 23 18  1  0  0  0
  6  1  1  0  0  0
 12  7  1  0  0  0
M  END
> <minimizedAffinity>
-6.47543

> <CNNscore>
0.3620576262

> <CNNaffinity>
4.9682588577

> <CNN_VS>
1.7987960577

> <CNNaffinity_variance>
0.0993116274

$$$$
[H]c1c([H])c(S(=O)(=O)N2C([H])([H])C([H])([H])C([H])(N3C([H])([H])C([H])([H])C([H])(C#N)C([H])([H])C3([H])[H])C([H])([H])C2([H])[H])c([H])c([H])c1C(F)(F)F


 27 29  0  0  0  0  0  0  0  0999 V2000
    5.4855    8.1491   19.0199 N   0  0  0  0  0  0  0  0  0  0  0  0
    6.0273    7.8006   17.7372 C   0  0  0  0  0  0  0  0  0  0  0  0
    5.4885    6.5090   17.1983 C   0  0  0  0  0  0  0  0  0  0  0  0
    4.5513    5.8199   18.1512 C   0  0  0  0  0  0  0  0  0  0  0  0
    3.5142    6.7337   18.7215 C   0  0  0  0  0  0  0  0  0  0  0  0
    4.0978    8.0814   19.1247 C   0  0  0  0  0  0  0  0  0  0  0  0
    4.1252    4.5604   17.6949 N   0  0  0  0  0  0  0  0  0  0  0  0
    3.0520    4.5033   16.7568 C   0  0  0  0  0  0  0  0  0  0  0  0
    2.6866    3.0516   16.5102 C   0  0  0  0  0  0  0  0  0  0  0  0
    3.3188    2.1059   17.5061 C   0  0  0  0  0  0  0  0  0  0  0  0
    4.7999    2.2356   17.3654 C   0  0  0  0  0  0  0  0  0  0  0  0
    5.1831    3.6938   17.2399 C   0  0  0  0  0  0  0  0  0  0  0  0
    2.8534    0.7692   17.1558 C   0  0  0  0  0  0  0  0  0  0  0  0
    2.4658   -0.3042   16.8912 N   0  0  0  0  0  0  0  0  0  0  0  0
    6.4383    9.1275   19.9641 S   0  0  0  0  0  0  0  0  0  0  0  0
    7.1235   10.1556   19.0618 O   0  0  0  0  0  0  0  0  0  0  0  0
    5.6564    9.9553   20.9686 O   0  0  0  0  0  0  0  0  0  0  0  0
    9.7299    6.7621   22.1125 C   0  0  0  0  0  0  0  0  0  0  0  0
    8.4648    6.2169   21.8567 C   0  0  0  0  0  0  0  0  0  0  0  0
    7.4811    6.9252   21.2120 C   0  0  0  0  0  0  0  0  0  0  0  0
    7.6917    8.2350   20.7725 C   0  0  0  0  0  0  0  0  0  0  0  0
    8.9416    8.7642   21.0309 C   0  0  0  0  0  0  0  0  0  0  0  0
    9.9447    8.0544   21.6841 C   0  0  0  0  0  0  0  0  0  0  0  0
   11.1568    4.8956   22.0239 F   0  0  0  0  0  0  0  0  0  0  0  0
   10.7748    5.9596   22.8086 C   0  0  0  0  0  0  0  0  0  0  0  0
   11.8851    6.7220   23.0916 F   0  0  0  0  0  0  0  0  0  0  0  0
   10.2120    5.4498   23.9658 F   0  0  0  0  0  0  0  0  0  0  0  0
 24 25  1  0  0  0
 25 26  1  0  0  0
 25 27  1  0  0  0
 25 18  1  0  0  0
 18 19  2  0  0  0
 19 20  1  0  0  0
 20 21  2  0  0  0
 21 22  1  0  0  0
 22 23  2  0  0  0
 21 15  1  0  0  0
 15 16  2  0  0  0
 15 17  2  0  0  0
 15  1  1  0  0  0
  1  2  1  0  0  0
  2  3  1  0  0  0
  3  4  1  0  0  0
  4  5  1  0  0  0
  5  6  1  0  0  0
  4  7  1  0  0  0
  7  8  1  0  0  0
  8  9  1  0  0  0
  9 10  1  0  0  0
 10 11  1  0  0  0
 11 12  1  0  0  0
 10 13  1  0  0  0
 13 14  3  0  0  0
 23 18  1  0  0  0
  6  1  1  0  0  0
 12  7  1  0  0  0
M  END
> <minimizedAffinity>
-6.97490

> <CNNscore>
0.3372249305

> <CNNaffinity>
5.9351172447

> <CNN_VS>
2.0014696121

> <CNNaffinity_variance>
0.1762660146

$$$$
[H]c1c([H])c(S(=O)(=O)N2C([H])([H])C([H])([H])C([H])(N3C([H])([H])C([H])([H])C([H])(C#N)C([H])([H])C3([H])[H])C([H])([H])C2([H])[H])c([H])c([H])c1C(F)(F)F


 27 29  0  0  0  0  0  0  0  0999 V2000
    2.7366    5.8695   12.8948 N   0  0  0  0  0  0  0  0  0  0  0  0
    3.1521    7.1730   13.3290 C   0  0  0  0  0  0  0  0  0  0  0  0
    4.4968    7.5727   12.7990 C   0  0  0  0  0  0  0  0  0  0  0  0
    5.1532    6.4914   11.9858 C   0  0  0  0  0  0  0  0  0  0  0  0
    4.2415    5.8846   10.9678 C   0  0  0  0  0  0  0  0  0  0  0  0
    2.8485    5.6277   11.5272 C   0  0  0  0  0  0  0  0  0  0  0  0
    6.4560    6.8220   11.5742 N   0  0  0  0  0  0  0  0  0  0  0  0
    6.9281    6.3080   10.3300 C   0  0  0  0  0  0  0  0  0  0  0  0
    8.3870    6.6877   10.1589 C   0  0  0  0  0  0  0  0  0  0  0  0
    9.0115    7.2208   11.4285 C   0  0  0  0  0  0  0  0  0  0  0  0
    8.2594    8.4529   11.8116 C   0  0  0  0  0  0  0  0  0  0  0  0
    6.7730    8.2262   11.6440 C   0  0  0  0  0  0  0  0  0  0  0  0
   10.4048    7.5099   11.1109 C   0  0  0  0  0  0  0  0  0  0  0  0
   11.5179    7.7561   10.8404 N   0  0  0  0  0  0  0  0  0  0  0  0
    1.6609    5.0868   13.8881 S   0  0  0  0  0  0  0  0  0  0  0  0
    0.6496    6.1090   14.4106 O   0  0  0  0  0  0  0  0  0  0  0  0
    0.8209    4.0419   13.1752 O   0  0  0  0  0  0  0  0  0  0  0  0
    3.7169    3.2056   17.5322 C   0  0  0  0  0  0  0  0  0  0  0  0
    3.7026    2.5809   16.2781 C   0  0  0  0  0  0  0  0  0  0  0  0
    3.0885    3.1458   15.1878 C   0  0  0  0  0  0  0  0  0  0  0  0
    2.4429    4.3824   15.2714 C   0  0  0  0  0  0  0  0  0  0  0  0
    2.4609    4.9895   16.5124 C   0  0  0  0  0  0  0  0  0  0  0  0
    3.0801    4.4245   17.6233 C   0  0  0  0  0  0  0  0  0  0  0  0
    3.5591    2.5328   19.7795 F   0  0  0  0  0  0  0  0  0  0  0  0
    4.4003    2.5647   18.6908 C   0  0  0  0  0  0  0  0  0  0  0  0
    4.7885    1.2783   18.3936 F   0  0  0  0  0  0  0  0  0  0  0  0
    5.4905    3.3503   19.0230 F   0  0  0  0  0  0  0  0  0  0  0  0
 24 25  1  0  0  0
 25 26  1  0  0  0
 25 27  1  0  0  0
 25 18  1  0  0  0
 18 19  2  0  0  0
 19 20  1  0  0  0
 20 21  2  0  0  0
 21 22  1  0  0  0
 22 23  2  0  0  0
 21 15  1  0  0  0
 15 16  2  0  0  0
 15 17  2  0  0  0
 15  1  1  0  0  0
  1  2  1  0  0  0
  2  3  1  0  0  0
  3  4  1  0  0  0
  4  5  1  0  0  0
  5  6  1  0  0  0
  4  7  1  0  0  0
  7  8  1  0  0  0
  8  9  1  0  0  0
  9 10  1  0  0  0
 10 11  1  0  0  0
 11 12  1  0  0  0
 10 13  1  0  0  0
 13 14  3  0  0  0
 23 18  1  0  0  0
  6  1  1  0  0  0
 12  7  1  0  0  0
M  END
> <minimizedAffinity>
-6.05618

> <CNNscore>
0.3290468454

> <CNNaffinity>
5.1342191696

> <CNN_VS>
1.6893986464

> <CNNaffinity_variance>
0.2534686923

$$$$
[H]c1c([H])c(S(=O)(=O)N2C([H])([H])C([H])([H])C([H])(N3C([H])([H])C([H])([H])C([H])(C#N)C([H])([H])C3([H])[H])C([H])([H])C2([H])[H])c([H])c([H])c1C(F)(F)F


 27 29  0  0  0  0  0  0  0  0999 V2000
    4.5007    7.4697   18.9906 N   0  0  0  0  0  0  0  0  0  0  0  0
    4.2862    8.8249   18.5691 C   0  0  0  0  0  0  0  0  0  0  0  0
    4.2679    8.9851   17.0782 C   0  0  0  0  0  0  0  0  0  0  0  0
    4.5516    7.7028   16.3457 C   0  0  0  0  0  0  0  0  0  0  0  0
    3.7533    6.5452   16.8540 C   0  0  0  0  0  0  0  0  0  0  0  0
    3.6945    6.5142   18.3755 C   0  0  0  0  0  0  0  0  0  0  0  0
    4.6381    7.8687   14.9524 N   0  0  0  0  0  0  0  0  0  0  0  0
    3.4391    7.7991   14.1826 C   0  0  0  0  0  0  0  0  0  0  0  0
    3.7914    7.8784   12.7091 C   0  0  0  0  0  0  0  0  0  0  0  0
    5.2706    7.7095   12.4454 C   0  0  0  0  0  0  0  0  0  0  0  0
    5.9780    8.8226   13.1460 C   0  0  0  0  0  0  0  0  0  0  0  0
    5.3937    9.0201   14.5275 C   0  0  0  0  0  0  0  0  0  0  0  0
    5.4408    7.7809   10.9991 C   0  0  0  0  0  0  0  0  0  0  0  0
    5.5940    7.8520    9.8397 N   0  0  0  0  0  0  0  0  0  0  0  0
    5.1768    7.2803   20.4951 S   0  0  0  0  0  0  0  0  0  0  0  0
    6.6910    7.4633   20.3740 O   0  0  0  0  0  0  0  0  0  0  0  0
    4.7394    8.3333   21.4978 O   0  0  0  0  0  0  0  0  0  0  0  0
    4.4469    3.0924   22.2197 C   0  0  0  0  0  0  0  0  0  0  0  0
    3.8467    4.2372   22.7602 C   0  0  0  0  0  0  0  0  0  0  0  0
    4.0645    5.4899   22.2421 C   0  0  0  0  0  0  0  0  0  0  0  0
    4.9001    5.6901   21.1400 C   0  0  0  0  0  0  0  0  0  0  0  0
    5.4886    4.5554   20.6153 C   0  0  0  0  0  0  0  0  0  0  0  0
    5.2744    3.2819   21.1339 C   0  0  0  0  0  0  0  0  0  0  0  0
    4.9171    0.7899   22.1473 F   0  0  0  0  0  0  0  0  0  0  0  0
    4.1804    1.7483   22.8050 C   0  0  0  0  0  0  0  0  0  0  0  0
    4.5016    1.7126   24.1427 F   0  0  0  0  0  0  0  0  0  0  0  0
    2.8411    1.4611   22.6060 F   0  0  0  0  0  0  0  0  0  0  0  0
 24 25  1  0  0  0
 25 26  1  0  0  0
 25 27  1  0  0  0
 25 18  1  0  0  0
 18 19  2  0  0  0
 19 20  1  0  0  0
 20 21  2  0  0  0
 21 22  1  0  0  0
 22 23  2  0  0  0
 21 15  1  0  0  0
 15 16  2  0  0  0
 15 17  2  0  0  0
 15  1  1  0  0  0
  1  2  1  0  0  0
  2  3  1  0  0  0
  3  4  1  0  0  0
  4  5  1  0  0  0
  5  6  1  0  0  0
  4  7  1  0  0  0
  7  8  1  0  0  0
  8  9  1  0  0  0
  9 10  1  0  0  0
 10 11  1  0  0  0
 11 12  1  0  0  0
 10 13  1  0  0  0
 13 14  3  0  0  0
 23 18  1  0  0  0
  6  1  1  0  0  0
 12  7  1  0  0  0
M  END
> <minimizedAffinity>
-7.44908

> <CNNscore>
0.3118690848

> <CNNaffinity>
5.2585439682

> <CNN_VS>
1.6399773359

> <CNNaffinity_variance>
0.0977505222

$$$$
[H]c1c([H])c(S(=O)(=O)N2C([H])([H])C([H])([H])C([H])(N3C([H])([H])C([H])([H])C([H])(C#N)C([H])([H])C3([H])[H])C([H])([H])C2([H])[H])c([H])c([H])c1C(F)(F)F


 27 29  0  0  0  0  0  0  0  0999 V2000
    5.8750    7.4578   19.7388 N   0  0  0  0  0  0  0  0  0  0  0  0
    6.8070    7.8096   18.7054 C   0  0  0  0  0  0  0  0  0  0  0  0
    6.1641    7.9785   17.3611 C   0  0  0  0  0  0  0  0  0  0  0  0
    4.6922    7.6709   17.3707 C   0  0  0  0  0  0  0  0  0  0  0  0
    3.9599    8.3311   18.4947 C   0  0  0  0  0  0  0  0  0  0  0  0
    4.7278    8.2454   19.8071 C   0  0  0  0  0  0  0  0  0  0  0  0
    4.1066    7.7270   16.0939 N   0  0  0  0  0  0  0  0  0  0  0  0
    4.7830    8.4484   15.0657 C   0  0  0  0  0  0  0  0  0  0  0  0
    3.9101    8.4777   13.8251 C   0  0  0  0  0  0  0  0  0  0  0  0
    2.4929    8.0216   14.0890 C   0  0  0  0  0  0  0  0  0  0  0  0
    2.5615    6.6086   14.5674 C   0  0  0  0  0  0  0  0  0  0  0  0
    3.6878    6.4532   15.5656 C   0  0  0  0  0  0  0  0  0  0  0  0
    1.7826    8.1333   12.8206 C   0  0  0  0  0  0  0  0  0  0  0  0
    1.2012    8.2403   11.8091 N   0  0  0  0  0  0  0  0  0  0  0  0
    6.5093    6.6324   21.0322 S   0  0  0  0  0  0  0  0  0  0  0  0
    8.0351    6.6530   20.9209 O   0  0  0  0  0  0  0  0  0  0  0  0
    6.2111    7.2779   22.3739 O   0  0  0  0  0  0  0  0  0  0  0  0
    5.1868    2.2398   21.0666 C   0  0  0  0  0  0  0  0  0  0  0  0
    4.8285    3.1191   20.0364 C   0  0  0  0  0  0  0  0  0  0  0  0
    5.2264    4.4331   20.0263 C   0  0  0  0  0  0  0  0  0  0  0  0
    6.0165    4.9657   21.0486 C   0  0  0  0  0  0  0  0  0  0  0  0
    6.3631    4.0912   22.0607 C   0  0  0  0  0  0  0  0  0  0  0  0
    5.9641    2.7581   22.0799 C   0  0  0  0  0  0  0  0  0  0  0  0
    5.8307   -0.0212   21.1033 F   0  0  0  0  0  0  0  0  0  0  0  0
    4.7419    0.8180   21.0391 C   0  0  0  0  0  0  0  0  0  0  0  0
    3.9029    0.5359   22.0929 F   0  0  0  0  0  0  0  0  0  0  0  0
    4.1109    0.5983   19.8269 F   0  0  0  0  0  0  0  0  0  0  0  0
 24 25  1  0  0  0
 25 26  1  0  0  0
 25 27  1  0  0  0
 25 18  1  0  0  0
 18 19  2  0  0  0
 19 20  1  0  0  0
 20 21  2  0  0  0
 21 22  1  0  0  0
 22 23  2  0  0  0
 21 15  1  0  0  0
 15 16  2  0  0  0
 15 17  2  0  0  0
 15  1  1  0  0  0
  1  2  1  0  0  0
  2  3  1  0  0  0
  3  4  1  0  0  0
  4  5  1  0  0  0
  5  6  1  0  0  0
  4  7  1  0  0  0
  7  8  1  0  0  0
  8  9  1  0  0  0
  9 10  1  0  0  0
 10 11  1  0  0  0
 11 12  1  0  0  0
 10 13  1  0  0  0
 13 14  3  0  0  0
 23 18  1  0  0  0
  6  1  1  0  0  0
 12  7  1  0  0  0
M  END
> <minimizedAffinity>
-7.65108

> <CNNscore>
0.3086877167

> <CNNaffinity>
5.4595899582

> <CNN_VS>
1.6853083372

> <CNNaffinity_variance>
0.0953521132

$$$$
[H]c1c([H])c(S(=O)(=O)N2C([H])([H])C([H])([H])C([H])(N3C([H])([H])C([H])([H])C([H])(C#N)C([H])([H])C3([H])[H])C([H])([H])C2([H])[H])c([H])c([H])c1C(F)(F)F


 27 29  0  0  0  0  0  0  0  0999 V2000
    4.1924    5.7492   17.1943 N   0  0  0  0  0  0  0  0  0  0  0  0
    4.3591    7.1054   16.7546 C   0  0  0  0  0  0  0  0  0  0  0  0
    3.6486    7.4018   15.4677 C   0  0  0  0  0  0  0  0  0  0  0  0
    2.9747    6.1944   14.8766 C   0  0  0  0  0  0  0  0  0  0  0  0
    2.1620    5.4280   15.8705 C   0  0  0  0  0  0  0  0  0  0  0  0
    2.8814    5.2775   17.2043 C   0  0  0  0  0  0  0  0  0  0  0  0
    2.3961    6.4431   13.6199 N   0  0  0  0  0  0  0  0  0  0  0  0
    2.2018    7.7973   13.2157 C   0  0  0  0  0  0  0  0  0  0  0  0
    1.4546    7.8178   11.8954 C   0  0  0  0  0  0  0  0  0  0  0  0
    0.8711    6.4727   11.5260 C   0  0  0  0  0  0  0  0  0  0  0  0
    2.0090    5.5146   11.3935 C   0  0  0  0  0  0  0  0  0  0  0  0
    2.9907    5.7156   12.5270 C   0  0  0  0  0  0  0  0  0  0  0  0
    0.1690    6.6626   10.2623 C   0  0  0  0  0  0  0  0  0  0  0  0
   -0.4106    6.8261    9.2574 N   0  0  0  0  0  0  0  0  0  0  0  0
    5.3980    5.1527   18.1675 S   0  0  0  0  0  0  0  0  0  0  0  0
    6.5418    4.6611   17.2782 O   0  0  0  0  0  0  0  0  0  0  0  0
    6.0307    6.1999   19.0669 O   0  0  0  0  0  0  0  0  0  0  0  0
    3.9984    1.5820   20.6848 C   0  0  0  0  0  0  0  0  0  0  0  0
    4.1880    2.8558   21.2367 C   0  0  0  0  0  0  0  0  0  0  0  0
    4.6052    3.9241   20.4819 C   0  0  0  0  0  0  0  0  0  0  0  0
    4.8625    3.7970   19.1142 C   0  0  0  0  0  0  0  0  0  0  0  0
    4.6744    2.5368   18.5797 C   0  0  0  0  0  0  0  0  0  0  0  0
    4.2524    1.4480   19.3368 C   0  0  0  0  0  0  0  0  0  0  0  0
    2.1841    0.2557   21.3755 F   0  0  0  0  0  0  0  0  0  0  0  0
    3.5374    0.4483   21.5347 C   0  0  0  0  0  0  0  0  0  0  0  0
    4.1917   -0.7182   21.2104 F   0  0  0  0  0  0  0  0  0  0  0  0
    3.7616    0.7949   22.8558 F   0  0  0  0  0  0  0  0  0  0  0  0
 24 25  1  0  0  0
 25 26  1  0  0  0
 25 27  1  0  0  0
 25 18  1  0  0  0
 18 19  2  0  0  0
 19 20  1  0  0  0
 20 21  2  0  0  0
 21 22  1  0  0  0
 22 23  2  0  0  0
 21 15  1  0  0  0
 15 16  2  0  0  0
 15 17  2  0  0  0
 15  1  1  0  0  0
  1  2  1  0  0  0
  2  3  1  0  0  0
  3  4  1  0  0  0
  4  5  1  0  0  0
  5  6  1  0  0  0
  4  7  1  0  0  0
  7  8  1  0  0  0
  8  9  1  0  0  0
  9 10  1  0  0  0
 10 11  1  0  0  0
 11 12  1  0  0  0
 10 13  1  0  0  0
 13 14  3  0  0  0
 23 18  1  0  0  0
  6  1  1  0  0  0
 12  7  1  0  0  0
M  END
> <minimizedAffinity>
-7.47519

> <CNNscore>
0.3043754101

> <CNNaffinity>
5.7174596786

> <CNN_VS>
1.7402541637

> <CNNaffinity_variance>
0.0509758219

$$$$
[H]c1c([H])c(S(=O)(=O)N2C([H])([H])C([H])([H])C([H])(N3C([H])([H])C([H])([H])C([H])(C#N)C([H])([H])C3([H])[H])C([H])([H])C2([H])[H])c([H])c([H])c1C(F)(F)F


 27 29  0  0  0  0  0  0  0  0999 V2000
    2.4649    5.9827   12.7357 N   0  0  0  0  0  0  0  0  0  0  0  0
    2.9116    7.2948   13.1086 C   0  0  0  0  0  0  0  0  0  0  0  0
    4.2854    7.6186   12.6019 C   0  0  0  0  0  0  0  0  0  0  0  0
    4.9290    6.4709   11.8739 C   0  0  0  0  0  0  0  0  0  0  0  0
    4.0293    5.8364   10.8622 C   0  0  0  0  0  0  0  0  0  0  0  0
    2.6113    5.6583   11.3886 C   0  0  0  0  0  0  0  0  0  0  0  0
    6.2549    6.7340   11.4879 N   0  0  0  0  0  0  0  0  0  0  0  0
    6.7116    6.2306   10.2337 C   0  0  0  0  0  0  0  0  0  0  0  0
    8.1929    6.5258   10.0914 C   0  0  0  0  0  0  0  0  0  0  0  0
    8.8315    6.9808   11.3842 C   0  0  0  0  0  0  0  0  0  0  0  0
    8.1503    8.2441   11.7971 C   0  0  0  0  0  0  0  0  0  0  0  0
    6.6553    8.1135   11.6054 C   0  0  0  0  0  0  0  0  0  0  0  0
   10.2439    7.1941   11.0918 C   0  0  0  0  0  0  0  0  0  0  0  0
   11.3733    7.3784   10.8405 N   0  0  0  0  0  0  0  0  0  0  0  0
    1.3320    5.2947   13.7355 S   0  0  0  0  0  0  0  0  0  0  0  0
    1.6186    3.7952   13.8353 O   0  0  0  0  0  0  0  0  0  0  0  0
    1.3963    5.7965   15.1672 O   0  0  0  0  0  0  0  0  0  0  0  0
   -2.9337    5.7651   12.1143 C   0  0  0  0  0  0  0  0  0  0  0  0
   -2.3933    6.6462   13.0603 C   0  0  0  0  0  0  0  0  0  0  0  0
   -1.1159    6.5054   13.5434 C   0  0  0  0  0  0  0  0  0  0  0  0
   -0.2813    5.4705   13.1128 C   0  0  0  0  0  0  0  0  0  0  0  0
   -0.8237    4.6061   12.1814 C   0  0  0  0  0  0  0  0  0  0  0  0
   -2.1175    4.7403   11.6864 C   0  0  0  0  0  0  0  0  0  0  0  0
   -4.9837    6.8866   12.3743 F   0  0  0  0  0  0  0  0  0  0  0  0
   -4.3222    5.9546   11.6078 C   0  0  0  0  0  0  0  0  0  0  0  0
   -4.3236    6.3771   10.2981 F   0  0  0  0  0  0  0  0  0  0  0  0
   -4.9873    4.7483   11.7432 F   0  0  0  0  0  0  0  0  0  0  0  0
 24 25  1  0  0  0
 25 26  1  0  0  0
 25 27  1  0  0  0
 25 18  1  0  0  0
 18 19  2  0  0  0
 19 20  1  0  0  0
 20 21  2  0  0  0
 21 22  1  0  0  0
 22 23  2  0  0  0
 21 15  1  0  0  0
 15 16  2  0  0  0
 15 17  2  0  0  0
 15  1  1  0  0  0
  1  2  1  0  0  0
  2  3  1  0  0  0
  3  4  1  0  0  0
  4  5  1  0  0  0
  5  6  1  0  0  0
  4  7  1  0  0  0
  7  8  1  0  0  0
  8  9  1  0  0  0
  9 10  1  0  0  0
 10 11  1  0  0  0
 11 12  1  0  0  0
 10 13  1  0  0  0
 13 14  3  0  0  0
 23 18  1  0  0  0
  6  1  1  0  0  0
 12  7  1  0  0  0
M  END
> <minimizedAffinity>
-6.18176

> <CNNscore>
0.2967569232

> <CNNaffinity>
4.7540893555

> <CNN_VS>
1.4108089209

> <CNNaffinity_variance>
0.0968029425

$$$$
[H]c1c([H])c(S(=O)(=O)N2C([H])([H])C([H])([H])C([H])(N3C([H])([H])C([H])([H])C([H])(C#N)C([H])([H])C3([H])[H])C([H])([H])C2([H])[H])c([H])c([H])c1C(F)(F)F


 27 29  0  0  0  0  0  0  0  0999 V2000
    4.4513    1.9922   21.6784 N   0  0  0  0  0  0  0  0  0  0  0  0
    5.8697    1.9963   21.8985 C   0  0  0  0  0  0  0  0  0  0  0  0
    6.4258    3.3663   22.1491 C   0  0  0  0  0  0  0  0  0  0  0  0
    5.3886    4.4500   22.0432 C   0  0  0  0  0  0  0  0  0  0  0  0
    4.1359    4.1422   22.7992 C   0  0  0  0  0  0  0  0  0  0  0  0
    3.6959    2.6960   22.6140 C   0  0  0  0  0  0  0  0  0  0  0  0
    5.9239    5.7432   22.1745 N   0  0  0  0  0  0  0  0  0  0  0  0
    7.3423    5.8954   22.1834 C   0  0  0  0  0  0  0  0  0  0  0  0
    7.6828    7.3476   22.4608 C   0  0  0  0  0  0  0  0  0  0  0  0
    6.4944    8.1527   22.9360 C   0  0  0  0  0  0  0  0  0  0  0  0
    5.4717    8.1217   21.8482 C   0  0  0  0  0  0  0  0  0  0  0  0
    5.3597    6.7235   21.2813 C   0  0  0  0  0  0  0  0  0  0  0  0
    6.9855    9.5030   23.1837 C   0  0  0  0  0  0  0  0  0  0  0  0
    7.3710   10.5875   23.4023 N   0  0  0  0  0  0  0  0  0  0  0  0
    3.8644    0.7266   20.7783 S   0  0  0  0  0  0  0  0  0  0  0  0
    4.8768   -0.4192   20.8328 O   0  0  0  0  0  0  0  0  0  0  0  0
    2.5788    0.1325   21.3260 O   0  0  0  0  0  0  0  0  0  0  0  0
    3.3231    1.8785   16.3708 C   0  0  0  0  0  0  0  0  0  0  0  0
    4.0910    2.6481   17.2546 C   0  0  0  0  0  0  0  0  0  0  0  0
    4.2538    2.3013   18.5731 C   0  0  0  0  0  0  0  0  0  0  0  0
    3.6598    1.1541   19.1060 C   0  0  0  0  0  0  0  0  0  0  0  0
    2.9032    0.4029   18.2272 C   0  0  0  0  0  0  0  0  0  0  0  0
    2.7320    0.7466   16.8896 C   0  0  0  0  0  0  0  0  0  0  0  0
    4.0754    3.2782   14.6381 F   0  0  0  0  0  0  0  0  0  0  0  0
    3.1756    2.2831   14.9444 C   0  0  0  0  0  0  0  0  0  0  0  0
    3.3875    1.2188   14.0981 F   0  0  0  0  0  0  0  0  0  0  0  0
    1.9023    2.8017   14.7840 F   0  0  0  0  0  0  0  0  0  0  0  0
 24 25  1  0  0  0
 25 26  1  0  0  0
 25 27  1  0  0  0
 25 18  1  0  0  0
 18 19  2  0  0  0
 19 20  1  0  0  0
 20 21  2  0  0  0
 21 22  1  0  0  0
 22 23  2  0  0  0
 21 15  1  0  0  0
 15 16  2  0  0  0
 15 17  2  0  0  0
 15  1  1  0  0  0
  1  2  1  0  0  0
  2  3  1  0  0  0
  3  4  1  0  0  0
  4  5  1  0  0  0
  5  6  1  0  0  0
  4  7  1  0  0  0
  7  8  1  0  0  0
  8  9  1  0  0  0
  9 10  1  0  0  0
 10 11  1  0  0  0
 11 12  1  0  0  0
 10 13  1  0  0  0
 13 14  3  0  0  0
 23 18  1  0  0  0
  6  1  1  0  0  0
 12  7  1  0  0  0
M  END
> <minimizedAffinity>
-8.35765

> <CNNscore>
0.2933413982

> <CNNaffinity>
6.1131443977

> <CNN_VS>
1.7932382822

> <CNNaffinity_variance>
0.1061847210

$$$$
[H]N=C(N([H])[H])N([H])C([H])([H])C([H])([H])C([H])([H])[C@@]([H])(C(=O)c1nc2c([H])c([H])c([H])c([H])c2s1)N([H])C(=O)[C@@]1([H])N(C(=O)[C@@]([H])(N([H])[H])C([H])([H])c2c([H])c([H])c(O[H])c([H])c2[H])C([H])([H])C([H])([H])C1([H])[H]


 47 50  0  0  0  0  0  0  0  0999 V2000
    5.5521    8.5035   16.4803 C   0  0  0  0  0  0  0  0  0  0  0  0
    6.7860    8.7575   16.4729 O   0  0  0  0  0  0  0  0  0  0  0  0
    4.9878    8.3102   17.7775 N   0  0  0  0  0  0  0  0  0  0  0  0
    4.0219    8.1041   17.9197 H   0  0  0  0  0  0  0  0  0  0  0  0
    3.7331    5.9578   15.5841 C   0  0  0  0  0  0  0  0  0  0  0  0
    4.2664    5.7902   16.7662 O   0  0  0  0  0  0  0  0  0  0  0  0
    3.9888    7.1921   15.0043 N   0  0  0  0  0  0  0  0  0  0  0  0
    3.4710    7.6007   13.6639 C   0  0  0  0  0  0  0  0  0  0  0  0
    2.7895    8.9021   14.0582 C   0  0  0  0  0  0  0  0  0  0  0  0
    3.4957    9.3770   15.3424 C   0  0  0  0  0  0  0  0  0  0  0  0
    4.6819    8.3903   15.3546 C   0  0  0  0  0  0  0  0  0  0  0  0
    2.1166    4.8686   14.0473 N   0  0  0  0  0  0  0  0  0  0  0  0
    2.9854    4.7914   15.1488 C   0  0  0  0  0  0  0  0  0  0  0  0
    1.2197    5.3853   14.2259 H   0  0  0  0  0  0  0  0  0  0  0  0
    1.8074    3.9172   13.7226 H   0  0  0  0  0  0  0  0  0  0  0  0
    3.8774    3.5675   14.9650 C   0  0  0  0  0  0  0  0  0  0  0  0
    3.5491    2.4521   15.8464 C   0  0  0  0  0  0  0  0  0  0  0  0
    2.6421    1.4975   15.4471 C   0  0  0  0  0  0  0  0  0  0  0  0
    2.3069    0.4161   16.2613 C   0  0  0  0  0  0  0  0  0  0  0  0
    2.8840    0.2881   17.4859 C   0  0  0  0  0  0  0  0  0  0  0  0
    2.5328   -0.8094   18.2931 O   0  0  0  0  0  0  0  0  0  0  0  0
    3.7908    1.2211   17.9135 C   0  0  0  0  0  0  0  0  0  0  0  0
    4.1168    2.2950   17.0920 C   0  0  0  0  0  0  0  0  0  0  0  0
    3.1135   -1.6511   18.1685 H   0  0  0  0  0  0  0  0  0  0  0  0
    5.8443    8.4107   19.0160 C   0  0  0  0  0  0  0  0  0  0  0  0
    6.2809    7.0386   19.3030 C   0  0  0  0  0  0  0  0  0  0  0  0
    7.4034    6.6681   18.7365 O   0  0  0  0  0  0  0  0  0  0  0  0
    5.7028    5.9857   20.1136 C   0  0  0  0  0  0  0  0  0  0  0  0
    5.2574    5.9152   21.3289 N   0  0  0  0  0  0  0  0  0  0  0  0
    4.7701    4.8318   21.8527 C   0  0  0  0  0  0  0  0  0  0  0  0
    4.2708    4.6932   23.1663 C   0  0  0  0  0  0  0  0  0  0  0  0
    3.7918    3.4912   23.5714 C   0  0  0  0  0  0  0  0  0  0  0  0
    3.7503    2.3639   22.7873 C   0  0  0  0  0  0  0  0  0  0  0  0
    4.2351    2.4915   21.5067 C   0  0  0  0  0  0  0  0  0  0  0  0
    4.7391    3.7207   21.0521 C   0  0  0  0  0  0  0  0  0  0  0  0
    5.4143    4.3290   19.6119 S   0  0  0  0  0  0  0  0  0  0  0  0
    4.9208    9.0433   19.9939 C   0  0  0  0  0  0  0  0  0  0  0  0
    5.3862    9.8481   21.1210 C   0  0  0  0  0  0  0  0  0  0  0  0
    6.4365    9.3293   22.0152 C   0  0  0  0  0  0  0  0  0  0  0  0
    6.2288    8.3132   22.9386 N   0  0  0  0  0  0  0  0  0  0  0  0
    5.6119    7.5109   22.8304 H   0  0  0  0  0  0  0  0  0  0  0  0
    6.9436    8.3695   24.1907 C   0  0  0  0  0  0  0  0  0  0  0  0
    8.1342    7.6168   24.2989 N   0  0  0  0  0  0  0  0  0  0  0  0
    6.5444    9.0642   25.1886 N   0  0  0  0  0  0  0  0  0  0  0  0
    8.2171    6.9342   25.0763 H   0  0  0  0  0  0  0  0  0  0  0  0
    8.8785    7.7915   23.5780 H   0  0  0  0  0  0  0  0  0  0  0  0
    7.0220    9.1317   26.0948 H   0  0  0  0  0  0  0  0  0  0  0  0
 12 13  1  0  0  0
 13 16  1  0  0  0
 16 17  1  0  0  0
 17 18  2  0  0  0
 18 19  1  0  0  0
 19 20  2  0  0  0
 20 21  1  0  0  0
 20 22  1  0  0  0
 22 23  2  0  0  0
 13  5  1  0  0  0
  5  6  2  0  0  0
  5  7  1  0  0  0
  7  8  1  0  0  0
  8  9  1  0  0  0
  9 10  1  0  0  0
 10 11  1  0  0  0
 11  1  1  0  0  0
  1  2  2  0  0  0
  1  3  1  0  0  0
  3 25  1  0  0  0
 25 37  1  0  0  0
 37 38  1  0  0  0
 38 39  1  0  0  0
 39 40  1  0  0  0
 40 42  1  0  0  0
 42 43  1  0  0  0
 42 44  2  0  0  0
 25 26  1  0  0  0
 26 27  2  0  0  0
 26 28  1  0  0  0
 28 29  2  0  0  0
 29 30  1  0  0  0
 30 31  2  0  0  0
 31 32  1  0  0  0
 32 33  2  0  0  0
 33 34  1  0  0  0
 34 35  2  0  0  0
 35 36  1  0  0  0
 23 17  1  0  0  0
 11  7  1  0  0  0
 36 28  1  0  0  0
 35 30  1  0  0  0
 12 14  1  0  0  0
 12 15  1  0  0  0
 21 24  1  0  0  0
  3  4  1  0  0  0
 40 41  1  0  0  0
 43 45  1  0  0  0
 43 46  1  0  0  0
 44 47  1  0  0  0
M  END
> <minimizedAffinity>
-9.31218

> <CNNscore>
0.4299077988

> <CNNaffinity>
6.9281578064

> <CNN_VS>
2.9784691334

> <CNNaffinity_variance>
0.0899870545

$$$$
[H]N=C(N([H])[H])N([H])C([H])([H])C([H])([H])C([H])([H])[C@@]([H])(C(=O)c1nc2c([H])c([H])c([H])c([H])c2s1)N([H])C(=O)[C@@]1([H])N(C(=O)[C@@]([H])(N([H])[H])C([H])([H])c2c([H])c([H])c(O[H])c([H])c2[H])C([H])([H])C([H])([H])C1([H])[H]


 47 50  0  0  0  0  0  0  0  0999 V2000
    6.7677    8.5009   20.3484 C   0  0  0  0  0  0  0  0  0  0  0  0
    7.9622    8.8953   20.2782 O   0  0  0  0  0  0  0  0  0  0  0  0
    6.4711    7.6868   21.4832 N   0  0  0  0  0  0  0  0  0  0  0  0
    5.5624    7.3121   21.6548 H   0  0  0  0  0  0  0  0  0  0  0  0
    5.3815    6.4843   18.2027 C   0  0  0  0  0  0  0  0  0  0  0  0
    6.1954    5.8583   19.0123 O   0  0  0  0  0  0  0  0  0  0  0  0
    5.2260    7.8367   18.4711 N   0  0  0  0  0  0  0  0  0  0  0  0
    4.3387    8.7414   17.6801 C   0  0  0  0  0  0  0  0  0  0  0  0
    3.5031    9.3096   18.8169 C   0  0  0  0  0  0  0  0  0  0  0  0
    4.3666    9.1734   20.0854 C   0  0  0  0  0  0  0  0  0  0  0  0
    5.7073    8.7754   19.4334 C   0  0  0  0  0  0  0  0  0  0  0  0
    4.6259    6.0502   15.8785 N   0  0  0  0  0  0  0  0  0  0  0  0
    4.8220    5.6007   17.1950 C   0  0  0  0  0  0  0  0  0  0  0  0
    3.8218    6.7143   15.7523 H   0  0  0  0  0  0  0  0  0  0  0  0
    4.4139    5.2582   15.2197 H   0  0  0  0  0  0  0  0  0  0  0  0
    5.5458    4.2590   17.1356 C   0  0  0  0  0  0  0  0  0  0  0  0
    4.6569    3.1040   17.0672 C   0  0  0  0  0  0  0  0  0  0  0  0
    3.9802    2.8188   15.9035 C   0  0  0  0  0  0  0  0  0  0  0  0
    3.1255    1.7218   15.8005 C   0  0  0  0  0  0  0  0  0  0  0  0
    2.9458    0.9024   16.8707 C   0  0  0  0  0  0  0  0  0  0  0  0
    2.0792   -0.1990   16.7475 O   0  0  0  0  0  0  0  0  0  0  0  0
    3.6045    1.1585   18.0439 C   0  0  0  0  0  0  0  0  0  0  0  0
    4.4544    2.2558   18.1339 C   0  0  0  0  0  0  0  0  0  0  0  0
    2.5203   -1.0721   16.4245 H   0  0  0  0  0  0  0  0  0  0  0  0
    7.5402    7.3500   22.4937 C   0  0  0  0  0  0  0  0  0  0  0  0
    7.7605    5.9042   22.3639 C   0  0  0  0  0  0  0  0  0  0  0  0
    9.0125    5.5159   22.3740 O   0  0  0  0  0  0  0  0  0  0  0  0
    6.8429    4.7910   22.2270 C   0  0  0  0  0  0  0  0  0  0  0  0
    6.9627    3.5549   21.8557 N   0  0  0  0  0  0  0  0  0  0  0  0
    5.9700    2.7192   21.8126 C   0  0  0  0  0  0  0  0  0  0  0  0
    6.0377    1.3649   21.4184 C   0  0  0  0  0  0  0  0  0  0  0  0
    4.9089    0.6139   21.4255 C   0  0  0  0  0  0  0  0  0  0  0  0
    3.6685    1.0742   21.7953 C   0  0  0  0  0  0  0  0  0  0  0  0
    3.5950    2.3923   22.1804 C   0  0  0  0  0  0  0  0  0  0  0  0
    4.7431    3.2007   22.1856 C   0  0  0  0  0  0  0  0  0  0  0  0
    5.1215    4.8167   22.5673 S   0  0  0  0  0  0  0  0  0  0  0  0
    6.9408    7.8295   23.7664 C   0  0  0  0  0  0  0  0  0  0  0  0
    7.4083    9.0248   24.4646 C   0  0  0  0  0  0  0  0  0  0  0  0
    8.5872    8.9517   25.3460 C   0  0  0  0  0  0  0  0  0  0  0  0
    8.8787    7.8600   26.1531 N   0  0  0  0  0  0  0  0  0  0  0  0
    8.4281    7.6177   27.0329 H   0  0  0  0  0  0  0  0  0  0  0  0
    9.9220    6.9566   25.7322 C   0  0  0  0  0  0  0  0  0  0  0  0
   11.2430    7.4559   25.6917 N   0  0  0  0  0  0  0  0  0  0  0  0
    9.6973    5.7414   25.4000 N   0  0  0  0  0  0  0  0  0  0  0  0
   11.7715    7.3805   24.8018 H   0  0  0  0  0  0  0  0  0  0  0  0
   11.6216    7.8810   26.5750 H   0  0  0  0  0  0  0  0  0  0  0  0
   10.4090    5.0671   25.0957 H   0  0  0  0  0  0  0  0  0  0  0  0
 12 13  1  0  0  0
 13 16  1  0  0  0
 16 17  1  0  0  0
 17 18  2  0  0  0
 18 19  1  0  0  0
 19 20  2  0  0  0
 20 21  1  0  0  0
 20 22  1  0  0  0
 22 23  2  0  0  0
 13  5  1  0  0  0
  5  6  2  0  0  0
  5  7  1  0  0  0
  7  8  1  0  0  0
  8  9  1  0  0  0
  9 10  1  0  0  0
 10 11  1  0  0  0
 11  1  1  0  0  0
  1  2  2  0  0  0
  1  3  1  0  0  0
  3 25  1  0  0  0
 25 37  1  0  0  0
 37 38  1  0  0  0
 38 39  1  0  0  0
 39 40  1  0  0  0
 40 42  1  0  0  0
 42 43  1  0  0  0
 42 44  2  0  0  0
 25 26  1  0  0  0
 26 27  2  0  0  0
 26 28  1  0  0  0
 28 29  2  0  0  0
 29 30  1  0  0  0
 30 31  2  0  0  0
 31 32  1  0  0  0
 32 33  2  0  0  0
 33 34  1  0  0  0
 34 35  2  0  0  0
 35 36  1  0  0  0
 23 17  1  0  0  0
 11  7  1  0  0  0
 36 28  1  0  0  0
 35 30  1  0  0  0
 12 14  1  0  0  0
 12 15  1  0  0  0
 21 24  1  0  0  0
  3  4  1  0  0  0
 40 41  1  0  0  0
 43 45  1  0  0  0
 43 46  1  0  0  0
 44 47  1  0  0  0
M  END
> <minimizedAffinity>
-9.34163

> <CNNscore>
0.4203625619

> <CNNaffinity>
6.9819221497

> <CNN_VS>
2.9349386692

> <CNNaffinity_variance>
0.0817671567

$$$$
[H]N=C(N([H])[H])N([H])C([H])([H])C([H])([H])C([H])([H])[C@@]([H])(C(=O)c1nc2c([H])c([H])c([H])c([H])c2s1)N([H])C(=O)[C@@]1([H])N(C(=O)[C@@]([H])(N([H])[H])C([H])([H])c2c([H])c([H])c(O[H])c([H])c2[H])C([H])([H])C([H])([H])C1([H])[H]


 47 50  0  0  0  0  0  0  0  0999 V2000
    3.1614    5.3687   17.3656 C   0  0  0  0  0  0  0  0  0  0  0  0
    1.9415    5.1662   17.6069 O   0  0  0  0  0  0  0  0  0  0  0  0
    3.9043    4.2016   17.0128 N   0  0  0  0  0  0  0  0  0  0  0  0
    4.8782    4.2275   16.7975 H   0  0  0  0  0  0  0  0  0  0  0  0
    4.6019    6.7865   19.9164 C   0  0  0  0  0  0  0  0  0  0  0  0
    4.2169    5.5659   20.1839 O   0  0  0  0  0  0  0  0  0  0  0  0
    4.3870    7.1862   18.6052 N   0  0  0  0  0  0  0  0  0  0  0  0
    4.7581    8.5340   18.0788 C   0  0  0  0  0  0  0  0  0  0  0  0
    5.6034    8.1015   16.8905 C   0  0  0  0  0  0  0  0  0  0  0  0
    5.1207    6.6859   16.5213 C   0  0  0  0  0  0  0  0  0  0  0  0
    3.8604    6.6124   17.4085 C   0  0  0  0  0  0  0  0  0  0  0  0
    4.4850    8.4913   21.7167 N   0  0  0  0  0  0  0  0  0  0  0  0
    5.1742    7.4482   21.0756 C   0  0  0  0  0  0  0  0  0  0  0  0
    4.4741    9.4022   21.1937 H   0  0  0  0  0  0  0  0  0  0  0  0
    4.9123    8.7317   22.6472 H   0  0  0  0  0  0  0  0  0  0  0  0
    5.6319    6.4566   22.1408 C   0  0  0  0  0  0  0  0  0  0  0  0
    7.0127    6.6417   22.5744 C   0  0  0  0  0  0  0  0  0  0  0  0
    8.0032    5.8091   22.1062 C   0  0  0  0  0  0  0  0  0  0  0  0
    9.3337    5.9585   22.4959 C   0  0  0  0  0  0  0  0  0  0  0  0
    9.6771    6.9494   23.3615 C   0  0  0  0  0  0  0  0  0  0  0  0
   11.0245    7.0840   23.7432 O   0  0  0  0  0  0  0  0  0  0  0  0
    8.7152    7.7953   23.8461 C   0  0  0  0  0  0  0  0  0  0  0  0
    7.3915    7.6360   23.4497 C   0  0  0  0  0  0  0  0  0  0  0  0
   11.5916    7.7024   23.1456 H   0  0  0  0  0  0  0  0  0  0  0  0
    3.2362    2.8499   16.9489 C   0  0  0  0  0  0  0  0  0  0  0  0
    4.0441    1.9725   17.8051 C   0  0  0  0  0  0  0  0  0  0  0  0
    4.7108    1.0291   17.1855 O   0  0  0  0  0  0  0  0  0  0  0  0
    4.2594    1.9447   19.2379 C   0  0  0  0  0  0  0  0  0  0  0  0
    5.1222    2.4886   20.0379 N   0  0  0  0  0  0  0  0  0  0  0  0
    5.1164    2.3150   21.3245 C   0  0  0  0  0  0  0  0  0  0  0  0
    6.0265    2.8790   22.2453 C   0  0  0  0  0  0  0  0  0  0  0  0
    5.8914    2.6037   23.5660 C   0  0  0  0  0  0  0  0  0  0  0  0
    4.9142    1.7984   24.0987 C   0  0  0  0  0  0  0  0  0  0  0  0
    4.0244    1.2456   23.2078 C   0  0  0  0  0  0  0  0  0  0  0  0
    4.1330    1.5081   21.8327 C   0  0  0  0  0  0  0  0  0  0  0  0
    3.2988    1.0667   20.4151 S   0  0  0  0  0  0  0  0  0  0  0  0
    3.2395    2.5593   15.4912 C   0  0  0  0  0  0  0  0  0  0  0  0
    3.8502    3.4477   14.5050 C   0  0  0  0  0  0  0  0  0  0  0  0
    3.0255    4.0492   13.4419 C   0  0  0  0  0  0  0  0  0  0  0  0
    1.7575    4.5736   13.6549 N   0  0  0  0  0  0  0  0  0  0  0  0
    0.8702    4.1031   13.4902 H   0  0  0  0  0  0  0  0  0  0  0  0
    1.6499    5.9209   14.1597 C   0  0  0  0  0  0  0  0  0  0  0  0
    2.6421    6.8475   13.7688 N   0  0  0  0  0  0  0  0  0  0  0  0
    0.7048    6.2994   14.9352 N   0  0  0  0  0  0  0  0  0  0  0  0
    3.1672    7.3496   14.5099 H   0  0  0  0  0  0  0  0  0  0  0  0
    2.7955    6.9784   12.7375 H   0  0  0  0  0  0  0  0  0  0  0  0
    0.5914    7.2461   15.3157 H   0  0  0  0  0  0  0  0  0  0  0  0
 12 13  1  0  0  0
 13 16  1  0  0  0
 16 17  1  0  0  0
 17 18  2  0  0  0
 18 19  1  0  0  0
 19 20  2  0  0  0
 20 21  1  0  0  0
 20 22  1  0  0  0
 22 23  2  0  0  0
 13  5  1  0  0  0
  5  6  2  0  0  0
  5  7  1  0  0  0
  7  8  1  0  0  0
  8  9  1  0  0  0
  9 10  1  0  0  0
 10 11  1  0  0  0
 11  1  1  0  0  0
  1  2  2  0  0  0
  1  3  1  0  0  0
  3 25  1  0  0  0
 25 37  1  0  0  0
 37 38  1  0  0  0
 38 39  1  0  0  0
 39 40  1  0  0  0
 40 42  1  0  0  0
 42 43  1  0  0  0
 42 44  2  0  0  0
 25 26  1  0  0  0
 26 27  2  0  0  0
 26 28  1  0  0  0
 28 29  2  0  0  0
 29 30  1  0  0  0
 30 31  2  0  0  0
 31 32  1  0  0  0
 32 33  2  0  0  0
 33 34  1  0  0  0
 34 35  2  0  0  0
 35 36  1  0  0  0
 23 17  1  0  0  0
 11  7  1  0  0  0
 36 28  1  0  0  0
 35 30  1  0  0  0
 12 14  1  0  0  0
 12 15  1  0  0  0
 21 24  1  0  0  0
  3  4  1  0  0  0
 40 41  1  0  0  0
 43 45  1  0  0  0
 43 46  1  0  0  0
 44 47  1  0  0  0
M  END
> <minimizedAffinity>
-8.48114

> <CNNscore>
0.2994143367

> <CNNaffinity>
6.8902788162

> <CNN_VS>
2.0630483627

> <CNNaffinity_variance>
0.1842231899

$$$$
[H]N=C(N([H])[H])N([H])C([H])([H])C([H])([H])C([H])([H])[C@@]([H])(C(=O)c1nc2c([H])c([H])c([H])c([H])c2s1)N([H])C(=O)[C@@]1([H])N(C(=O)[C@@]([H])(N([H])[H])C([H])([H])c2c([H])c([H])c(O[H])c([H])c2[H])C([H])([H])C([H])([H])C1([H])[H]


 47 50  0  0  0  0  0  0  0  0999 V2000
    3.7214    6.9315   15.1548 C   0  0  0  0  0  0  0  0  0  0  0  0
    4.7631    7.4866   14.7141 O   0  0  0  0  0  0  0  0  0  0  0  0
    3.5476    7.0205   16.5691 N   0  0  0  0  0  0  0  0  0  0  0  0
    2.7638    6.6229   17.0417 H   0  0  0  0  0  0  0  0  0  0  0  0
    2.7167    3.8546   15.4936 C   0  0  0  0  0  0  0  0  0  0  0  0
    3.5119    4.2227   16.4642 O   0  0  0  0  0  0  0  0  0  0  0  0
    2.4149    4.8562   14.5821 N   0  0  0  0  0  0  0  0  0  0  0  0
    1.5197    4.6602   13.4025 C   0  0  0  0  0  0  0  0  0  0  0  0
    0.5404    5.7964   13.6549 C   0  0  0  0  0  0  0  0  0  0  0  0
    1.3003    6.8269   14.5115 C   0  0  0  0  0  0  0  0  0  0  0  0
    2.7231    6.2392   14.4058 C   0  0  0  0  0  0  0  0  0  0  0  0
    1.6648    1.8178   14.5417 N   0  0  0  0  0  0  0  0  0  0  0  0
    2.3298    2.4588   15.6004 C   0  0  0  0  0  0  0  0  0  0  0  0
    0.6589    2.0942   14.4183 H   0  0  0  0  0  0  0  0  0  0  0  0
    1.6329    0.7745   14.6713 H   0  0  0  0  0  0  0  0  0  0  0  0
    3.4880    1.5693   16.0415 C   0  0  0  0  0  0  0  0  0  0  0  0
    3.3715    1.0721   17.4083 C   0  0  0  0  0  0  0  0  0  0  0  0
    4.1264    1.6297   18.4148 C   0  0  0  0  0  0  0  0  0  0  0  0
    4.0386    1.1828   19.7328 C   0  0  0  0  0  0  0  0  0  0  0  0
    3.1884    0.1692   20.0474 C   0  0  0  0  0  0  0  0  0  0  0  0
    3.1142   -0.2681   21.3825 O   0  0  0  0  0  0  0  0  0  0  0  0
    2.4230   -0.4074   19.0690 C   0  0  0  0  0  0  0  0  0  0  0  0
    2.5195    0.0474   17.7581 C   0  0  0  0  0  0  0  0  0  0  0  0
    2.4143    0.2135   21.9651 H   0  0  0  0  0  0  0  0  0  0  0  0
    4.5619    7.7338   17.4294 C   0  0  0  0  0  0  0  0  0  0  0  0
    5.3677    6.6728   18.0465 C   0  0  0  0  0  0  0  0  0  0  0  0
    6.4831    6.3720   17.4273 O   0  0  0  0  0  0  0  0  0  0  0  0
    5.1704    5.8734   19.2390 C   0  0  0  0  0  0  0  0  0  0  0  0
    5.9596    5.2415   20.0502 N   0  0  0  0  0  0  0  0  0  0  0  0
    5.5424    4.5742   21.0827 C   0  0  0  0  0  0  0  0  0  0  0  0
    6.3506    3.8678   22.0003 C   0  0  0  0  0  0  0  0  0  0  0  0
    5.7660    3.2152   23.0350 C   0  0  0  0  0  0  0  0  0  0  0  0
    4.4132    3.1830   23.2721 C   0  0  0  0  0  0  0  0  0  0  0  0
    3.6199    3.8687   22.3824 C   0  0  0  0  0  0  0  0  0  0  0  0
    4.1898    4.5562   21.2988 C   0  0  0  0  0  0  0  0  0  0  0  0
    3.6320    5.5018   19.9970 S   0  0  0  0  0  0  0  0  0  0  0  0
    3.7031    8.5415   18.3345 C   0  0  0  0  0  0  0  0  0  0  0  0
    3.9893    9.9349   18.6680 C   0  0  0  0  0  0  0  0  0  0  0  0
    4.6535   10.2683   19.9407 C   0  0  0  0  0  0  0  0  0  0  0  0
    5.8502    9.6999   20.3567 N   0  0  0  0  0  0  0  0  0  0  0  0
    6.7807    9.9203   20.0082 H   0  0  0  0  0  0  0  0  0  0  0  0
    5.8070    8.6895   21.3857 C   0  0  0  0  0  0  0  0  0  0  0  0
    4.5910    8.5185   22.0843 N   0  0  0  0  0  0  0  0  0  0  0  0
    6.8128    7.9561   21.6828 N   0  0  0  0  0  0  0  0  0  0  0  0
    4.6032    8.5886   23.1197 H   0  0  0  0  0  0  0  0  0  0  0  0
    3.7316    8.3279   21.5104 H   0  0  0  0  0  0  0  0  0  0  0  0
    6.8242    7.2276   22.4059 H   0  0  0  0  0  0  0  0  0  0  0  0
 12 13  1  0  0  0
 13 16  1  0  0  0
 16 17  1  0  0  0
 17 18  2  0  0  0
 18 19  1  0  0  0
 19 20  2  0  0  0
 20 21  1  0  0  0
 20 22  1  0  0  0
 22 23  2  0  0  0
 13  5  1  0  0  0
  5  6  2  0  0  0
  5  7  1  0  0  0
  7  8  1  0  0  0
  8  9  1  0  0  0
  9 10  1  0  0  0
 10 11  1  0  0  0
 11  1  1  0  0  0
  1  2  2  0  0  0
  1  3  1  0  0  0
  3 25  1  0  0  0
 25 37  1  0  0  0
 37 38  1  0  0  0
 38 39  1  0  0  0
 39 40  1  0  0  0
 40 42  1  0  0  0
 42 43  1  0  0  0
 42 44  2  0  0  0
 25 26  1  0  0  0
 26 27  2  0  0  0
 26 28  1  0  0  0
 28 29  2  0  0  0
 29 30  1  0  0  0
 30 31  2  0  0  0
 31 32  1  0  0  0
 32 33  2  0  0  0
 33 34  1  0  0  0
 34 35  2  0  0  0
 35 36  1  0  0  0
 23 17  1  0  0  0
 11  7  1  0  0  0
 36 28  1  0  0  0
 35 30  1  0  0  0
 12 14  1  0  0  0
 12 15  1  0  0  0
 21 24  1  0  0  0
  3  4  1  0  0  0
 40 41  1  0  0  0
 43 45  1  0  0  0
 43 46  1  0  0  0
 44 47  1  0  0  0
M  END
> <minimizedAffinity>
-8.69557

> <CNNscore>
0.2925854325

> <CNNaffinity>
7.0752573013

> <CNN_VS>
2.0701172352

> <CNNaffinity_variance>
0.2615315318

$$$$
[H]N=C(N([H])[H])N([H])C([H])([H])C([H])([H])C([H])([H])[C@@]([H])(C(=O)c1nc2c([H])c([H])c([H])c([H])c2s1)N([H])C(=O)[C@@]1([H])N(C(=O)[C@@]([H])(N([H])[H])C([H])([H])c2c([H])c([H])c(O[H])c([H])c2[H])C([H])([H])C([H])([H])C1([H])[H]


 47 50  0  0  0  0  0  0  0  0999 V2000
    4.7365    7.7666   18.0085 C   0  0  0  0  0  0  0  0  0  0  0  0
    3.6372    8.3698   18.1307 O   0  0  0  0  0  0  0  0  0  0  0  0
    4.6688    6.5386   17.2832 N   0  0  0  0  0  0  0  0  0  0  0  0
    5.4691    5.9667   17.1163 H   0  0  0  0  0  0  0  0  0  0  0  0
    5.7792    7.7917   21.0913 C   0  0  0  0  0  0  0  0  0  0  0  0
    4.6278    7.1849   20.9658 O   0  0  0  0  0  0  0  0  0  0  0  0
    6.3387    8.2227   19.8970 N   0  0  0  0  0  0  0  0  0  0  0  0
    7.6516    8.9294   19.8050 C   0  0  0  0  0  0  0  0  0  0  0  0
    8.3386    8.0254   18.7928 C   0  0  0  0  0  0  0  0  0  0  0  0
    7.2079    7.3440   17.9987 C   0  0  0  0  0  0  0  0  0  0  0  0
    6.0102    8.1726   18.5084 C   0  0  0  0  0  0  0  0  0  0  0  0
    6.1737    6.7382   23.3040 N   0  0  0  0  0  0  0  0  0  0  0  0
    6.2089    7.8729   22.4762 C   0  0  0  0  0  0  0  0  0  0  0  0
    5.2134    6.4444   23.6121 H   0  0  0  0  0  0  0  0  0  0  0  0
    6.6991    6.8901   24.2024 H   0  0  0  0  0  0  0  0  0  0  0  0
    7.5821    8.5222   22.6190 C   0  0  0  0  0  0  0  0  0  0  0  0
    8.6412    7.5981   23.0103 C   0  0  0  0  0  0  0  0  0  0  0  0
    9.1174    6.6702   22.1127 C   0  0  0  0  0  0  0  0  0  0  0  0
   10.1310    5.7740   22.4504 C   0  0  0  0  0  0  0  0  0  0  0  0
   10.6734    5.8059   23.6969 C   0  0  0  0  0  0  0  0  0  0  0  0
   11.6947    4.8935   24.0189 O   0  0  0  0  0  0  0  0  0  0  0  0
   10.2220    6.7173   24.6140 C   0  0  0  0  0  0  0  0  0  0  0  0
    9.2106    7.6060   24.2650 C   0  0  0  0  0  0  0  0  0  0  0  0
   12.6528    5.2194   23.8265 H   0  0  0  0  0  0  0  0  0  0  0  0
    3.3574    6.0411   16.7260 C   0  0  0  0  0  0  0  0  0  0  0  0
    3.0980    4.7688   17.4113 C   0  0  0  0  0  0  0  0  0  0  0  0
    2.0026    4.1432   17.0548 O   0  0  0  0  0  0  0  0  0  0  0  0
    3.8351    4.0463   18.4285 C   0  0  0  0  0  0  0  0  0  0  0  0
    4.5035    4.3917   19.4840 N   0  0  0  0  0  0  0  0  0  0  0  0
    5.0959    3.5428   20.2677 C   0  0  0  0  0  0  0  0  0  0  0  0
    5.8363    3.8570   21.4284 C   0  0  0  0  0  0  0  0  0  0  0  0
    6.3995    2.8555   22.1481 C   0  0  0  0  0  0  0  0  0  0  0  0
    6.3070    1.5215   21.8333 C   0  0  0  0  0  0  0  0  0  0  0  0
    5.5875    1.2082   20.7041 C   0  0  0  0  0  0  0  0  0  0  0  0
    4.9900    2.2186   19.9336 C   0  0  0  0  0  0  0  0  0  0  0  0
    4.0463    2.3066   18.5187 S   0  0  0  0  0  0  0  0  0  0  0  0
    3.6328    5.9775   15.2668 C   0  0  0  0  0  0  0  0  0  0  0  0
    3.6991    7.1648   14.4178 C   0  0  0  0  0  0  0  0  0  0  0  0
    2.5117    8.0222   14.2530 C   0  0  0  0  0  0  0  0  0  0  0  0
    2.5724    9.3577   13.8775 N   0  0  0  0  0  0  0  0  0  0  0  0
    2.0518    9.8008   13.1235 H   0  0  0  0  0  0  0  0  0  0  0  0
    3.4541   10.2349   14.6088 C   0  0  0  0  0  0  0  0  0  0  0  0
    3.1268   10.5193   15.9535 N   0  0  0  0  0  0  0  0  0  0  0  0
    4.5028   10.7553   14.0920 N   0  0  0  0  0  0  0  0  0  0  0  0
    3.0300   11.5126   16.2378 H   0  0  0  0  0  0  0  0  0  0  0  0
    2.9979    9.6999   16.5986 H   0  0  0  0  0  0  0  0  0  0  0  0
    5.1553   11.3828   14.5761 H   0  0  0  0  0  0  0  0  0  0  0  0
 12 13  1  0  0  0
 13 16  1  0  0  0
 16 17  1  0  0  0
 17 18  2  0  0  0
 18 19  1  0  0  0
 19 20  2  0  0  0
 20 21  1  0  0  0
 20 22  1  0  0  0
 22 23  2  0  0  0
 13  5  1  0  0  0
  5  6  2  0  0  0
  5  7  1  0  0  0
  7  8  1  0  0  0
  8  9  1  0  0  0
  9 10  1  0  0  0
 10 11  1  0  0  0
 11  1  1  0  0  0
  1  2  2  0  0  0
  1  3  1  0  0  0
  3 25  1  0  0  0
 25 37  1  0  0  0
 37 38  1  0  0  0
 38 39  1  0  0  0
 39 40  1  0  0  0
 40 42  1  0  0  0
 42 43  1  0  0  0
 42 44  2  0  0  0
 25 26  1  0  0  0
 26 27  2  0  0  0
 26 28  1  0  0  0
 28 29  2  0  0  0
 29 30  1  0  0  0
 30 31  2  0  0  0
 31 32  1  0  0  0
 32 33  2  0  0  0
 33 34  1  0  0  0
 34 35  2  0  0  0
 35 36  1  0  0  0
 23 17  1  0  0  0
 11  7  1  0  0  0
 36 28  1  0  0  0
 35 30  1  0  0  0
 12 14  1  0  0  0
 12 15  1  0  0  0
 21 24  1  0  0  0
  3  4  1  0  0  0
 40 41  1  0  0  0
 43 45  1  0  0  0
 43 46  1  0  0  0
 44 47  1  0  0  0
M  END
> <minimizedAffinity>
-8.09272

> <CNNscore>
0.2917024791

> <CNNaffinity>
6.6556482315

> <CNN_VS>
1.9414690733

> <CNNaffinity_variance>
0.1305385232

$$$$
[H]N=C(N([H])[H])N([H])C([H])([H])C([H])([H])C([H])([H])[C@@]([H])(C(=O)c1nc2c([H])c([H])c([H])c([H])c2s1)N([H])C(=O)[C@@]1([H])N(C(=O)[C@@]([H])(N([H])[H])C([H])([H])c2c([H])c([H])c(O[H])c([H])c2[H])C([H])([H])C([H])([H])C1([H])[H]


 47 50  0  0  0  0  0  0  0  0999 V2000
    5.3852    6.1670   18.4640 C   0  0  0  0  0  0  0  0  0  0  0  0
    6.6442    6.1764   18.4181 O   0  0  0  0  0  0  0  0  0  0  0  0
    4.8251    6.7072   19.6611 N   0  0  0  0  0  0  0  0  0  0  0  0
    3.8415    6.7581   19.8205 H   0  0  0  0  0  0  0  0  0  0  0  0
    4.3286    7.6883   15.7879 C   0  0  0  0  0  0  0  0  0  0  0  0
    5.2905    8.3461   16.3810 O   0  0  0  0  0  0  0  0  0  0  0  0
    4.0181    6.4680   16.3705 N   0  0  0  0  0  0  0  0  0  0  0  0
    2.9605    5.5485   15.8533 C   0  0  0  0  0  0  0  0  0  0  0  0
    3.7927    4.2832   15.7122 C   0  0  0  0  0  0  0  0  0  0  0  0
    4.9665    4.4371   16.6980 C   0  0  0  0  0  0  0  0  0  0  0  0
    4.4835    5.6834   17.4690 C   0  0  0  0  0  0  0  0  0  0  0  0
    2.5953    9.1161   14.7303 N   0  0  0  0  0  0  0  0  0  0  0  0
    3.8024    8.4030   14.6383 C   0  0  0  0  0  0  0  0  0  0  0  0
    1.7306    8.5207   14.7645 H   0  0  0  0  0  0  0  0  0  0  0  0
    2.4450    9.7441   13.9001 H   0  0  0  0  0  0  0  0  0  0  0  0
    4.8443    9.3141   13.9967 C   0  0  0  0  0  0  0  0  0  0  0  0
    5.7000    8.6474   13.0209 C   0  0  0  0  0  0  0  0  0  0  0  0
    5.1571    7.7768   12.1039 C   0  0  0  0  0  0  0  0  0  0  0  0
    5.9435    7.1248   11.1548 C   0  0  0  0  0  0  0  0  0  0  0  0
    7.2849    7.3453   11.1220 C   0  0  0  0  0  0  0  0  0  0  0  0
    8.0616    6.6779   10.1573 O   0  0  0  0  0  0  0  0  0  0  0  0
    7.8567    8.2060   12.0208 C   0  0  0  0  0  0  0  0  0  0  0  0
    7.0615    8.8503   12.9627 C   0  0  0  0  0  0  0  0  0  0  0  0
    8.1744    7.1752    9.2623 H   0  0  0  0  0  0  0  0  0  0  0  0
    5.7138    7.2355   20.7605 C   0  0  0  0  0  0  0  0  0  0  0  0
    5.8200    6.1442   21.7370 C   0  0  0  0  0  0  0  0  0  0  0  0
    6.5226    6.4082   22.8117 O   0  0  0  0  0  0  0  0  0  0  0  0
    5.2843    4.7978   21.7499 C   0  0  0  0  0  0  0  0  0  0  0  0
    5.3841    3.7725   20.9632 N   0  0  0  0  0  0  0  0  0  0  0  0
    4.7973    2.6363   21.1874 C   0  0  0  0  0  0  0  0  0  0  0  0
    4.8680    1.4866   20.3705 C   0  0  0  0  0  0  0  0  0  0  0  0
    4.1965    0.3678   20.7388 C   0  0  0  0  0  0  0  0  0  0  0  0
    3.4306    0.2562   21.8738 C   0  0  0  0  0  0  0  0  0  0  0  0
    3.3571    1.3720   22.6742 C   0  0  0  0  0  0  0  0  0  0  0  0
    4.0391    2.5487   22.3249 C   0  0  0  0  0  0  0  0  0  0  0  0
    4.2345    4.1099   22.9765 S   0  0  0  0  0  0  0  0  0  0  0  0
    4.9930    8.4609   21.1942 C   0  0  0  0  0  0  0  0  0  0  0  0
    5.6746    9.7138   21.5112 C   0  0  0  0  0  0  0  0  0  0  0  0
    6.5407    9.8030   22.7004 C   0  0  0  0  0  0  0  0  0  0  0  0
    6.1763    9.3333   23.9553 N   0  0  0  0  0  0  0  0  0  0  0  0
    5.2299    9.1641   24.2891 H   0  0  0  0  0  0  0  0  0  0  0  0
    7.2206    9.0465   24.9086 C   0  0  0  0  0  0  0  0  0  0  0  0
    7.5214   10.0388   25.8682 N   0  0  0  0  0  0  0  0  0  0  0  0
    7.8724    7.9451   24.9155 N   0  0  0  0  0  0  0  0  0  0  0  0
    8.5006   10.3750   25.9394 H   0  0  0  0  0  0  0  0  0  0  0  0
    6.7279   10.3857   26.4633 H   0  0  0  0  0  0  0  0  0  0  0  0
    8.6207    7.7016   25.5748 H   0  0  0  0  0  0  0  0  0  0  0  0
 12 13  1  0  0  0
 13 16  1  0  0  0
 16 17  1  0  0  0
 17 18  2  0  0  0
 18 19  1  0  0  0
 19 20  2  0  0  0
 20 21  1  0  0  0
 20 22  1  0  0  0
 22 23  2  0  0  0
 13  5  1  0  0  0
  5  6  2  0  0  0
  5  7  1  0  0  0
  7  8  1  0  0  0
  8  9  1  0  0  0
  9 10  1  0  0  0
 10 11  1  0  0  0
 11  1  1  0  0  0
  1  2  2  0  0  0
  1  3  1  0  0  0
  3 25  1  0  0  0
 25 37  1  0  0  0
 37 38  1  0  0  0
 38 39  1  0  0  0
 39 40  1  0  0  0
 40 42  1  0  0  0
 42 43  1  0  0  0
 42 44  2  0  0  0
 25 26  1  0  0  0
 26 27  2  0  0  0
 26 28  1  0  0  0
 28 29  2  0  0  0
 29 30  1  0  0  0
 30 31  2  0  0  0
 31 32  1  0  0  0
 32 33  2  0  0  0
 33 34  1  0  0  0
 34 35  2  0  0  0
 35 36  1  0  0  0
 23 17  1  0  0  0
 11  7  1  0  0  0
 36 28  1  0  0  0
 35 30  1  0  0  0
 12 14  1  0  0  0
 12 15  1  0  0  0
 21 24  1  0  0  0
  3  4  1  0  0  0
 40 41  1  0  0  0
 43 45  1  0  0  0
 43 46  1  0  0  0
 44 47  1  0  0  0
M  END
> <minimizedAffinity>
-9.27283

> <CNNscore>
0.2775943279

> <CNNaffinity>
6.4915685654

> <CNN_VS>
1.8020225763

> <CNNaffinity_variance>
0.2508433163

$$$$
[H]N=C(N([H])[H])N([H])C([H])([H])C([H])([H])C([H])([H])[C@@]([H])(C(=O)c1nc2c([H])c([H])c([H])c([H])c2s1)N([H])C(=O)[C@@]1([H])N(C(=O)[C@@]([H])(N([H])[H])C([H])([H])c2c([H])c([H])c(O[H])c([H])c2[H])C([H])([H])C([H])([H])C1([H])[H]


 47 50  0  0  0  0  0  0  0  0999 V2000
    4.1600    8.1033   15.8565 C   0  0  0  0  0  0  0  0  0  0  0  0
    5.1484    8.1888   15.0799 O   0  0  0  0  0  0  0  0  0  0  0  0
    3.1636    7.1620   15.4569 N   0  0  0  0  0  0  0  0  0  0  0  0
    2.3332    6.9994   15.9856 H   0  0  0  0  0  0  0  0  0  0  0  0
    4.5617    7.0966   18.9252 C   0  0  0  0  0  0  0  0  0  0  0  0
    5.0339    6.2379   18.0594 O   0  0  0  0  0  0  0  0  0  0  0  0
    4.0664    8.2666   18.3678 N   0  0  0  0  0  0  0  0  0  0  0  0
    3.4888    9.3865   19.1702 C   0  0  0  0  0  0  0  0  0  0  0  0
    4.3462   10.5260   18.6410 C   0  0  0  0  0  0  0  0  0  0  0  0
    4.8243   10.0823   17.2453 C   0  0  0  0  0  0  0  0  0  0  0  0
    3.9379    8.8325   17.0632 C   0  0  0  0  0  0  0  0  0  0  0  0
    4.5113    7.4945   21.3748 N   0  0  0  0  0  0  0  0  0  0  0  0
    4.6691    6.6145   20.2910 C   0  0  0  0  0  0  0  0  0  0  0  0
    5.3173    8.1487   21.5352 H   0  0  0  0  0  0  0  0  0  0  0  0
    4.4088    6.9810   22.2869 H   0  0  0  0  0  0  0  0  0  0  0  0
    3.7951    5.3898   20.5428 C   0  0  0  0  0  0  0  0  0  0  0  0
    4.2839    4.5158   21.6040 C   0  0  0  0  0  0  0  0  0  0  0  0
    3.6090    4.4347   22.8005 C   0  0  0  0  0  0  0  0  0  0  0  0
    4.0448    3.6078   23.8353 C   0  0  0  0  0  0  0  0  0  0  0  0
    5.1655    2.8551   23.6724 C   0  0  0  0  0  0  0  0  0  0  0  0
    5.5895    2.0274   24.7280 O   0  0  0  0  0  0  0  0  0  0  0  0
    5.8604    2.9128   22.4937 C   0  0  0  0  0  0  0  0  0  0  0  0
    5.4155    3.7414   21.4690 C   0  0  0  0  0  0  0  0  0  0  0  0
    5.2054    1.0716   24.7194 H   0  0  0  0  0  0  0  0  0  0  0  0
    3.3253    6.3553   14.1918 C   0  0  0  0  0  0  0  0  0  0  0  0
    2.3849    6.9428   13.2294 C   0  0  0  0  0  0  0  0  0  0  0  0
    2.8971    7.8086   12.3889 O   0  0  0  0  0  0  0  0  0  0  0  0
    0.9649    6.7469   13.0166 C   0  0  0  0  0  0  0  0  0  0  0  0
   -0.1080    7.1325   13.6333 N   0  0  0  0  0  0  0  0  0  0  0  0
   -1.3083    6.8252   13.2451 C   0  0  0  0  0  0  0  0  0  0  0  0
   -2.5120    7.2142   13.8728 C   0  0  0  0  0  0  0  0  0  0  0  0
   -3.6952    6.8129   13.3465 C   0  0  0  0  0  0  0  0  0  0  0  0
   -3.8246    6.0368   12.2203 C   0  0  0  0  0  0  0  0  0  0  0  0
   -2.6564    5.6541   11.6038 C   0  0  0  0  0  0  0  0  0  0  0  0
   -1.4123    6.0506   12.1202 C   0  0  0  0  0  0  0  0  0  0  0  0
    0.2271    5.8295   11.7153 S   0  0  0  0  0  0  0  0  0  0  0  0
    3.0403    4.9721   14.6550 C   0  0  0  0  0  0  0  0  0  0  0  0
    3.0436    4.5895   16.0651 C   0  0  0  0  0  0  0  0  0  0  0  0
    2.3417    3.3690   16.5009 C   0  0  0  0  0  0  0  0  0  0  0  0
    2.5706    2.1128   15.9553 N   0  0  0  0  0  0  0  0  0  0  0  0
    2.5694    1.8706   14.9667 H   0  0  0  0  0  0  0  0  0  0  0  0
    2.8399    1.0155   16.8526 C   0  0  0  0  0  0  0  0  0  0  0  0
    3.9726    1.1183   17.6907 N   0  0  0  0  0  0  0  0  0  0  0  0
    2.1027   -0.0287   16.9149 N   0  0  0  0  0  0  0  0  0  0  0  0
    4.6801    0.3597   17.6586 H   0  0  0  0  0  0  0  0  0  0  0  0
    4.0369    1.9669   18.3071 H   0  0  0  0  0  0  0  0  0  0  0  0
    2.2584   -0.8298   17.5377 H   0  0  0  0  0  0  0  0  0  0  0  0
 12 13  1  0  0  0
 13 16  1  0  0  0
 16 17  1  0  0  0
 17 18  2  0  0  0
 18 19  1  0  0  0
 19 20  2  0  0  0
 20 21  1  0  0  0
 20 22  1  0  0  0
 22 23  2  0  0  0
 13  5  1  0  0  0
  5  6  2  0  0  0
  5  7  1  0  0  0
  7  8  1  0  0  0
  8  9  1  0  0  0
  9 10  1  0  0  0
 10 11  1  0  0  0
 11  1  1  0  0  0
  1  2  2  0  0  0
  1  3  1  0  0  0
  3 25  1  0  0  0
 25 37  1  0  0  0
 37 38  1  0  0  0
 38 39  1  0  0  0
 39 40  1  0  0  0
 40 42  1  0  0  0
 42 43  1  0  0  0
 42 44  2  0  0  0
 25 26  1  0  0  0
 26 27  2  0  0  0
 26 28  1  0  0  0
 28 29  2  0  0  0
 29 30  1  0  0  0
 30 31  2  0  0  0
 31 32  1  0  0  0
 32 33  2  0  0  0
 33 34  1  0  0  0
 34 35  2  0  0  0
 35 36  1  0  0  0
 23 17  1  0  0  0
 11  7  1  0  0  0
 36 28  1  0  0  0
 35 30  1  0  0  0
 12 14  1  0  0  0
 12 15  1  0  0  0
 21 24  1  0  0  0
  3  4  1  0  0  0
 40 41  1  0  0  0
 43 45  1  0  0  0
 43 46  1  0  0  0
 44 47  1  0  0  0
M  END
> <minimizedAffinity>
-9.15850

> <CNNscore>
0.2358156294

> <CNNaffinity>
6.6987481117

> <CNN_VS>
1.5796694756

> <CNNaffinity_variance>
0.3460329771

$$$$
[H]N=C(N([H])[H])N([H])C([H])([H])C([H])([H])C([H])([H])[C@@]([H])(C(=O)c1nc2c([H])c([H])c([H])c([H])c2s1)N([H])C(=O)[C@@]1([H])N(C(=O)[C@@]([H])(N([H])[H])C([H])([H])c2c([H])c([H])c(O[H])c([H])c2[H])C([H])([H])C([H])([H])C1([H])[H]


 47 50  0  0  0  0  0  0  0  0999 V2000
    5.6589    6.5206   18.7890 C   0  0  0  0  0  0  0  0  0  0  0  0
    6.8344    6.1981   19.1073 O   0  0  0  0  0  0  0  0  0  0  0  0
    4.7595    5.4236   18.6272 N   0  0  0  0  0  0  0  0  0  0  0  0
    3.8012    5.5449   18.3772 H   0  0  0  0  0  0  0  0  0  0  0  0
    5.0906    8.0342   15.9645 C   0  0  0  0  0  0  0  0  0  0  0  0
    5.3833    6.7710   15.7961 O   0  0  0  0  0  0  0  0  0  0  0  0
    5.0120    8.4377   17.2897 N   0  0  0  0  0  0  0  0  0  0  0  0
    4.6821    9.8319   17.7127 C   0  0  0  0  0  0  0  0  0  0  0  0
    3.5182    9.5295   18.6440 C   0  0  0  0  0  0  0  0  0  0  0  0
    3.7201    8.0766   19.1150 C   0  0  0  0  0  0  0  0  0  0  0  0
    5.1462    7.8357   18.5774 C   0  0  0  0  0  0  0  0  0  0  0  0
    5.8213    8.5393   13.6467 N   0  0  0  0  0  0  0  0  0  0  0  0
    4.9135    8.7298   14.7019 C   0  0  0  0  0  0  0  0  0  0  0  0
    6.7558    9.0007   13.7776 H   0  0  0  0  0  0  0  0  0  0  0  0
    5.4611    8.9354   12.7414 H   0  0  0  0  0  0  0  0  0  0  0  0
    3.5011    8.5719   14.1473 C   0  0  0  0  0  0  0  0  0  0  0  0
    3.4329    7.8369   12.8888 C   0  0  0  0  0  0  0  0  0  0  0  0
    4.1382    6.6658   12.7316 C   0  0  0  0  0  0  0  0  0  0  0  0
    4.0940    5.9352   11.5447 C   0  0  0  0  0  0  0  0  0  0  0  0
    3.3377    6.3793   10.5056 C   0  0  0  0  0  0  0  0  0  0  0  0
    3.3061    5.6286    9.3161 O   0  0  0  0  0  0  0  0  0  0  0  0
    2.6236    7.5414   10.6295 C   0  0  0  0  0  0  0  0  0  0  0  0
    2.6759    8.2611   11.8186 C   0  0  0  0  0  0  0  0  0  0  0  0
    2.5680    4.9118    9.2676 H   0  0  0  0  0  0  0  0  0  0  0  0
    5.2278    4.0034   18.8308 C   0  0  0  0  0  0  0  0  0  0  0  0
    4.5062    3.2057   17.8315 C   0  0  0  0  0  0  0  0  0  0  0  0
    4.6258    1.9054   17.9466 O   0  0  0  0  0  0  0  0  0  0  0  0
    3.6619    3.5814   16.7152 C   0  0  0  0  0  0  0  0  0  0  0  0
    2.8951    4.5940   16.4563 N   0  0  0  0  0  0  0  0  0  0  0  0
    2.2167    4.7174   15.3562 C   0  0  0  0  0  0  0  0  0  0  0  0
    1.3674    5.7936   15.0176 C   0  0  0  0  0  0  0  0  0  0  0  0
    0.7225    5.7808   13.8250 C   0  0  0  0  0  0  0  0  0  0  0  0
    0.8297    4.7789   12.8913 C   0  0  0  0  0  0  0  0  0  0  0  0
    1.6551    3.7275   13.2144 C   0  0  0  0  0  0  0  0  0  0  0  0
    2.3393    3.7062   14.4404 C   0  0  0  0  0  0  0  0  0  0  0  0
    3.4213    2.6621   15.2400 S   0  0  0  0  0  0  0  0  0  0  0  0
    4.8950    3.7577   20.2584 C   0  0  0  0  0  0  0  0  0  0  0  0
    5.5035    2.6862   21.0434 C   0  0  0  0  0  0  0  0  0  0  0  0
    4.7064    1.5072   21.4266 C   0  0  0  0  0  0  0  0  0  0  0  0
    3.4347    1.2446   20.9346 N   0  0  0  0  0  0  0  0  0  0  0  0
    2.6529    1.8950   20.8941 H   0  0  0  0  0  0  0  0  0  0  0  0
    3.1583   -0.0753   20.4216 C   0  0  0  0  0  0  0  0  0  0  0  0
    2.6186   -0.1715   19.1195 N   0  0  0  0  0  0  0  0  0  0  0  0
    3.3803   -1.1425   21.0921 N   0  0  0  0  0  0  0  0  0  0  0  0
    1.7279   -0.6886   18.9920 H   0  0  0  0  0  0  0  0  0  0  0  0
    3.1550    0.2912   18.3433 H   0  0  0  0  0  0  0  0  0  0  0  0
    3.1986   -2.0984   20.7651 H   0  0  0  0  0  0  0  0  0  0  0  0
 12 13  1  0  0  0
 13 16  1  0  0  0
 16 17  1  0  0  0
 17 18  2  0  0  0
 18 19  1  0  0  0
 19 20  2  0  0  0
 20 21  1  0  0  0
 20 22  1  0  0  0
 22 23  2  0  0  0
 13  5  1  0  0  0
  5  6  2  0  0  0
  5  7  1  0  0  0
  7  8  1  0  0  0
  8  9  1  0  0  0
  9 10  1  0  0  0
 10 11  1  0  0  0
 11  1  1  0  0  0
  1  2  2  0  0  0
  1  3  1  0  0  0
  3 25  1  0  0  0
 25 37  1  0  0  0
 37 38  1  0  0  0
 38 39  1  0  0  0
 39 40  1  0  0  0
 40 42  1  0  0  0
 42 43  1  0  0  0
 42 44  2  0  0  0
 25 26  1  0  0  0
 26 27  2  0  0  0
 26 28  1  0  0  0
 28 29  2  0  0  0
 29 30  1  0  0  0
 30 31  2  0  0  0
 31 32  1  0  0  0
 32 33  2  0  0  0
 33 34  1  0  0  0
 34 35  2  0  0  0
 35 36  1  0  0  0
 23 17  1  0  0  0
 11  7  1  0  0  0
 36 28  1  0  0  0
 35 30  1  0  0  0
 12 14  1  0  0  0
 12 15  1  0  0  0
 21 24  1  0  0  0
  3  4  1  0  0  0
 40 41  1  0  0  0
 43 45  1  0  0  0
 43 46  1  0  0  0
 44 47  1  0  0  0
M  END
> <minimizedAffinity>
-6.75163

> <CNNscore>
0.2117304355

> <CNNaffinity>
6.6047081947

> <CNN_VS>
1.3984177113

> <CNNaffinity_variance>
0.3106113374

$$$$
[H]N=C(N([H])[H])N([H])C([H])([H])C([H])([H])C([H])([H])[C@@]([H])(C(=O)c1nc2c([H])c([H])c([H])c([H])c2s1)N([H])C(=O)[C@@]1([H])N(C(=O)[C@@]([H])(N([H])[H])C([H])([H])c2c([H])c([H])c(O[H])c([H])c2[H])C([H])([H])C([H])([H])C1([H])[H]


 47 50  0  0  0  0  0  0  0  0999 V2000
    4.8672    6.4472   16.8822 C   0  0  0  0  0  0  0  0  0  0  0  0
    5.9071    7.0096   16.4466 O   0  0  0  0  0  0  0  0  0  0  0  0
    4.3559    6.9924   18.0987 N   0  0  0  0  0  0  0  0  0  0  0  0
    3.5378    6.6375   18.5462 H   0  0  0  0  0  0  0  0  0  0  0  0
    4.2724    3.5212   18.1770 C   0  0  0  0  0  0  0  0  0  0  0  0
    4.7772    4.3529   19.0506 O   0  0  0  0  0  0  0  0  0  0  0  0
    4.0317    4.0720   16.9264 N   0  0  0  0  0  0  0  0  0  0  0  0
    3.4503    3.3071   15.7826 C   0  0  0  0  0  0  0  0  0  0  0  0
    2.2848    4.2258   15.4492 C   0  0  0  0  0  0  0  0  0  0  0  0
    2.6836    5.6201   15.9689 C   0  0  0  0  0  0  0  0  0  0  0  0
    4.1657    5.3485   16.3010 C   0  0  0  0  0  0  0  0  0  0  0  0
    3.5956    1.1460   17.9291 N   0  0  0  0  0  0  0  0  0  0  0  0
    4.0792    2.1929   18.7315 C   0  0  0  0  0  0  0  0  0  0  0  0
    2.5734    1.2039   17.6939 H   0  0  0  0  0  0  0  0  0  0  0  0
    3.7013    0.2102   18.3973 H   0  0  0  0  0  0  0  0  0  0  0  0
    5.3135    1.6906   19.4742 C   0  0  0  0  0  0  0  0  0  0  0  0
    5.1827    1.7051   20.9273 C   0  0  0  0  0  0  0  0  0  0  0  0
    4.0115    1.2942   21.5214 C   0  0  0  0  0  0  0  0  0  0  0  0
    3.8519    1.2912   22.9067 C   0  0  0  0  0  0  0  0  0  0  0  0
    4.8727    1.7027   23.7053 C   0  0  0  0  0  0  0  0  0  0  0  0
    4.6926    1.6929   25.1005 O   0  0  0  0  0  0  0  0  0  0  0  0
    6.0517    2.1180   23.1456 C   0  0  0  0  0  0  0  0  0  0  0  0
    6.1984    2.1162   21.7624 C   0  0  0  0  0  0  0  0  0  0  0  0
    4.9605    0.8175   25.5727 H   0  0  0  0  0  0  0  0  0  0  0  0
    5.0440    8.1527   18.7752 C   0  0  0  0  0  0  0  0  0  0  0  0
    5.3864    7.6749   20.1206 C   0  0  0  0  0  0  0  0  0  0  0  0
    4.4060    7.6730   20.9907 O   0  0  0  0  0  0  0  0  0  0  0  0
    6.6263    7.1882   20.6914 C   0  0  0  0  0  0  0  0  0  0  0  0
    7.8816    7.4338   20.4810 N   0  0  0  0  0  0  0  0  0  0  0  0
    8.8445    6.8593   21.1356 C   0  0  0  0  0  0  0  0  0  0  0  0
   10.2265    7.0847   20.9526 C   0  0  0  0  0  0  0  0  0  0  0  0
   11.1170    6.4052   21.7165 C   0  0  0  0  0  0  0  0  0  0  0  0
   10.7770    5.4891   22.6821 C   0  0  0  0  0  0  0  0  0  0  0  0
    9.4327    5.2645   22.8657 C   0  0  0  0  0  0  0  0  0  0  0  0
    8.4813    5.9497   22.0931 C   0  0  0  0  0  0  0  0  0  0  0  0
    6.7833    5.9975   21.9709 S   0  0  0  0  0  0  0  0  0  0  0  0
    4.0237    9.2295   18.6812 C   0  0  0  0  0  0  0  0  0  0  0  0
    4.2785   10.5111   18.0274 C   0  0  0  0  0  0  0  0  0  0  0  0
    3.7389   10.7737   16.6813 C   0  0  0  0  0  0  0  0  0  0  0  0
    2.7521   10.0013   16.0832 N   0  0  0  0  0  0  0  0  0  0  0  0
    1.7741    9.9449   16.3595 H   0  0  0  0  0  0  0  0  0  0  0  0
    3.1154    9.1820   14.9525 C   0  0  0  0  0  0  0  0  0  0  0  0
    4.4810    9.1295   14.5943 N   0  0  0  0  0  0  0  0  0  0  0  0
    2.2600    8.5135   14.2748 N   0  0  0  0  0  0  0  0  0  0  0  0
    4.7453    9.3759   13.6214 H   0  0  0  0  0  0  0  0  0  0  0  0
    5.1613    8.8407   15.3412 H   0  0  0  0  0  0  0  0  0  0  0  0
    2.4760    7.9197   13.4657 H   0  0  0  0  0  0  0  0  0  0  0  0
 12 13  1  0  0  0
 13 16  1  0  0  0
 16 17  1  0  0  0
 17 18  2  0  0  0
 18 19  1  0  0  0
 19 20  2  0  0  0
 20 21  1  0  0  0
 20 22  1  0  0  0
 22 23  2  0  0  0
 13  5  1  0  0  0
  5  6  2  0  0  0
  5  7  1  0  0  0
  7  8  1  0  0  0
  8  9  1  0  0  0
  9 10  1  0  0  0
 10 11  1  0  0  0
 11  1  1  0  0  0
  1  2  2  0  0  0
  1  3  1  0  0  0
  3 25  1  0  0  0
 25 37  1  0  0  0
 37 38  1  0  0  0
 38 39  1  0  0  0
 39 40  1  0  0  0
 40 42  1  0  0  0
 42 43  1  0  0  0
 42 44  2  0  0  0
 25 26  1  0  0  0
 26 27  2  0  0  0
 26 28  1  0  0  0
 28 29  2  0  0  0
 29 30  1  0  0  0
 30 31  2  0  0  0
 31 32  1  0  0  0
 32 33  2  0  0  0
 33 34  1  0  0  0
 34 35  2  0  0  0
 35 36  1  0  0  0
 23 17  1  0  0  0
 11  7  1  0  0  0
 36 28  1  0  0  0
 35 30  1  0  0  0
 12 14  1  0  0  0
 12 15  1  0  0  0
 21 24  1  0  0  0
  3  4  1  0  0  0
 40 41  1  0  0  0
 43 45  1  0  0  0
 43 46  1  0  0  0
 44 47  1  0  0  0
M  END
> <minimizedAffinity>
-7.64287

> <CNNscore>
0.2013288289

> <CNNaffinity>
6.7319068909

> <CNN_VS>
1.3553268909

> <CNNaffinity_variance>
0.1181397289

$$$$
[H]N=C(N([H])[H])N1C([H])([H])C([H])([H])C([H])(OC(=O)N([H])C([H])([H])C([H])([H])C(=O)N([H])c2nc([H])c(C3([H])C([H])([H])C([H])(c4c([H])c([H])c(Cl)c([H])c4F)C3([H])[H])c([H])c2[H])C([H])([H])C1([H])[H]


 41 44  0  0  0  0  0  0  0  0999 V2000
    1.2805    4.0443   10.5798 C   0  0  0  0  0  0  0  0  0  0  0  0
    0.6279    4.6724   11.4362 O   0  0  0  0  0  0  0  0  0  0  0  0
    2.3499    3.1793   11.0402 N   0  0  0  0  0  0  0  0  0  0  0  0
    2.8842    2.6651   10.3269 H   0  0  0  0  0  0  0  0  0  0  0  0
    2.6192    3.0757   12.4491 C   0  0  0  0  0  0  0  0  0  0  0  0
    3.5350    3.9387   13.0522 C   0  0  0  0  0  0  0  0  0  0  0  0
    3.7642    3.8481   14.4012 C   0  0  0  0  0  0  0  0  0  0  0  0
    3.1033    2.9121   15.2096 C   0  0  0  0  0  0  0  0  0  0  0  0
    2.2124    2.0862   14.5754 C   0  0  0  0  0  0  0  0  0  0  0  0
    2.0011    2.1925   13.2261 N   0  0  0  0  0  0  0  0  0  0  0  0
    3.4201    2.8650   16.6558 C   0  0  0  0  0  0  0  0  0  0  0  0
    4.7939    2.5057   17.0841 C   0  0  0  0  0  0  0  0  0  0  0  0
    4.2878    1.4140   17.9844 C   0  0  0  0  0  0  0  0  0  0  0  0
    2.9282    1.5869   17.3563 C   0  0  0  0  0  0  0  0  0  0  0  0
    4.3972    1.6046   19.4374 C   0  0  0  0  0  0  0  0  0  0  0  0
    5.1201    2.6352   19.9562 C   0  0  0  0  0  0  0  0  0  0  0  0
    5.2363    2.7736   21.3258 C   0  0  0  0  0  0  0  0  0  0  0  0
    4.6120    1.8556   22.1584 C   0  0  0  0  0  0  0  0  0  0  0  0
    4.7806    2.0554   23.8842 Cl  0  0  0  0  0  0  0  0  0  0  0  0
    3.8655    0.7961   21.6313 C   0  0  0  0  0  0  0  0  0  0  0  0
    3.7613    0.6766   20.2602 C   0  0  0  0  0  0  0  0  0  0  0  0
    3.0612   -0.3091   19.6680 F   0  0  0  0  0  0  0  0  0  0  0  0
    1.0473    4.0961    9.1604 C   0  0  0  0  0  0  0  0  0  0  0  0
    1.8081    5.0856    8.3670 C   0  0  0  0  0  0  0  0  0  0  0  0
    0.9146    7.5409    7.6254 C   0  0  0  0  0  0  0  0  0  0  0  0
    1.3368    8.6664    8.0079 O   0  0  0  0  0  0  0  0  0  0  0  0
    1.3819    6.2568    8.0132 N   0  0  0  0  0  0  0  0  0  0  0  0
    2.2210    6.8719    8.9045 H   0  0  0  0  0  0  0  0  0  0  0  0
   -0.1382    7.5806    6.7253 O   0  0  0  0  0  0  0  0  0  0  0  0
   -0.7969    8.4482    4.2626 N   0  0  0  0  0  0  0  0  0  0  0  0
   -2.1445    7.9423    4.3738 C   0  0  0  0  0  0  0  0  0  0  0  0
   -2.2648    7.2483    5.7412 C   0  0  0  0  0  0  0  0  0  0  0  0
   -0.9453    6.6437    6.1702 C   0  0  0  0  0  0  0  0  0  0  0  0
   -0.2884    6.1954    4.7817 C   0  0  0  0  0  0  0  0  0  0  0  0
    0.3055    7.5059    4.2887 C   0  0  0  0  0  0  0  0  0  0  0  0
   -0.6369   10.4768    2.8586 N   0  0  0  0  0  0  0  0  0  0  0  0
   -0.5676    9.8265    4.1422 C   0  0  0  0  0  0  0  0  0  0  0  0
   -0.2869   10.5978    5.1490 N   0  0  0  0  0  0  0  0  0  0  0  0
   -0.1368   10.0807    2.0517 H   0  0  0  0  0  0  0  0  0  0  0  0
   -1.2027   11.3447    2.7698 H   0  0  0  0  0  0  0  0  0  0  0  0
   -0.1211   11.6084    5.0569 H   0  0  0  0  0  0  0  0  0  0  0  0
 36 37  1  0  0  0
 37 38  2  0  0  0
 37 30  1  0  0  0
 30 31  1  0  0  0
 31 32  1  0  0  0
 32 33  1  0  0  0
 33 34  1  0  0  0
 34 35  1  0  0  0
 33 29  1  0  0  0
 29 25  1  0  0  0
 25 26  2  0  0  0
 25 27  1  0  0  0
 27 24  1  0  0  0
 24 23  1  0  0  0
 23  1  1  0  0  0
  1  2  2  0  0  0
  1  3  1  0  0  0
  3  5  1  0  0  0
  5  6  2  0  0  0
  6  7  1  0  0  0
  7  8  2  0  0  0
  8  9  1  0  0  0
  9 10  2  0  0  0
  8 11  1  0  0  0
 11 12  1  0  0  0
 12 13  1  0  0  0
 13 14  1  0  0  0
 13 15  1  0  0  0
 15 16  2  0  0  0
 16 17  1  0  0  0
 17 18  2  0  0  0
 18 19  1  0  0  0
 18 20  1  0  0  0
 20 21  2  0  0  0
 21 22  1  0  0  0
 35 30  1  0  0  0
 10  5  1  0  0  0
 14 11  1  0  0  0
 21 15  1  0  0  0
 36 39  1  0  0  0
 36 40  1  0  0  0
 38 41  1  0  0  0
 27 28  1  0  0  0
  3  4  1  0  0  0
M  END
> <minimizedAffinity>
-7.35029

> <CNNscore>
0.3154119253

> <CNNaffinity>
5.7381777763

> <CNN_VS>
1.8098896742

> <CNNaffinity_variance>
1.4462225437

$$$$
[H]N=C(N([H])[H])N1C([H])([H])C([H])([H])C([H])(OC(=O)N([H])C([H])([H])C([H])([H])C(=O)N([H])c2nc([H])c(C3([H])C([H])([H])C([H])(c4c([H])c([H])c(Cl)c([H])c4F)C3([H])[H])c([H])c2[H])C([H])([H])C1([H])[H]


 41 44  0  0  0  0  0  0  0  0999 V2000
    0.8153    3.3935   10.8115 C   0  0  0  0  0  0  0  0  0  0  0  0
    0.0802    3.9138   11.6733 O   0  0  0  0  0  0  0  0  0  0  0  0
    2.0649    2.8029   11.2512 N   0  0  0  0  0  0  0  0  0  0  0  0
    2.6662    2.3762   10.5335 H   0  0  0  0  0  0  0  0  0  0  0  0
    2.4108    2.8361   12.6467 C   0  0  0  0  0  0  0  0  0  0  0  0
    1.9020    1.8717   13.5174 C   0  0  0  0  0  0  0  0  0  0  0  0
    2.2598    1.8976   14.8410 C   0  0  0  0  0  0  0  0  0  0  0  0
    3.1310    2.8661   15.3600 C   0  0  0  0  0  0  0  0  0  0  0  0
    3.6068    3.7922   14.4691 C   0  0  0  0  0  0  0  0  0  0  0  0
    3.2340    3.7490   13.1517 N   0  0  0  0  0  0  0  0  0  0  0  0
    3.4540    2.8374   16.8053 C   0  0  0  0  0  0  0  0  0  0  0  0
    4.8395    2.5229   17.2309 C   0  0  0  0  0  0  0  0  0  0  0  0
    4.3701    1.4216   18.1394 C   0  0  0  0  0  0  0  0  0  0  0  0
    3.0038    1.5491   17.5152 C   0  0  0  0  0  0  0  0  0  0  0  0
    4.4784    1.6242   19.5909 C   0  0  0  0  0  0  0  0  0  0  0  0
    5.1718    2.6791   20.1011 C   0  0  0  0  0  0  0  0  0  0  0  0
    5.2882    2.8293   21.4694 C   0  0  0  0  0  0  0  0  0  0  0  0
    4.6945    1.8980   22.3096 C   0  0  0  0  0  0  0  0  0  0  0  0
    4.8627    2.1132   24.0336 Cl  0  0  0  0  0  0  0  0  0  0  0  0
    3.9785    0.8134   21.7914 C   0  0  0  0  0  0  0  0  0  0  0  0
    3.8734    0.6825   20.4214 C   0  0  0  0  0  0  0  0  0  0  0  0
    3.2013   -0.3273   19.8374 F   0  0  0  0  0  0  0  0  0  0  0  0
    0.5153    3.3168    9.4058 C   0  0  0  0  0  0  0  0  0  0  0  0
    1.0990    4.3421    8.5139 C   0  0  0  0  0  0  0  0  0  0  0  0
    1.3973    6.9744    9.1133 C   0  0  0  0  0  0  0  0  0  0  0  0
    1.0347    7.5755   10.1614 O   0  0  0  0  0  0  0  0  0  0  0  0
    1.2413    5.5977    8.7999 N   0  0  0  0  0  0  0  0  0  0  0  0
    0.5291    5.4518    9.9610 H   0  0  0  0  0  0  0  0  0  0  0  0
    2.0123    7.7698    8.1597 O   0  0  0  0  0  0  0  0  0  0  0  0
    4.2264    8.2547    6.7059 N   0  0  0  0  0  0  0  0  0  0  0  0
    3.6978    9.4972    6.1949 C   0  0  0  0  0  0  0  0  0  0  0  0
    2.2808    9.6659    6.7691 C   0  0  0  0  0  0  0  0  0  0  0  0
    1.6127    8.3258    6.9899 C   0  0  0  0  0  0  0  0  0  0  0  0
    2.2003    7.4321    5.7998 C   0  0  0  0  0  0  0  0  0  0  0  0
    3.5490    7.0177    6.3675 C   0  0  0  0  0  0  0  0  0  0  0  0
    5.4098    9.0353    8.7314 N   0  0  0  0  0  0  0  0  0  0  0  0
    5.3675    8.2548    7.5212 C   0  0  0  0  0  0  0  0  0  0  0  0
    6.4387    7.5696    7.2562 N   0  0  0  0  0  0  0  0  0  0  0  0
    5.1264   10.0241    8.7180 H   0  0  0  0  0  0  0  0  0  0  0  0
    5.7267    8.5765    9.6091 H   0  0  0  0  0  0  0  0  0  0  0  0
    7.2729    7.5709    7.8575 H   0  0  0  0  0  0  0  0  0  0  0  0
 36 37  1  0  0  0
 37 38  2  0  0  0
 37 30  1  0  0  0
 30 31  1  0  0  0
 31 32  1  0  0  0
 32 33  1  0  0  0
 33 34  1  0  0  0
 34 35  1  0  0  0
 33 29  1  0  0  0
 29 25  1  0  0  0
 25 26  2  0  0  0
 25 27  1  0  0  0
 27 24  1  0  0  0
 24 23  1  0  0  0
 23  1  1  0  0  0
  1  2  2  0  0  0
  1  3  1  0  0  0
  3  5  1  0  0  0
  5  6  2  0  0  0
  6  7  1  0  0  0
  7  8  2  0  0  0
  8  9  1  0  0  0
  9 10  2  0  0  0
  8 11  1  0  0  0
 11 12  1  0  0  0
 12 13  1  0  0  0
 13 14  1  0  0  0
 13 15  1  0  0  0
 15 16  2  0  0  0
 16 17  1  0  0  0
 17 18  2  0  0  0
 18 19  1  0  0  0
 18 20  1  0  0  0
 20 21  2  0  0  0
 21 22  1  0  0  0
 35 30  1  0  0  0
 10  5  1  0  0  0
 14 11  1  0  0  0
 21 15  1  0  0  0
 36 39  1  0  0  0
 36 40  1  0  0  0
 38 41  1  0  0  0
 27 28  1  0  0  0
  3  4  1  0  0  0
M  END
> <minimizedAffinity>
-7.94885

> <CNNscore>
0.2959170341

> <CNNaffinity>
6.0807476044

> <CNN_VS>
1.7993967533

> <CNNaffinity_variance>
0.3291665614

$$$$
[H]N=C(N([H])[H])N1C([H])([H])C([H])([H])C([H])(OC(=O)N([H])C([H])([H])C([H])([H])C(=O)N([H])c2nc([H])c(C3([H])C([H])([H])C([H])(c4c([H])c([H])c(Cl)c([H])c4F)C3([H])[H])c([H])c2[H])C([H])([H])C1([H])[H]


 41 44  0  0  0  0  0  0  0  0999 V2000
    3.3308    3.1327   16.4757 C   0  0  0  0  0  0  0  0  0  0  0  0
    2.1997    2.6132   16.5426 O   0  0  0  0  0  0  0  0  0  0  0  0
    3.5530    4.1491   15.4651 N   0  0  0  0  0  0  0  0  0  0  0  0
    4.4895    4.5723   15.4160 H   0  0  0  0  0  0  0  0  0  0  0  0
    2.4771    4.5194   14.5854 C   0  0  0  0  0  0  0  0  0  0  0  0
    1.7821    5.7116   14.7925 C   0  0  0  0  0  0  0  0  0  0  0  0
    0.7756    6.0673   13.9318 C   0  0  0  0  0  0  0  0  0  0  0  0
    0.4147    5.2711   12.8353 C   0  0  0  0  0  0  0  0  0  0  0  0
    1.1244    4.1104   12.6701 C   0  0  0  0  0  0  0  0  0  0  0  0
    2.1241    3.7735   13.5438 N   0  0  0  0  0  0  0  0  0  0  0  0
   -0.6964    5.7158   11.9626 C   0  0  0  0  0  0  0  0  0  0  0  0
   -2.0063    6.0500   12.5728 C   0  0  0  0  0  0  0  0  0  0  0  0
   -2.7364    5.1094   11.6559 C   0  0  0  0  0  0  0  0  0  0  0  0
   -1.3992    4.5664   11.2203 C   0  0  0  0  0  0  0  0  0  0  0  0
   -3.6090    5.6836   10.6223 C   0  0  0  0  0  0  0  0  0  0  0  0
   -3.1217    6.0000    9.3908 C   0  0  0  0  0  0  0  0  0  0  0  0
   -3.9538    6.5704    8.4471 C   0  0  0  0  0  0  0  0  0  0  0  0
   -5.2814    6.8151    8.7687 C   0  0  0  0  0  0  0  0  0  0  0  0
   -6.3064    7.5402    7.5560 Cl  0  0  0  0  0  0  0  0  0  0  0  0
   -5.7885    6.4897   10.0314 C   0  0  0  0  0  0  0  0  0  0  0  0
   -4.9406    5.9197   10.9593 C   0  0  0  0  0  0  0  0  0  0  0  0
   -5.3446    5.5723   12.1957 F   0  0  0  0  0  0  0  0  0  0  0  0
    4.4393    2.8144   17.3369 C   0  0  0  0  0  0  0  0  0  0  0  0
    4.4124    1.5216   18.0548 C   0  0  0  0  0  0  0  0  0  0  0  0
    3.5689    1.1491   20.6095 C   0  0  0  0  0  0  0  0  0  0  0  0
    2.7077    0.3281   21.0283 O   0  0  0  0  0  0  0  0  0  0  0  0
    4.0101    1.3439   19.2734 N   0  0  0  0  0  0  0  0  0  0  0  0
    3.0648    0.4389   18.8683 H   0  0  0  0  0  0  0  0  0  0  0  0
    4.1364    1.9565   21.5823 O   0  0  0  0  0  0  0  0  0  0  0  0
    4.7953    4.4344   22.4052 N   0  0  0  0  0  0  0  0  0  0  0  0
    6.2091    4.1474   22.3501 C   0  0  0  0  0  0  0  0  0  0  0  0
    6.3647    2.6785   21.9207 C   0  0  0  0  0  0  0  0  0  0  0  0
    5.2050    1.8365   22.4074 C   0  0  0  0  0  0  0  0  0  0  0  0
    4.8239    2.5233   23.8015 C   0  0  0  0  0  0  0  0  0  0  0  0
    3.9700    3.6943   23.3406 C   0  0  0  0  0  0  0  0  0  0  0  0
    4.2785    6.8011   21.9114 N   0  0  0  0  0  0  0  0  0  0  0  0
    4.2381    5.4047   21.5597 C   0  0  0  0  0  0  0  0  0  0  0  0
    3.6637    5.1260   20.4284 N   0  0  0  0  0  0  0  0  0  0  0  0
    3.9855    7.1058   22.8493 H   0  0  0  0  0  0  0  0  0  0  0  0
    4.6116    7.4842   21.2017 H   0  0  0  0  0  0  0  0  0  0  0  0
    3.2578    5.8406   19.8103 H   0  0  0  0  0  0  0  0  0  0  0  0
 36 37  1  0  0  0
 37 38  2  0  0  0
 37 30  1  0  0  0
 30 31  1  0  0  0
 31 32  1  0  0  0
 32 33  1  0  0  0
 33 34  1  0  0  0
 34 35  1  0  0  0
 33 29  1  0  0  0
 29 25  1  0  0  0
 25 26  2  0  0  0
 25 27  1  0  0  0
 27 24  1  0  0  0
 24 23  1  0  0  0
 23  1  1  0  0  0
  1  2  2  0  0  0
  1  3  1  0  0  0
  3  5  1  0  0  0
  5  6  2  0  0  0
  6  7  1  0  0  0
  7  8  2  0  0  0
  8  9  1  0  0  0
  9 10  2  0  0  0
  8 11  1  0  0  0
 11 12  1  0  0  0
 12 13  1  0  0  0
 13 14  1  0  0  0
 13 15  1  0  0  0
 15 16  2  0  0  0
 16 17  1  0  0  0
 17 18  2  0  0  0
 18 19  1  0  0  0
 18 20  1  0  0  0
 20 21  2  0  0  0
 21 22  1  0  0  0
 35 30  1  0  0  0
 10  5  1  0  0  0
 14 11  1  0  0  0
 21 15  1  0  0  0
 36 39  1  0  0  0
 36 40  1  0  0  0
 38 41  1  0  0  0
 27 28  1  0  0  0
  3  4  1  0  0  0
M  END
> <minimizedAffinity>
-9.28628

> <CNNscore>
0.2581207454

> <CNNaffinity>
6.2002577782

> <CNN_VS>
1.6004151106

> <CNNaffinity_variance>
0.1807963550

$$$$
[H]N=C(N([H])[H])N1C([H])([H])C([H])([H])C([H])(OC(=O)N([H])C([H])([H])C([H])([H])C(=O)N([H])c2nc([H])c(C3([H])C([H])([H])C([H])(c4c([H])c([H])c(Cl)c([H])c4F)C3([H])[H])c([H])c2[H])C([H])([H])C1([H])[H]


 41 44  0  0  0  0  0  0  0  0999 V2000
    0.9940    2.7892   10.6179 C   0  0  0  0  0  0  0  0  0  0  0  0
    0.1706    3.2311   11.4427 O   0  0  0  0  0  0  0  0  0  0  0  0
    2.3076    2.4127   11.1041 N   0  0  0  0  0  0  0  0  0  0  0  0
    2.9816    2.0496   10.4167 H   0  0  0  0  0  0  0  0  0  0  0  0
    2.6135    2.5591   12.5017 C   0  0  0  0  0  0  0  0  0  0  0  0
    2.1199    1.6383   13.4268 C   0  0  0  0  0  0  0  0  0  0  0  0
    2.4399    1.7728   14.7534 C   0  0  0  0  0  0  0  0  0  0  0  0
    3.2572    2.8113   15.2227 C   0  0  0  0  0  0  0  0  0  0  0  0
    3.7199    3.6911   14.2794 C   0  0  0  0  0  0  0  0  0  0  0  0
    3.3853    3.5391   12.9598 N   0  0  0  0  0  0  0  0  0  0  0  0
    3.5413    2.8985   16.6738 C   0  0  0  0  0  0  0  0  0  0  0  0
    4.9218    2.6520   17.1568 C   0  0  0  0  0  0  0  0  0  0  0  0
    4.4537    1.6099   18.1333 C   0  0  0  0  0  0  0  0  0  0  0  0
    3.1023    1.6556   17.4667 C   0  0  0  0  0  0  0  0  0  0  0  0
    4.5177    1.9228   19.5677 C   0  0  0  0  0  0  0  0  0  0  0  0
    5.1437    3.0473   20.0121 C   0  0  0  0  0  0  0  0  0  0  0  0
    5.2204    3.3023   21.3677 C   0  0  0  0  0  0  0  0  0  0  0  0
    4.6562    2.4041   22.2625 C   0  0  0  0  0  0  0  0  0  0  0  0
    4.7730    2.7525   23.9690 Cl  0  0  0  0  0  0  0  0  0  0  0  0
    4.0094    1.2483   21.8118 C   0  0  0  0  0  0  0  0  0  0  0  0
    3.9431    1.0130   20.4534 C   0  0  0  0  0  0  0  0  0  0  0  0
    3.3377   -0.0709   19.9326 F   0  0  0  0  0  0  0  0  0  0  0  0
    0.7403    2.6063    9.2129 C   0  0  0  0  0  0  0  0  0  0  0  0
    0.4333    3.8036    8.4007 C   0  0  0  0  0  0  0  0  0  0  0  0
   -1.3973    5.7106    9.0247 C   0  0  0  0  0  0  0  0  0  0  0  0
   -1.2610    6.9633    8.9652 O   0  0  0  0  0  0  0  0  0  0  0  0
   -0.4399    4.7132    8.6983 N   0  0  0  0  0  0  0  0  0  0  0  0
    0.4751    5.7116    8.4912 H   0  0  0  0  0  0  0  0  0  0  0  0
   -2.6329    5.2722    9.4731 O   0  0  0  0  0  0  0  0  0  0  0  0
   -4.9328    3.9189    9.1118 N   0  0  0  0  0  0  0  0  0  0  0  0
   -5.7385    5.0760    9.4216 C   0  0  0  0  0  0  0  0  0  0  0  0
   -4.7783    6.2257    9.7719 C   0  0  0  0  0  0  0  0  0  0  0  0
   -3.5085    5.7072   10.4119 C   0  0  0  0  0  0  0  0  0  0  0  0
   -4.0164    4.4313   11.2332 C   0  0  0  0  0  0  0  0  0  0  0  0
   -4.0737    3.3713   10.1442 C   0  0  0  0  0  0  0  0  0  0  0  0
   -4.8835    4.1711    6.6529 N   0  0  0  0  0  0  0  0  0  0  0  0
   -4.9790    3.3483    7.8315 C   0  0  0  0  0  0  0  0  0  0  0  0
   -5.1046    2.0731    7.6185 N   0  0  0  0  0  0  0  0  0  0  0  0
   -5.4705    5.0109    6.5608 H   0  0  0  0  0  0  0  0  0  0  0  0
   -4.2104    3.8989    5.9085 H   0  0  0  0  0  0  0  0  0  0  0  0
   -5.1364    1.6582    6.6781 H   0  0  0  0  0  0  0  0  0  0  0  0
 36 37  1  0  0  0
 37 38  2  0  0  0
 37 30  1  0  0  0
 30 31  1  0  0  0
 31 32  1  0  0  0
 32 33  1  0  0  0
 33 34  1  0  0  0
 34 35  1  0  0  0
 33 29  1  0  0  0
 29 25  1  0  0  0
 25 26  2  0  0  0
 25 27  1  0  0  0
 27 24  1  0  0  0
 24 23  1  0  0  0
 23  1  1  0  0  0
  1  2  2  0  0  0
  1  3  1  0  0  0
  3  5  1  0  0  0
  5  6  2  0  0  0
  6  7  1  0  0  0
  7  8  2  0  0  0
  8  9  1  0  0  0
  9 10  2  0  0  0
  8 11  1  0  0  0
 11 12  1  0  0  0
 12 13  1  0  0  0
 13 14  1  0  0  0
 13 15  1  0  0  0
 15 16  2  0  0  0
 16 17  1  0  0  0
 17 18  2  0  0  0
 18 19  1  0  0  0
 18 20  1  0  0  0
 20 21  2  0  0  0
 21 22  1  0  0  0
 35 30  1  0  0  0
 10  5  1  0  0  0
 14 11  1  0  0  0
 21 15  1  0  0  0
 36 39  1  0  0  0
 36 40  1  0  0  0
 38 41  1  0  0  0
 27 28  1  0  0  0
  3  4  1  0  0  0
M  END
> <minimizedAffinity>
-7.35122

> <CNNscore>
0.2425891906

> <CNNaffinity>
6.2364511490

> <CNN_VS>
1.5128955841

> <CNNaffinity_variance>
0.7742403746

$$$$
[H]N=C(N([H])[H])N1C([H])([H])C([H])([H])C([H])(OC(=O)N([H])C([H])([H])C([H])([H])C(=O)N([H])c2nc([H])c(C3([H])C([H])([H])C([H])(c4c([H])c([H])c(Cl)c([H])c4F)C3([H])[H])c([H])c2[H])C([H])([H])C1([H])[H]


 41 44  0  0  0  0  0  0  0  0999 V2000
    1.6230    4.4880   10.2205 C   0  0  0  0  0  0  0  0  0  0  0  0
    0.6883    4.7040   11.0163 O   0  0  0  0  0  0  0  0  0  0  0  0
    2.8764    3.9982   10.7615 N   0  0  0  0  0  0  0  0  0  0  0  0
    3.6432    3.8232   10.0980 H   0  0  0  0  0  0  0  0  0  0  0  0
    2.9990    3.7808   12.1778 C   0  0  0  0  0  0  0  0  0  0  0  0
    2.7451    2.5191   12.7171 C   0  0  0  0  0  0  0  0  0  0  0  0
    2.8908    2.3168   14.0655 C   0  0  0  0  0  0  0  0  0  0  0  0
    3.2934    3.3408   14.9348 C   0  0  0  0  0  0  0  0  0  0  0  0
    3.5327    4.5624   14.3618 C   0  0  0  0  0  0  0  0  0  0  0  0
    3.3782    4.7426   13.0127 N   0  0  0  0  0  0  0  0  0  0  0  0
    3.4095    3.0469   16.3820 C   0  0  0  0  0  0  0  0  0  0  0  0
    4.6985    2.5448   16.9171 C   0  0  0  0  0  0  0  0  0  0  0  0
    4.0352    1.3557   17.5533 C   0  0  0  0  0  0  0  0  0  0  0  0
    2.7806    1.7049   16.7939 C   0  0  0  0  0  0  0  0  0  0  0  0
    3.9537    1.3072   19.0197 C   0  0  0  0  0  0  0  0  0  0  0  0
    4.5222    2.2789   19.7854 C   0  0  0  0  0  0  0  0  0  0  0  0
    4.4617    2.1934   21.1629 C   0  0  0  0  0  0  0  0  0  0  0  0
    3.8196    1.1124   21.7505 C   0  0  0  0  0  0  0  0  0  0  0  0
    3.7634    1.0310   23.4932 Cl  0  0  0  0  0  0  0  0  0  0  0  0
    3.2312    0.1122   20.9690 C   0  0  0  0  0  0  0  0  0  0  0  0
    3.3022    0.2174   19.5946 C   0  0  0  0  0  0  0  0  0  0  0  0
    2.7613   -0.6966   18.7671 F   0  0  0  0  0  0  0  0  0  0  0  0
    1.5543    4.6720    8.7946 C   0  0  0  0  0  0  0  0  0  0  0  0
    2.7103    4.2365    7.9814 C   0  0  0  0  0  0  0  0  0  0  0  0
    3.1281    1.7205    7.0474 C   0  0  0  0  0  0  0  0  0  0  0  0
    2.6863    1.2066    5.9834 O   0  0  0  0  0  0  0  0  0  0  0  0
    2.9096    3.0364    7.5358 N   0  0  0  0  0  0  0  0  0  0  0  0
    2.0526    3.2438    6.4873 H   0  0  0  0  0  0  0  0  0  0  0  0
    3.9117    0.8838    7.8257 O   0  0  0  0  0  0  0  0  0  0  0  0
    4.8129   -1.5548    8.5275 N   0  0  0  0  0  0  0  0  0  0  0  0
    4.5036   -1.3399    9.9211 C   0  0  0  0  0  0  0  0  0  0  0  0
    3.9372    0.0842   10.0531 C   0  0  0  0  0  0  0  0  0  0  0  0
    4.5380    1.0138    9.0208 C   0  0  0  0  0  0  0  0  0  0  0  0
    6.0265    0.4509    8.8548 C   0  0  0  0  0  0  0  0  0  0  0  0
    5.8081   -0.7094    7.8961 C   0  0  0  0  0  0  0  0  0  0  0  0
    3.0918   -2.2277    6.8851 N   0  0  0  0  0  0  0  0  0  0  0  0
    4.1514   -2.5575    7.8037 C   0  0  0  0  0  0  0  0  0  0  0  0
    4.4378   -3.8207    7.9018 N   0  0  0  0  0  0  0  0  0  0  0  0
    2.3287   -1.6039    7.1799 H   0  0  0  0  0  0  0  0  0  0  0  0
    3.1208   -2.6290    5.9263 H   0  0  0  0  0  0  0  0  0  0  0  0
    3.9516   -4.5529    7.3680 H   0  0  0  0  0  0  0  0  0  0  0  0
 36 37  1  0  0  0
 37 38  2  0  0  0
 37 30  1  0  0  0
 30 31  1  0  0  0
 31 32  1  0  0  0
 32 33  1  0  0  0
 33 34  1  0  0  0
 34 35  1  0  0  0
 33 29  1  0  0  0
 29 25  1  0  0  0
 25 26  2  0  0  0
 25 27  1  0  0  0
 27 24  1  0  0  0
 24 23  1  0  0  0
 23  1  1  0  0  0
  1  2  2  0  0  0
  1  3  1  0  0  0
  3  5  1  0  0  0
  5  6  2  0  0  0
  6  7  1  0  0  0
  7  8  2  0  0  0
  8  9  1  0  0  0
  9 10  2  0  0  0
  8 11  1  0  0  0
 11 12  1  0  0  0
 12 13  1  0  0  0
 13 14  1  0  0  0
 13 15  1  0  0  0
 15 16  2  0  0  0
 16 17  1  0  0  0
 17 18  2  0  0  0
 18 19  1  0  0  0
 18 20  1  0  0  0
 20 21  2  0  0  0
 21 22  1  0  0  0
 35 30  1  0  0  0
 10  5  1  0  0  0
 14 11  1  0  0  0
 21 15  1  0  0  0
 36 39  1  0  0  0
 36 40  1  0  0  0
 38 41  1  0  0  0
 27 28  1  0  0  0
  3  4  1  0  0  0
M  END
> <minimizedAffinity>
-7.00179

> <CNNscore>
0.2343947291

> <CNNaffinity>
6.5167188644

> <CNN_VS>
1.5274845362

> <CNNaffinity_variance>
0.1365304738

$$$$
[H]N=C(N([H])[H])N1C([H])([H])C([H])([H])C([H])(OC(=O)N([H])C([H])([H])C([H])([H])C(=O)N([H])c2nc([H])c(C3([H])C([H])([H])C([H])(c4c([H])c([H])c(Cl)c([H])c4F)C3([H])[H])c([H])c2[H])C([H])([H])C1([H])[H]


 41 44  0  0  0  0  0  0  0  0999 V2000
    4.6245    1.8505   20.8796 C   0  0  0  0  0  0  0  0  0  0  0  0
    3.6296    2.6015   20.8721 O   0  0  0  0  0  0  0  0  0  0  0  0
    5.0792    1.3125   19.6117 N   0  0  0  0  0  0  0  0  0  0  0  0
    5.9005    0.6930   19.6267 H   0  0  0  0  0  0  0  0  0  0  0  0
    4.3779    1.6574   18.4044 C   0  0  0  0  0  0  0  0  0  0  0  0
    4.7677    2.7732   17.6626 C   0  0  0  0  0  0  0  0  0  0  0  0
    4.1087    3.0772   16.4991 C   0  0  0  0  0  0  0  0  0  0  0  0
    3.0466    2.2986   16.0174 C   0  0  0  0  0  0  0  0  0  0  0  0
    2.6988    1.2124   16.7771 C   0  0  0  0  0  0  0  0  0  0  0  0
    3.3691    0.9291   17.9376 N   0  0  0  0  0  0  0  0  0  0  0  0
    2.3738    2.7042   14.7616 C   0  0  0  0  0  0  0  0  0  0  0  0
    1.7097    1.6708   13.9304 C   0  0  0  0  0  0  0  0  0  0  0  0
    2.4740    2.0857   12.7047 C   0  0  0  0  0  0  0  0  0  0  0  0
    3.3413    2.9440   13.5900 C   0  0  0  0  0  0  0  0  0  0  0  0
    1.7394    2.7499   11.6190 C   0  0  0  0  0  0  0  0  0  0  0  0
    0.6055    3.4598   11.8724 C   0  0  0  0  0  0  0  0  0  0  0  0
   -0.0864    4.0467   10.8307 C   0  0  0  0  0  0  0  0  0  0  0  0
    0.3856    3.9035    9.5335 C   0  0  0  0  0  0  0  0  0  0  0  0
   -0.5130    4.6536    8.2386 Cl  0  0  0  0  0  0  0  0  0  0  0  0
    1.5515    3.1775    9.2671 C   0  0  0  0  0  0  0  0  0  0  0  0
    2.2282    2.6000   10.3224 C   0  0  0  0  0  0  0  0  0  0  0  0
    3.3589    1.8879   10.1579 F   0  0  0  0  0  0  0  0  0  0  0  0
    5.3744    1.4831   22.0519 C   0  0  0  0  0  0  0  0  0  0  0  0
    5.9092    2.5681   22.9028 C   0  0  0  0  0  0  0  0  0  0  0  0
    6.6057    5.0503   22.0482 C   0  0  0  0  0  0  0  0  0  0  0  0
    7.5846    5.7519   22.4236 O   0  0  0  0  0  0  0  0  0  0  0  0
    6.2415    3.7521   22.4951 N   0  0  0  0  0  0  0  0  0  0  0  0
    7.2542    3.8247   23.4149 H   0  0  0  0  0  0  0  0  0  0  0  0
    5.7931    5.6357   21.0905 O   0  0  0  0  0  0  0  0  0  0  0  0
    5.1635    7.9249   19.8200 N   0  0  0  0  0  0  0  0  0  0  0  0
    4.0744    7.3043   19.1038 C   0  0  0  0  0  0  0  0  0  0  0  0
    4.0462    5.8194   19.5044 C   0  0  0  0  0  0  0  0  0  0  0  0
    5.4346    5.3089   19.8249 C   0  0  0  0  0  0  0  0  0  0  0  0
    6.3631    6.1438   18.8243 C   0  0  0  0  0  0  0  0  0  0  0  0
    6.5146    7.4580   19.5746 C   0  0  0  0  0  0  0  0  0  0  0  0
    4.6342    8.6526   22.1227 N   0  0  0  0  0  0  0  0  0  0  0  0
    4.9091    8.9518   20.7406 C   0  0  0  0  0  0  0  0  0  0  0  0
    4.9053   10.2123   20.4266 N   0  0  0  0  0  0  0  0  0  0  0  0
    3.9379    7.9357   22.3670 H   0  0  0  0  0  0  0  0  0  0  0  0
    5.1552    9.1715   22.8579 H   0  0  0  0  0  0  0  0  0  0  0  0
    4.7200   10.9625   21.1049 H   0  0  0  0  0  0  0  0  0  0  0  0
 36 37  1  0  0  0
 37 38  2  0  0  0
 37 30  1  0  0  0
 30 31  1  0  0  0
 31 32  1  0  0  0
 32 33  1  0  0  0
 33 34  1  0  0  0
 34 35  1  0  0  0
 33 29  1  0  0  0
 29 25  1  0  0  0
 25 26  2  0  0  0
 25 27  1  0  0  0
 27 24  1  0  0  0
 24 23  1  0  0  0
 23  1  1  0  0  0
  1  2  2  0  0  0
  1  3  1  0  0  0
  3  5  1  0  0  0
  5  6  2  0  0  0
  6  7  1  0  0  0
  7  8  2  0  0  0
  8  9  1  0  0  0
  9 10  2  0  0  0
  8 11  1  0  0  0
 11 12  1  0  0  0
 12 13  1  0  0  0
 13 14  1  0  0  0
 13 15  1  0  0  0
 15 16  2  0  0  0
 16 17  1  0  0  0
 17 18  2  0  0  0
 18 19  1  0  0  0
 18 20  1  0  0  0
 20 21  2  0  0  0
 21 22  1  0  0  0
 35 30  1  0  0  0
 10  5  1  0  0  0
 14 11  1  0  0  0
 21 15  1  0  0  0
 36 39  1  0  0  0
 36 40  1  0  0  0
 38 41  1  0  0  0
 27 28  1  0  0  0
  3  4  1  0  0  0
M  END
> <minimizedAffinity>
-8.48539

> <CNNscore>
0.2246848345

> <CNNaffinity>
6.7012643814

> <CNN_VS>
1.5056724548

> <CNNaffinity_variance>
0.3466648459

$$$$
[H]N=C(N([H])[H])N1C([H])([H])C([H])([H])C([H])(OC(=O)N([H])C([H])([H])C([H])([H])C(=O)N([H])c2nc([H])c(C3([H])C([H])([H])C([H])(c4c([H])c([H])c(Cl)c([H])c4F)C3([H])[H])c([H])c2[H])C([H])([H])C1([H])[H]


 41 44  0  0  0  0  0  0  0  0999 V2000
    4.1836    5.8241   16.6732 C   0  0  0  0  0  0  0  0  0  0  0  0
    3.0481    5.7300   17.1785 O   0  0  0  0  0  0  0  0  0  0  0  0
    4.2749    6.0233   15.2394 N   0  0  0  0  0  0  0  0  0  0  0  0
    5.2159    6.0992   14.8302 H   0  0  0  0  0  0  0  0  0  0  0  0
    3.0702    6.1044   14.4582 C   0  0  0  0  0  0  0  0  0  0  0  0
    2.5132    7.3479   14.1573 C   0  0  0  0  0  0  0  0  0  0  0  0
    1.3790    7.4143   13.3893 C   0  0  0  0  0  0  0  0  0  0  0  0
    0.7506    6.2666   12.8851 C   0  0  0  0  0  0  0  0  0  0  0  0
    1.3325    5.0678   13.2046 C   0  0  0  0  0  0  0  0  0  0  0  0
    2.4640    5.0248   13.9756 N   0  0  0  0  0  0  0  0  0  0  0  0
   -0.4822    6.4214   12.0787 C   0  0  0  0  0  0  0  0  0  0  0  0
   -1.7897    6.5323   12.7701 C   0  0  0  0  0  0  0  0  0  0  0  0
   -2.3735    5.4045   11.9665 C   0  0  0  0  0  0  0  0  0  0  0  0
   -0.9857    5.1068   11.4584 C   0  0  0  0  0  0  0  0  0  0  0  0
   -3.4098    5.7217   10.9741 C   0  0  0  0  0  0  0  0  0  0  0  0
   -3.1025    5.8364    9.6526 C   0  0  0  0  0  0  0  0  0  0  0  0
   -4.0877    6.1690    8.7432 C   0  0  0  0  0  0  0  0  0  0  0  0
   -5.3836    6.3833    9.1910 C   0  0  0  0  0  0  0  0  0  0  0  0
   -6.6052    6.8058    8.0179 Cl  0  0  0  0  0  0  0  0  0  0  0  0
   -5.7061    6.2642   10.5472 C   0  0  0  0  0  0  0  0  0  0  0  0
   -4.7071    5.9301   11.4390 C   0  0  0  0  0  0  0  0  0  0  0  0
   -4.9288    5.7912   12.7597 F   0  0  0  0  0  0  0  0  0  0  0  0
    5.4218    5.7662   17.4049 C   0  0  0  0  0  0  0  0  0  0  0  0
    5.4243    5.0750   18.7125 C   0  0  0  0  0  0  0  0  0  0  0  0
    4.4420    2.5878   19.1880 C   0  0  0  0  0  0  0  0  0  0  0  0
    4.1309    1.7040   18.3435 O   0  0  0  0  0  0  0  0  0  0  0  0
    4.9558    3.8886   18.9393 N   0  0  0  0  0  0  0  0  0  0  0  0
    4.7916    3.6572   17.5991 H   0  0  0  0  0  0  0  0  0  0  0  0
    4.2438    2.2337   20.5130 O   0  0  0  0  0  0  0  0  0  0  0  0
    4.7525    3.6486   22.7469 N   0  0  0  0  0  0  0  0  0  0  0  0
    6.0383    3.0186   22.9315 C   0  0  0  0  0  0  0  0  0  0  0  0
    6.2124    1.9874   21.8035 C   0  0  0  0  0  0  0  0  0  0  0  0
    4.8811    1.4068   21.3776 C   0  0  0  0  0  0  0  0  0  0  0  0
    4.0448    1.3898   22.7417 C   0  0  0  0  0  0  0  0  0  0  0  0
    3.5582    2.8287   22.8185 C   0  0  0  0  0  0  0  0  0  0  0  0
    3.5541    5.5776   21.7697 N   0  0  0  0  0  0  0  0  0  0  0  0
    4.6705    5.0255   22.4939 C   0  0  0  0  0  0  0  0  0  0  0  0
    5.5662    5.8814   22.8843 N   0  0  0  0  0  0  0  0  0  0  0  0
    3.2549    5.1539   20.8814 H   0  0  0  0  0  0  0  0  0  0  0  0
    3.0624    6.4035   22.1664 H   0  0  0  0  0  0  0  0  0  0  0  0
    5.5016    6.8907   22.6983 H   0  0  0  0  0  0  0  0  0  0  0  0
 36 37  1  0  0  0
 37 38  2  0  0  0
 37 30  1  0  0  0
 30 31  1  0  0  0
 31 32  1  0  0  0
 32 33  1  0  0  0
 33 34  1  0  0  0
 34 35  1  0  0  0
 33 29  1  0  0  0
 29 25  1  0  0  0
 25 26  2  0  0  0
 25 27  1  0  0  0
 27 24  1  0  0  0
 24 23  1  0  0  0
 23  1  1  0  0  0
  1  2  2  0  0  0
  1  3  1  0  0  0
  3  5  1  0  0  0
  5  6  2  0  0  0
  6  7  1  0  0  0
  7  8  2  0  0  0
  8  9  1  0  0  0
  9 10  2  0  0  0
  8 11  1  0  0  0
 11 12  1  0  0  0
 12 13  1  0  0  0
 13 14  1  0  0  0
 13 15  1  0  0  0
 15 16  2  0  0  0
 16 17  1  0  0  0
 17 18  2  0  0  0
 18 19  1  0  0  0
 18 20  1  0  0  0
 20 21  2  0  0  0
 21 22  1  0  0  0
 35 30  1  0  0  0
 10  5  1  0  0  0
 14 11  1  0  0  0
 21 15  1  0  0  0
 36 39  1  0  0  0
 36 40  1  0  0  0
 38 41  1  0  0  0
 27 28  1  0  0  0
  3  4  1  0  0  0
M  END
> <minimizedAffinity>
-8.98661

> <CNNscore>
0.2151922882

> <CNNaffinity>
6.0454382896

> <CNN_VS>
1.3009316921

> <CNNaffinity_variance>
0.1778959334

$$$$
[H]N=C(N([H])[H])N1C([H])([H])C([H])([H])C([H])(OC(=O)N([H])C([H])([H])C([H])([H])C(=O)N([H])c2nc([H])c(C3([H])C([H])([H])C([H])(c4c([H])c([H])c(Cl)c([H])c4F)C3([H])[H])c([H])c2[H])C([H])([H])C1([H])[H]


 41 44  0  0  0  0  0  0  0  0999 V2000
    4.3605    6.4678   16.5119 C   0  0  0  0  0  0  0  0  0  0  0  0
    3.2395    6.4993   17.0560 O   0  0  0  0  0  0  0  0  0  0  0  0
    4.4142    6.5140   15.0632 N   0  0  0  0  0  0  0  0  0  0  0  0
    5.3433    6.4868   14.6220 H   0  0  0  0  0  0  0  0  0  0  0  0
    3.1904    6.5933   14.3120 C   0  0  0  0  0  0  0  0  0  0  0  0
    2.5543    5.4271   13.8848 C   0  0  0  0  0  0  0  0  0  0  0  0
    1.3741    5.5140   13.1920 C   0  0  0  0  0  0  0  0  0  0  0  0
    0.7717    6.7449   12.8949 C   0  0  0  0  0  0  0  0  0  0  0  0
    1.4305    7.8633   13.3346 C   0  0  0  0  0  0  0  0  0  0  0  0
    2.6099    7.7531   14.0226 N   0  0  0  0  0  0  0  0  0  0  0  0
   -0.4942    6.7552   12.1259 C   0  0  0  0  0  0  0  0  0  0  0  0
   -1.7842    6.7997   12.8566 C   0  0  0  0  0  0  0  0  0  0  0  0
   -2.2985    5.5856   12.1354 C   0  0  0  0  0  0  0  0  0  0  0  0
   -0.9076    5.3721   11.5947 C   0  0  0  0  0  0  0  0  0  0  0  0
   -3.3878    5.7629   11.1651 C   0  0  0  0  0  0  0  0  0  0  0  0
   -3.1441    5.7366    9.8258 C   0  0  0  0  0  0  0  0  0  0  0  0
   -4.1791    5.9397    8.9337 C   0  0  0  0  0  0  0  0  0  0  0  0
   -5.4594    6.1698    9.4171 C   0  0  0  0  0  0  0  0  0  0  0  0
   -6.7451    6.4267    8.2647 Cl  0  0  0  0  0  0  0  0  0  0  0  0
   -5.7166    6.1954   10.7921 C   0  0  0  0  0  0  0  0  0  0  0  0
   -4.6686    5.9890   11.6662 C   0  0  0  0  0  0  0  0  0  0  0  0
   -4.8261    5.9935   13.0033 F   0  0  0  0  0  0  0  0  0  0  0  0
    5.6173    6.4044   17.2106 C   0  0  0  0  0  0  0  0  0  0  0  0
    6.1779    5.0694   17.5122 C   0  0  0  0  0  0  0  0  0  0  0  0
    4.7758    2.9413   18.4515 C   0  0  0  0  0  0  0  0  0  0  0  0
    3.7633    2.3931   17.9363 O   0  0  0  0  0  0  0  0  0  0  0  0
    5.5091    4.0542   17.9602 N   0  0  0  0  0  0  0  0  0  0  0  0
    4.5813    4.1772   16.9598 H   0  0  0  0  0  0  0  0  0  0  0  0
    5.2055    2.3835   19.6450 O   0  0  0  0  0  0  0  0  0  0  0  0
    4.3044    0.5770   21.4271 N   0  0  0  0  0  0  0  0  0  0  0  0
    3.8367    1.6029   22.3288 C   0  0  0  0  0  0  0  0  0  0  0  0
    4.1944    2.9627   21.7049 C   0  0  0  0  0  0  0  0  0  0  0  0
    5.4617    2.8750   20.8820 C   0  0  0  0  0  0  0  0  0  0  0  0
    6.3262    1.7837   21.6706 C   0  0  0  0  0  0  0  0  0  0  0  0
    5.7256    0.4864   21.1517 C   0  0  0  0  0  0  0  0  0  0  0  0
    2.8598   -0.0331   19.5158 N   0  0  0  0  0  0  0  0  0  0  0  0
    3.3936   -0.3039   20.8262 C   0  0  0  0  0  0  0  0  0  0  0  0
    2.9775   -1.3989   21.3877 N   0  0  0  0  0  0  0  0  0  0  0  0
    2.4730    0.8948   19.2978 H   0  0  0  0  0  0  0  0  0  0  0  0
    2.8796   -0.7905   18.8036 H   0  0  0  0  0  0  0  0  0  0  0  0
    2.3108   -2.0433   20.9430 H   0  0  0  0  0  0  0  0  0  0  0  0
 36 37  1  0  0  0
 37 38  2  0  0  0
 37 30  1  0  0  0
 30 31  1  0  0  0
 31 32  1  0  0  0
 32 33  1  0  0  0
 33 34  1  0  0  0
 34 35  1  0  0  0
 33 29  1  0  0  0
 29 25  1  0  0  0
 25 26  2  0  0  0
 25 27  1  0  0  0
 27 24  1  0  0  0
 24 23  1  0  0  0
 23  1  1  0  0  0
  1  2  2  0  0  0
  1  3  1  0  0  0
  3  5  1  0  0  0
  5  6  2  0  0  0
  6  7  1  0  0  0
  7  8  2  0  0  0
  8  9  1  0  0  0
  9 10  2  0  0  0
  8 11  1  0  0  0
 11 12  1  0  0  0
 12 13  1  0  0  0
 13 14  1  0  0  0
 13 15  1  0  0  0
 15 16  2  0  0  0
 16 17  1  0  0  0
 17 18  2  0  0  0
 18 19  1  0  0  0
 18 20  1  0  0  0
 20 21  2  0  0  0
 21 22  1  0  0  0
 35 30  1  0  0  0
 10  5  1  0  0  0
 14 11  1  0  0  0
 21 15  1  0  0  0
 36 39  1  0  0  0
 36 40  1  0  0  0
 38 41  1  0  0  0
 27 28  1  0  0  0
  3  4  1  0  0  0
M  END
> <minimizedAffinity>
-8.20924

> <CNNscore>
0.2098363936

> <CNNaffinity>
6.1749105453

> <CNN_VS>
1.2957209349

> <CNNaffinity_variance>
0.1585904211

$$$$
[H]N=C(N([H])[H])N1C([H])([H])C([H])([H])C([H])(OC(=O)N([H])C([H])([H])C([H])([H])C(=O)N([H])c2nc([H])c(C3([H])C([H])([H])C([H])(c4c([H])c([H])c(Cl)c([H])c4F)C3([H])[H])c([H])c2[H])C([H])([H])C1([H])[H]


 41 44  0  0  0  0  0  0  0  0999 V2000
    3.2511    4.4794   15.9362 C   0  0  0  0  0  0  0  0  0  0  0  0
    4.2489    3.9573   15.4018 O   0  0  0  0  0  0  0  0  0  0  0  0
    2.4444    5.3799   15.1350 N   0  0  0  0  0  0  0  0  0  0  0  0
    1.6230    5.8072   15.5839 H   0  0  0  0  0  0  0  0  0  0  0  0
    2.8161    5.6382   13.7700 C   0  0  0  0  0  0  0  0  0  0  0  0
    3.5940    6.7531   13.4550 C   0  0  0  0  0  0  0  0  0  0  0  0
    3.9646    6.9748   12.1535 C   0  0  0  0  0  0  0  0  0  0  0  0
    3.5904    6.1119   11.1134 C   0  0  0  0  0  0  0  0  0  0  0  0
    2.8281    5.0300   11.4688 C   0  0  0  0  0  0  0  0  0  0  0  0
    2.4671    4.8295   12.7749 N   0  0  0  0  0  0  0  0  0  0  0  0
    4.0153    6.4311    9.7308 C   0  0  0  0  0  0  0  0  0  0  0  0
    5.4489    6.6954    9.4573 C   0  0  0  0  0  0  0  0  0  0  0  0
    5.1388    8.0124    8.8031 C   0  0  0  0  0  0  0  0  0  0  0  0
    3.7262    7.8832    9.3135 C   0  0  0  0  0  0  0  0  0  0  0  0
    5.3313    8.1296    7.3509 C   0  0  0  0  0  0  0  0  0  0  0  0
    5.3105    7.0284    6.5504 C   0  0  0  0  0  0  0  0  0  0  0  0
    5.5279    7.1603    5.1926 C   0  0  0  0  0  0  0  0  0  0  0  0
    5.7664    8.4195    4.6603 C   0  0  0  0  0  0  0  0  0  0  0  0
    6.0413    8.5528    2.9417 Cl  0  0  0  0  0  0  0  0  0  0  0  0
    5.7865    9.5551    5.4773 C   0  0  0  0  0  0  0  0  0  0  0  0
    5.5659    9.4013    6.8311 C   0  0  0  0  0  0  0  0  0  0  0  0
    5.5641   10.4387    7.6894 F   0  0  0  0  0  0  0  0  0  0  0  0
    2.8219    4.2473   17.2903 C   0  0  0  0  0  0  0  0  0  0  0  0
    2.8816    5.3782   18.2416 C   0  0  0  0  0  0  0  0  0  0  0  0
    5.0298    6.9894   18.6495 C   0  0  0  0  0  0  0  0  0  0  0  0
    6.2434    6.6553   18.7320 O   0  0  0  0  0  0  0  0  0  0  0  0
    3.9063    6.1468   18.4361 N   0  0  0  0  0  0  0  0  0  0  0  0
    4.7476    5.0681   18.5102 H   0  0  0  0  0  0  0  0  0  0  0  0
    4.7797    8.3445   18.7958 O   0  0  0  0  0  0  0  0  0  0  0  0
    6.5780   10.0311   19.8788 N   0  0  0  0  0  0  0  0  0  0  0  0
    5.9989    9.9069   21.1954 C   0  0  0  0  0  0  0  0  0  0  0  0
    4.7817    8.9738   21.0773 C   0  0  0  0  0  0  0  0  0  0  0  0
    4.1263    9.0926   19.7182 C   0  0  0  0  0  0  0  0  0  0  0  0
    4.3515   10.6322   19.3452 C   0  0  0  0  0  0  0  0  0  0  0  0
    5.7778   10.6122   18.8176 C   0  0  0  0  0  0  0  0  0  0  0  0
    8.2275    8.9352   18.3989 N   0  0  0  0  0  0  0  0  0  0  0  0
    7.8860    9.5865   19.6376 C   0  0  0  0  0  0  0  0  0  0  0  0
    8.8594    9.7269   20.4862 N   0  0  0  0  0  0  0  0  0  0  0  0
    7.6449    8.1659   18.0425 H   0  0  0  0  0  0  0  0  0  0  0  0
    9.0664    9.2624   17.8788 H   0  0  0  0  0  0  0  0  0  0  0  0
    9.8177    9.4011   20.3050 H   0  0  0  0  0  0  0  0  0  0  0  0
 36 37  1  0  0  0
 37 38  2  0  0  0
 37 30  1  0  0  0
 30 31  1  0  0  0
 31 32  1  0  0  0
 32 33  1  0  0  0
 33 34  1  0  0  0
 34 35  1  0  0  0
 33 29  1  0  0  0
 29 25  1  0  0  0
 25 26  2  0  0  0
 25 27  1  0  0  0
 27 24  1  0  0  0
 24 23  1  0  0  0
 23  1  1  0  0  0
  1  2  2  0  0  0
  1  3  1  0  0  0
  3  5  1  0  0  0
  5  6  2  0  0  0
  6  7  1  0  0  0
  7  8  2  0  0  0
  8  9  1  0  0  0
  9 10  2  0  0  0
  8 11  1  0  0  0
 11 12  1  0  0  0
 12 13  1  0  0  0
 13 14  1  0  0  0
 13 15  1  0  0  0
 15 16  2  0  0  0
 16 17  1  0  0  0
 17 18  2  0  0  0
 18 19  1  0  0  0
 18 20  1  0  0  0
 20 21  2  0  0  0
 21 22  1  0  0  0
 35 30  1  0  0  0
 10  5  1  0  0  0
 14 11  1  0  0  0
 21 15  1  0  0  0
 36 39  1  0  0  0
 36 40  1  0  0  0
 38 41  1  0  0  0
 27 28  1  0  0  0
  3  4  1  0  0  0
M  END
> <minimizedAffinity>
-6.82974

> <CNNscore>
0.1942530423

> <CNNaffinity>
5.4613809586

> <CNN_VS>
1.0608898401

> <CNNaffinity_variance>
0.6872294545

$$$$
[H]O[C@@]([H])(c1c([H])c([H])c([H])c([H])c1[H])[C@@]1([H])N(C(=O)N([H])c2c([H])c([H])c(Cl)c(C(F)(F)F)c2[H])C([H])([H])[C@@]([H])(C([H])([H])[H])C1([H])[H]


 30 32  0  0  0  0  0  0  0  0999 V2000
    2.3502    2.0035   11.8351 C   0  0  0  0  0  0  0  0  0  0  0  0
    3.0169    2.4079   13.1081 C   0  0  0  0  0  0  0  0  0  0  0  0
    3.2726    3.8784   13.2289 C   0  0  0  0  0  0  0  0  0  0  0  0
    3.0638    4.2320   14.7005 C   0  0  0  0  0  0  0  0  0  0  0  0
    2.8356    2.9442   15.3229 N   0  0  0  0  0  0  0  0  0  0  0  0
    2.1407    2.1481   14.3338 C   0  0  0  0  0  0  0  0  0  0  0  0
    3.2103    2.5057   16.6361 C   0  0  0  0  0  0  0  0  0  0  0  0
    2.8730    1.3345   16.9130 O   0  0  0  0  0  0  0  0  0  0  0  0
    3.8928    3.3893   17.4598 N   0  0  0  0  0  0  0  0  0  0  0  0
    4.1147    4.3584   17.0755 H   0  0  0  0  0  0  0  0  0  0  0  0
    4.3259    3.1129   18.7842 C   0  0  0  0  0  0  0  0  0  0  0  0
    5.2474    3.8706   19.4520 C   0  0  0  0  0  0  0  0  0  0  0  0
    5.5914    3.5208   20.7686 C   0  0  0  0  0  0  0  0  0  0  0  0
    5.0263    2.4389   21.3988 C   0  0  0  0  0  0  0  0  0  0  0  0
    5.4995    2.0498   23.0549 Cl  0  0  0  0  0  0  0  0  0  0  0  0
    4.0952    1.6757   20.7183 C   0  0  0  0  0  0  0  0  0  0  0  0
    3.7487    2.0003   19.4397 C   0  0  0  0  0  0  0  0  0  0  0  0
    3.4878    0.5010   21.4148 C   0  0  0  0  0  0  0  0  0  0  0  0
    3.0407    0.8234   22.6626 F   0  0  0  0  0  0  0  0  0  0  0  0
    4.4489   -0.4932   21.4597 F   0  0  0  0  0  0  0  0  0  0  0  0
    2.3996    0.0089   20.6948 F   0  0  0  0  0  0  0  0  0  0  0  0
    1.7930    5.0321   14.8733 C   0  0  0  0  0  0  0  0  0  0  0  0
    1.7244    5.5741   16.1568 O   0  0  0  0  0  0  0  0  0  0  0  0
    1.1729    4.9773   16.7293 H   0  0  0  0  0  0  0  0  0  0  0  0
    1.7193    6.1782   13.9385 C   0  0  0  0  0  0  0  0  0  0  0  0
    0.7738    6.2313   12.9406 C   0  0  0  0  0  0  0  0  0  0  0  0
    0.7132    7.3202   12.0619 C   0  0  0  0  0  0  0  0  0  0  0  0
    1.6110    8.3542   12.1955 C   0  0  0  0  0  0  0  0  0  0  0  0
    2.5587    8.3190   13.1822 C   0  0  0  0  0  0  0  0  0  0  0  0
    2.5978    7.2330   14.0370 C   0  0  0  0  0  0  0  0  0  0  0  0
  1  2  1  0  0  0
  2  3  1  0  0  0
  3  4  1  0  0  0
  4  5  1  0  0  0
  5  6  1  0  0  0
  5  7  1  0  0  0
  7  8  2  0  0  0
  7  9  1  0  0  0
  9 11  1  0  0  0
 11 12  2  0  0  0
 12 13  1  0  0  0
 13 14  2  0  0  0
 14 15  1  0  0  0
 14 16  1  0  0  0
 16 17  2  0  0  0
 16 18  1  0  0  0
 18 19  1  0  0  0
 18 20  1  0  0  0
 18 21  1  0  0  0
  4 22  1  0  0  0
 22 23  1  0  0  0
 22 25  1  0  0  0
 25 26  2  0  0  0
 26 27  1  0  0  0
 27 28  2  0  0  0
 28 29  1  0  0  0
 29 30  2  0  0  0
  6  2  1  0  0  0
 17 11  1  0  0  0
 30 25  1  0  0  0
  9 10  1  0  0  0
 23 24  1  0  0  0
M  END
> <minimizedAffinity>
-8.69893

> <CNNscore>
0.7289146781

> <CNNaffinity>
6.3952193260

> <CNN_VS>
4.6615691185

> <CNNaffinity_variance>
0.3984571099

$$$$
[H]O[C@@]([H])(c1c([H])c([H])c([H])c([H])c1[H])[C@@]1([H])N(C(=O)N([H])c2c([H])c([H])c(Cl)c(C(F)(F)F)c2[H])C([H])([H])[C@@]([H])(C([H])([H])[H])C1([H])[H]


 30 32  0  0  0  0  0  0  0  0999 V2000
    2.3899    1.9209   12.4422 C   0  0  0  0  0  0  0  0  0  0  0  0
    3.0852    2.2659   13.7174 C   0  0  0  0  0  0  0  0  0  0  0  0
    3.4886    3.7036   13.8290 C   0  0  0  0  0  0  0  0  0  0  0  0
    3.3063    4.0890   15.2962 C   0  0  0  0  0  0  0  0  0  0  0  0
    2.9435    2.8365   15.9265 N   0  0  0  0  0  0  0  0  0  0  0  0
    2.1782    2.1071   14.9379 C   0  0  0  0  0  0  0  0  0  0  0  0
    3.2620    2.3731   17.2459 C   0  0  0  0  0  0  0  0  0  0  0  0
    2.8051    1.2447   17.5291 O   0  0  0  0  0  0  0  0  0  0  0  0
    4.0252    3.1894   18.0684 N   0  0  0  0  0  0  0  0  0  0  0  0
    4.3474    4.1276   17.6785 H   0  0  0  0  0  0  0  0  0  0  0  0
    4.4183    2.8815   19.3982 C   0  0  0  0  0  0  0  0  0  0  0  0
    5.0999    1.7471   19.7417 C   0  0  0  0  0  0  0  0  0  0  0  0
    5.4586    1.5487   21.0856 C   0  0  0  0  0  0  0  0  0  0  0  0
    5.1416    2.4639   22.0597 C   0  0  0  0  0  0  0  0  0  0  0  0
    5.6200    2.1583   23.7318 Cl  0  0  0  0  0  0  0  0  0  0  0  0
    4.4516    3.6093   21.7066 C   0  0  0  0  0  0  0  0  0  0  0  0
    4.0952    3.8190   20.4069 C   0  0  0  0  0  0  0  0  0  0  0  0
    4.1123    4.5971   22.7757 C   0  0  0  0  0  0  0  0  0  0  0  0
    3.4379    4.0174   23.8101 F   0  0  0  0  0  0  0  0  0  0  0  0
    3.3701    5.6044   22.1851 F   0  0  0  0  0  0  0  0  0  0  0  0
    5.2690    5.1727   23.3009 F   0  0  0  0  0  0  0  0  0  0  0  0
    2.1225    5.0159   15.4527 C   0  0  0  0  0  0  0  0  0  0  0  0
    1.9311    5.3461   16.7943 O   0  0  0  0  0  0  0  0  0  0  0  0
    1.2389    4.7448   17.1784 H   0  0  0  0  0  0  0  0  0  0  0  0
    2.3144    6.2980   14.7371 C   0  0  0  0  0  0  0  0  0  0  0  0
    1.3977    6.7510   13.8167 C   0  0  0  0  0  0  0  0  0  0  0  0
    1.5894    7.9651   13.1456 C   0  0  0  0  0  0  0  0  0  0  0  0
    2.7100    8.7192   13.4079 C   0  0  0  0  0  0  0  0  0  0  0  0
    3.6329    8.2849   14.3203 C   0  0  0  0  0  0  0  0  0  0  0  0
    3.4209    7.0827   14.9696 C   0  0  0  0  0  0  0  0  0  0  0  0
  1  2  1  0  0  0
  2  3  1  0  0  0
  3  4  1  0  0  0
  4  5  1  0  0  0
  5  6  1  0  0  0
  5  7  1  0  0  0
  7  8  2  0  0  0
  7  9  1  0  0  0
  9 11  1  0  0  0
 11 12  2  0  0  0
 12 13  1  0  0  0
 13 14  2  0  0  0
 14 15  1  0  0  0
 14 16  1  0  0  0
 16 17  2  0  0  0
 16 18  1  0  0  0
 18 19  1  0  0  0
 18 20  1  0  0  0
 18 21  1  0  0  0
  4 22  1  0  0  0
 22 23  1  0  0  0
 22 25  1  0  0  0
 25 26  2  0  0  0
 26 27  1  0  0  0
 27 28  2  0  0  0
 28 29  1  0  0  0
 29 30  2  0  0  0
  6  2  1  0  0  0
 17 11  1  0  0  0
 30 25  1  0  0  0
  9 10  1  0  0  0
 23 24  1  0  0  0
M  END
> <minimizedAffinity>
-9.03434

> <CNNscore>
0.4586499035

> <CNNaffinity>
6.0243043900

> <CNN_VS>
2.7630467415

> <CNNaffinity_variance>
0.7886188030

$$$$
[H]O[C@@]([H])(c1c([H])c([H])c([H])c([H])c1[H])[C@@]1([H])N(C(=O)N([H])c2c([H])c([H])c(Cl)c(C(F)(F)F)c2[H])C([H])([H])[C@@]([H])(C([H])([H])[H])C1([H])[H]


 30 32  0  0  0  0  0  0  0  0999 V2000
    6.3848    9.2055   22.6829 C   0  0  0  0  0  0  0  0  0  0  0  0
    6.3872    8.1051   21.6741 C   0  0  0  0  0  0  0  0  0  0  0  0
    7.2820    6.9552   22.0196 C   0  0  0  0  0  0  0  0  0  0  0  0
    6.5697    5.6942   21.5327 C   0  0  0  0  0  0  0  0  0  0  0  0
    5.4062    6.2142   20.8444 N   0  0  0  0  0  0  0  0  0  0  0  0
    5.0286    7.4127   21.5629 C   0  0  0  0  0  0  0  0  0  0  0  0
    4.7418    5.6890   19.6870 C   0  0  0  0  0  0  0  0  0  0  0  0
    3.7467    6.3454   19.3116 O   0  0  0  0  0  0  0  0  0  0  0  0
    5.2437    4.5354   19.1017 N   0  0  0  0  0  0  0  0  0  0  0  0
    6.1092    4.0917   19.5376 H   0  0  0  0  0  0  0  0  0  0  0  0
    4.6992    3.8870   17.9610 C   0  0  0  0  0  0  0  0  0  0  0  0
    4.7289    4.4199   16.7023 C   0  0  0  0  0  0  0  0  0  0  0  0
    4.1787    3.6853   15.6385 C   0  0  0  0  0  0  0  0  0  0  0  0
    3.6129    2.4486   15.8322 C   0  0  0  0  0  0  0  0  0  0  0  0
    2.9376    1.5737   14.4550 Cl  0  0  0  0  0  0  0  0  0  0  0  0
    3.5851    1.9147   17.1076 C   0  0  0  0  0  0  0  0  0  0  0  0
    4.1147    2.6133   18.1526 C   0  0  0  0  0  0  0  0  0  0  0  0
    2.9665    0.5686   17.3053 C   0  0  0  0  0  0  0  0  0  0  0  0
    3.5791   -0.3896   16.5520 F   0  0  0  0  0  0  0  0  0  0  0  0
    1.6240    0.6821   16.9908 F   0  0  0  0  0  0  0  0  0  0  0  0
    3.0592    0.1741   18.6398 F   0  0  0  0  0  0  0  0  0  0  0  0
    6.0599    4.8918   22.7079 C   0  0  0  0  0  0  0  0  0  0  0  0
    4.9589    5.5195   23.2906 O   0  0  0  0  0  0  0  0  0  0  0  0
    5.2686    6.0578   24.0668 H   0  0  0  0  0  0  0  0  0  0  0  0
    5.6002    3.5418   22.3092 C   0  0  0  0  0  0  0  0  0  0  0  0
    4.2797    3.1715   22.4185 C   0  0  0  0  0  0  0  0  0  0  0  0
    3.8560    1.8918   22.0386 C   0  0  0  0  0  0  0  0  0  0  0  0
    4.7709    0.9887   21.5482 C   0  0  0  0  0  0  0  0  0  0  0  0
    6.0887    1.3391   21.4322 C   0  0  0  0  0  0  0  0  0  0  0  0
    6.4821    2.6084   21.8141 C   0  0  0  0  0  0  0  0  0  0  0  0
  1  2  1  0  0  0
  2  3  1  0  0  0
  3  4  1  0  0  0
  4  5  1  0  0  0
  5  6  1  0  0  0
  5  7  1  0  0  0
  7  8  2  0  0  0
  7  9  1  0  0  0
  9 11  1  0  0  0
 11 12  2  0  0  0
 12 13  1  0  0  0
 13 14  2  0  0  0
 14 15  1  0  0  0
 14 16  1  0  0  0
 16 17  2  0  0  0
 16 18  1  0  0  0
 18 19  1  0  0  0
 18 20  1  0  0  0
 18 21  1  0  0  0
  4 22  1  0  0  0
 22 23  1  0  0  0
 22 25  1  0  0  0
 25 26  2  0  0  0
 26 27  1  0  0  0
 27 28  2  0  0  0
 28 29  1  0  0  0
 29 30  2  0  0  0
  6  2  1  0  0  0
 17 11  1  0  0  0
 30 25  1  0  0  0
  9 10  1  0  0  0
 23 24  1  0  0  0
M  END
> <minimizedAffinity>
-9.51070

> <CNNscore>
0.4492012560

> <CNNaffinity>
6.2422633171

> <CNN_VS>
2.8040325642

> <CNNaffinity_variance>
0.1180216819

$$$$
[H]O[C@@]([H])(c1c([H])c([H])c([H])c([H])c1[H])[C@@]1([H])N(C(=O)N([H])c2c([H])c([H])c(Cl)c(C(F)(F)F)c2[H])C([H])([H])[C@@]([H])(C([H])([H])[H])C1([H])[H]


 30 32  0  0  0  0  0  0  0  0999 V2000
   -0.3790    0.4435    8.6736 C   0  0  0  0  0  0  0  0  0  0  0  0
    0.5430    0.5090    9.8458 C   0  0  0  0  0  0  0  0  0  0  0  0
    1.9948    0.4058    9.4936 C   0  0  0  0  0  0  0  0  0  0  0  0
    2.7384    1.3279   10.4586 C   0  0  0  0  0  0  0  0  0  0  0  0
    1.6954    1.7814   11.3555 N   0  0  0  0  0  0  0  0  0  0  0  0
    0.4950    1.8647   10.5509 C   0  0  0  0  0  0  0  0  0  0  0  0
    1.7875    2.0864   12.7538 C   0  0  0  0  0  0  0  0  0  0  0  0
    0.7191    2.4689   13.2777 O   0  0  0  0  0  0  0  0  0  0  0  0
    3.0138    1.9357   13.3853 N   0  0  0  0  0  0  0  0  0  0  0  0
    3.8362    1.5924   12.8007 H   0  0  0  0  0  0  0  0  0  0  0  0
    3.2719    2.2021   14.7565 C   0  0  0  0  0  0  0  0  0  0  0  0
    3.7513    3.3966   15.2175 C   0  0  0  0  0  0  0  0  0  0  0  0
    3.9530    3.5624   16.5981 C   0  0  0  0  0  0  0  0  0  0  0  0
    3.6816    2.5561   17.4929 C   0  0  0  0  0  0  0  0  0  0  0  0
    3.9558    2.8249   19.2165 Cl  0  0  0  0  0  0  0  0  0  0  0  0
    3.1974    1.3497   17.0209 C   0  0  0  0  0  0  0  0  0  0  0  0
    2.9951    1.1706   15.6840 C   0  0  0  0  0  0  0  0  0  0  0  0
    2.9062    0.2627   18.0045 C   0  0  0  0  0  0  0  0  0  0  0  0
    3.7524    0.3027   19.0738 F   0  0  0  0  0  0  0  0  0  0  0  0
    2.9978   -0.9405   17.3277 F   0  0  0  0  0  0  0  0  0  0  0  0
    1.6060    0.3769   18.4957 F   0  0  0  0  0  0  0  0  0  0  0  0
    3.2492    2.5495    9.7293 C   0  0  0  0  0  0  0  0  0  0  0  0
    3.2476    3.6611   10.5720 O   0  0  0  0  0  0  0  0  0  0  0  0
    2.4146    4.1810   10.4175 H   0  0  0  0  0  0  0  0  0  0  0  0
    4.6469    2.3850    9.2685 C   0  0  0  0  0  0  0  0  0  0  0  0
    5.5928    3.3610    9.4814 C   0  0  0  0  0  0  0  0  0  0  0  0
    6.9118    3.1949    9.0410 C   0  0  0  0  0  0  0  0  0  0  0  0
    7.2710    2.0398    8.3854 C   0  0  0  0  0  0  0  0  0  0  0  0
    6.3438    1.0578    8.1646 C   0  0  0  0  0  0  0  0  0  0  0  0
    5.0481    1.2456    8.6090 C   0  0  0  0  0  0  0  0  0  0  0  0
  1  2  1  0  0  0
  2  3  1  0  0  0
  3  4  1  0  0  0
  4  5  1  0  0  0
  5  6  1  0  0  0
  5  7  1  0  0  0
  7  8  2  0  0  0
  7  9  1  0  0  0
  9 11  1  0  0  0
 11 12  2  0  0  0
 12 13  1  0  0  0
 13 14  2  0  0  0
 14 15  1  0  0  0
 14 16  1  0  0  0
 16 17  2  0  0  0
 16 18  1  0  0  0
 18 19  1  0  0  0
 18 20  1  0  0  0
 18 21  1  0  0  0
  4 22  1  0  0  0
 22 23  1  0  0  0
 22 25  1  0  0  0
 25 26  2  0  0  0
 26 27  1  0  0  0
 27 28  2  0  0  0
 28 29  1  0  0  0
 29 30  2  0  0  0
  6  2  1  0  0  0
 17 11  1  0  0  0
 30 25  1  0  0  0
  9 10  1  0  0  0
 23 24  1  0  0  0
M  END
> <minimizedAffinity>
-6.81547

> <CNNscore>
0.3763478398

> <CNNaffinity>
5.5441541672

> <CNN_VS>
2.0865304470

> <CNNaffinity_variance>
0.1278743595

$$$$
[H]O[C@@]([H])(c1c([H])c([H])c([H])c([H])c1[H])[C@@]1([H])N(C(=O)N([H])c2c([H])c([H])c(Cl)c(C(F)(F)F)c2[H])C([H])([H])[C@@]([H])(C([H])([H])[H])C1([H])[H]


 30 32  0  0  0  0  0  0  0  0999 V2000
    3.7300    5.7925   16.5354 C   0  0  0  0  0  0  0  0  0  0  0  0
    4.5783    5.3330   17.6746 C   0  0  0  0  0  0  0  0  0  0  0  0
    5.2738    6.4374   18.4088 C   0  0  0  0  0  0  0  0  0  0  0  0
    5.2890    6.0321   19.8818 C   0  0  0  0  0  0  0  0  0  0  0  0
    4.7288    4.6965   19.8650 N   0  0  0  0  0  0  0  0  0  0  0  0
    3.7561    4.6925   18.7931 C   0  0  0  0  0  0  0  0  0  0  0  0
    5.0481    3.5812   20.7084 C   0  0  0  0  0  0  0  0  0  0  0  0
    4.3943    2.5424   20.4726 O   0  0  0  0  0  0  0  0  0  0  0  0
    6.0234    3.7447   21.6816 N   0  0  0  0  0  0  0  0  0  0  0  0
    6.4987    4.6958   21.7557 H   0  0  0  0  0  0  0  0  0  0  0  0
    6.4480    2.7454   22.5976 C   0  0  0  0  0  0  0  0  0  0  0  0
    6.5548    2.9511   23.9451 C   0  0  0  0  0  0  0  0  0  0  0  0
    6.9657    1.8874   24.7659 C   0  0  0  0  0  0  0  0  0  0  0  0
    7.2624    0.6498   24.2488 C   0  0  0  0  0  0  0  0  0  0  0  0
    7.7738   -0.6477   25.3319 Cl  0  0  0  0  0  0  0  0  0  0  0  0
    7.1532    0.4476   22.8850 C   0  0  0  0  0  0  0  0  0  0  0  0
    6.7555    1.4684   22.0726 C   0  0  0  0  0  0  0  0  0  0  0  0
    7.4791   -0.9032   22.3347 C   0  0  0  0  0  0  0  0  0  0  0  0
    7.7014   -0.8655   20.9893 F   0  0  0  0  0  0  0  0  0  0  0  0
    6.4264   -1.7426   22.6533 F   0  0  0  0  0  0  0  0  0  0  0  0
    8.6290   -1.4161   22.9343 F   0  0  0  0  0  0  0  0  0  0  0  0
    4.3348    6.8961   20.6742 C   0  0  0  0  0  0  0  0  0  0  0  0
    4.2232    8.1612   20.0974 O   0  0  0  0  0  0  0  0  0  0  0  0
    4.8394    8.7845   20.5664 H   0  0  0  0  0  0  0  0  0  0  0  0
    2.9643    6.3363   20.7060 C   0  0  0  0  0  0  0  0  0  0  0  0
    2.2423    6.1389   19.5517 C   0  0  0  0  0  0  0  0  0  0  0  0
    0.9466    5.6088   19.5934 C   0  0  0  0  0  0  0  0  0  0  0  0
    0.3840    5.2794   20.8050 C   0  0  0  0  0  0  0  0  0  0  0  0
    1.0869    5.4686   21.9638 C   0  0  0  0  0  0  0  0  0  0  0  0
    2.3643    5.9935   21.8962 C   0  0  0  0  0  0  0  0  0  0  0  0
  1  2  1  0  0  0
  2  3  1  0  0  0
  3  4  1  0  0  0
  4  5  1  0  0  0
  5  6  1  0  0  0
  5  7  1  0  0  0
  7  8  2  0  0  0
  7  9  1  0  0  0
  9 11  1  0  0  0
 11 12  2  0  0  0
 12 13  1  0  0  0
 13 14  2  0  0  0
 14 15  1  0  0  0
 14 16  1  0  0  0
 16 17  2  0  0  0
 16 18  1  0  0  0
 18 19  1  0  0  0
 18 20  1  0  0  0
 18 21  1  0  0  0
  4 22  1  0  0  0
 22 23  1  0  0  0
 22 25  1  0  0  0
 25 26  2  0  0  0
 26 27  1  0  0  0
 27 28  2  0  0  0
 28 29  1  0  0  0
 29 30  2  0  0  0
  6  2  1  0  0  0
 17 11  1  0  0  0
 30 25  1  0  0  0
  9 10  1  0  0  0
 23 24  1  0  0  0
M  END
> <minimizedAffinity>
32.63618

> <CNNscore>
0.3744849265

> <CNNaffinity>
5.3502779007

> <CNN_VS>
2.0035984516

> <CNNaffinity_variance>
0.9383123517

$$$$
[H]O[C@@]([H])(c1c([H])c([H])c([H])c([H])c1[H])[C@@]1([H])N(C(=O)N([H])c2c([H])c([H])c(Cl)c(C(F)(F)F)c2[H])C([H])([H])[C@@]([H])(C([H])([H])[H])C1([H])[H]


 30 32  0  0  0  0  0  0  0  0999 V2000
    0.0269    5.2942   11.9721 C   0  0  0  0  0  0  0  0  0  0  0  0
    1.1512    5.0333   12.9190 C   0  0  0  0  0  0  0  0  0  0  0  0
    2.4823    5.5299   12.4459 C   0  0  0  0  0  0  0  0  0  0  0  0
    3.2221    6.0269   13.6868 C   0  0  0  0  0  0  0  0  0  0  0  0
    2.3316    5.6675   14.7712 N   0  0  0  0  0  0  0  0  0  0  0  0
    0.9923    5.7925   14.2366 C   0  0  0  0  0  0  0  0  0  0  0  0
    2.6647    5.2596   16.1052 C   0  0  0  0  0  0  0  0  0  0  0  0
    1.6825    5.0173   16.8392 O   0  0  0  0  0  0  0  0  0  0  0  0
    4.0043    5.1712   16.4558 N   0  0  0  0  0  0  0  0  0  0  0  0
    4.7304    5.4063   15.7118 H   0  0  0  0  0  0  0  0  0  0  0  0
    4.4978    4.7915   17.7326 C   0  0  0  0  0  0  0  0  0  0  0  0
    5.1645    5.6428   18.5693 C   0  0  0  0  0  0  0  0  0  0  0  0
    5.5935    5.1703   19.8210 C   0  0  0  0  0  0  0  0  0  0  0  0
    5.3605    3.8775   20.2228 C   0  0  0  0  0  0  0  0  0  0  0  0
    5.9246    3.3424   21.8083 Cl  0  0  0  0  0  0  0  0  0  0  0  0
    4.6862    3.0206   19.3721 C   0  0  0  0  0  0  0  0  0  0  0  0
    4.2619    3.4617   18.1532 C   0  0  0  0  0  0  0  0  0  0  0  0
    4.4391    1.6165   19.8208 C   0  0  0  0  0  0  0  0  0  0  0  0
    3.9489    0.8382   18.8134 F   0  0  0  0  0  0  0  0  0  0  0  0
    3.5644    1.6741   20.8912 F   0  0  0  0  0  0  0  0  0  0  0  0
    5.6209    1.0263   20.2680 F   0  0  0  0  0  0  0  0  0  0  0  0
    3.3109    7.5359   13.6763 C   0  0  0  0  0  0  0  0  0  0  0  0
    2.7972    8.0665   14.8596 O   0  0  0  0  0  0  0  0  0  0  0  0
    1.8520    8.3347   14.7086 H   0  0  0  0  0  0  0  0  0  0  0  0
    4.7088    8.0157   13.5833 C   0  0  0  0  0  0  0  0  0  0  0  0
    5.3349    8.1724   12.3683 C   0  0  0  0  0  0  0  0  0  0  0  0
    6.6574    8.6268   12.2921 C   0  0  0  0  0  0  0  0  0  0  0  0
    7.3441    8.9220   13.4473 C   0  0  0  0  0  0  0  0  0  0  0  0
    6.7378    8.7723   14.6650 C   0  0  0  0  0  0  0  0  0  0  0  0
    5.4315    8.3221   14.7137 C   0  0  0  0  0  0  0  0  0  0  0  0
  1  2  1  0  0  0
  2  3  1  0  0  0
  3  4  1  0  0  0
  4  5  1  0  0  0
  5  6  1  0  0  0
  5  7  1  0  0  0
  7  8  2  0  0  0
  7  9  1  0  0  0
  9 11  1  0  0  0
 11 12  2  0  0  0
 12 13  1  0  0  0
 13 14  2  0  0  0
 14 15  1  0  0  0
 14 16  1  0  0  0
 16 17  2  0  0  0
 16 18  1  0  0  0
 18 19  1  0  0  0
 18 20  1  0  0  0
 18 21  1  0  0  0
  4 22  1  0  0  0
 22 23  1  0  0  0
 22 25  1  0  0  0
 25 26  2  0  0  0
 26 27  1  0  0  0
 27 28  2  0  0  0
 28 29  1  0  0  0
 29 30  2  0  0  0
  6  2  1  0  0  0
 17 11  1  0  0  0
 30 25  1  0  0  0
  9 10  1  0  0  0
 23 24  1  0  0  0
M  END
> <minimizedAffinity>
-7.40404

> <CNNscore>
0.3603159189

> <CNNaffinity>
5.5415697098

> <CNN_VS>
1.9967157841

> <CNNaffinity_variance>
0.6497855783

$$$$
[H]O[C@@]([H])(c1c([H])c([H])c([H])c([H])c1[H])[C@@]1([H])N(C(=O)N([H])c2c([H])c([H])c(Cl)c(C(F)(F)F)c2[H])C([H])([H])[C@@]([H])(C([H])([H])[H])C1([H])[H]


 30 32  0  0  0  0  0  0  0  0999 V2000
    0.0692    2.5912    8.2150 C   0  0  0  0  0  0  0  0  0  0  0  0
    0.9114    2.9501    9.3941 C   0  0  0  0  0  0  0  0  0  0  0  0
    1.7406    4.1827    9.2060 C   0  0  0  0  0  0  0  0  0  0  0  0
    1.7727    4.8905   10.5596 C   0  0  0  0  0  0  0  0  0  0  0  0
    1.0829    3.9655   11.4351 N   0  0  0  0  0  0  0  0  0  0  0  0
    0.0738    3.3285   10.6159 C   0  0  0  0  0  0  0  0  0  0  0  0
    1.3227    3.6994   12.8238 C   0  0  0  0  0  0  0  0  0  0  0  0
    0.5607    2.8497   13.3333 O   0  0  0  0  0  0  0  0  0  0  0  0
    2.3464    4.3846   13.4624 N   0  0  0  0  0  0  0  0  0  0  0  0
    2.9160    5.0782   12.8874 H   0  0  0  0  0  0  0  0  0  0  0  0
    2.7053    4.2417   14.8294 C   0  0  0  0  0  0  0  0  0  0  0  0
    2.7515    5.2849   15.7120 C   0  0  0  0  0  0  0  0  0  0  0  0
    3.0999    5.0307   17.0492 C   0  0  0  0  0  0  0  0  0  0  0  0
    3.3948    3.7634   17.4896 C   0  0  0  0  0  0  0  0  0  0  0  0
    3.8259    3.5073   19.1827 Cl  0  0  0  0  0  0  0  0  0  0  0  0
    3.3470    2.7121   16.5924 C   0  0  0  0  0  0  0  0  0  0  0  0
    3.0105    2.9397   15.2903 C   0  0  0  0  0  0  0  0  0  0  0  0
    3.6702    1.3381   17.0838 C   0  0  0  0  0  0  0  0  0  0  0  0
    4.9497    1.2509   17.5487 F   0  0  0  0  0  0  0  0  0  0  0  0
    3.4489    0.4630   16.0352 F   0  0  0  0  0  0  0  0  0  0  0  0
    2.8202    0.9748   18.1280 F   0  0  0  0  0  0  0  0  0  0  0  0
    0.9401    6.1513   10.5130 C   0  0  0  0  0  0  0  0  0  0  0  0
    1.0982    6.8881   11.6868 O   0  0  0  0  0  0  0  0  0  0  0  0
    0.3504    6.6729   12.3053 H   0  0  0  0  0  0  0  0  0  0  0  0
    1.3423    7.0494    9.4064 C   0  0  0  0  0  0  0  0  0  0  0  0
    0.6169    7.1208    8.2396 C   0  0  0  0  0  0  0  0  0  0  0  0
    1.0065    7.9737    7.1994 C   0  0  0  0  0  0  0  0  0  0  0  0
    2.1310    8.7535    7.3427 C   0  0  0  0  0  0  0  0  0  0  0  0
    2.8653    8.6961    8.4961 C   0  0  0  0  0  0  0  0  0  0  0  0
    2.4599    7.8461    9.5084 C   0  0  0  0  0  0  0  0  0  0  0  0
  1  2  1  0  0  0
  2  3  1  0  0  0
  3  4  1  0  0  0
  4  5  1  0  0  0
  5  6  1  0  0  0
  5  7  1  0  0  0
  7  8  2  0  0  0
  7  9  1  0  0  0
  9 11  1  0  0  0
 11 12  2  0  0  0
 12 13  1  0  0  0
 13 14  2  0  0  0
 14 15  1  0  0  0
 14 16  1  0  0  0
 16 17  2  0  0  0
 16 18  1  0  0  0
 18 19  1  0  0  0
 18 20  1  0  0  0
 18 21  1  0  0  0
  4 22  1  0  0  0
 22 23  1  0  0  0
 22 25  1  0  0  0
 25 26  2  0  0  0
 26 27  1  0  0  0
 27 28  2  0  0  0
 28 29  1  0  0  0
 29 30  2  0  0  0
  6  2  1  0  0  0
 17 11  1  0  0  0
 30 25  1  0  0  0
  9 10  1  0  0  0
 23 24  1  0  0  0
M  END
> <minimizedAffinity>
-5.85522

> <CNNscore>
0.2484467924

> <CNNaffinity>
5.0833120346

> <CNN_VS>
1.2629325390

> <CNNaffinity_variance>
0.3280447125

$$$$
[H]O[C@@]([H])(c1c([H])c([H])c([H])c([H])c1[H])[C@@]1([H])N(C(=O)N([H])c2c([H])c([H])c(Cl)c(C(F)(F)F)c2[H])C([H])([H])[C@@]([H])(C([H])([H])[H])C1([H])[H]


 30 32  0  0  0  0  0  0  0  0999 V2000
    2.1366    1.6125   10.2513 C   0  0  0  0  0  0  0  0  0  0  0  0
    2.8150    1.9978   11.5241 C   0  0  0  0  0  0  0  0  0  0  0  0
    3.3610    3.3920   11.5330 C   0  0  0  0  0  0  0  0  0  0  0  0
    3.1641    3.9222   12.9523 C   0  0  0  0  0  0  0  0  0  0  0  0
    2.6495    2.7731   13.6682 N   0  0  0  0  0  0  0  0  0  0  0  0
    1.8507    2.0394   12.7098 C   0  0  0  0  0  0  0  0  0  0  0  0
    2.8677    2.3989   15.0354 C   0  0  0  0  0  0  0  0  0  0  0  0
    2.2856    1.3515   15.3909 O   0  0  0  0  0  0  0  0  0  0  0  0
    3.6797    3.2043   15.8211 N   0  0  0  0  0  0  0  0  0  0  0  0
    4.1123    4.0672   15.3691 H   0  0  0  0  0  0  0  0  0  0  0  0
    3.9879    2.9775   17.1891 C   0  0  0  0  0  0  0  0  0  0  0  0
    4.2615    1.7425   17.7079 C   0  0  0  0  0  0  0  0  0  0  0  0
    4.5743    1.6312   19.0731 C   0  0  0  0  0  0  0  0  0  0  0  0
    4.6112    2.7300   19.8967 C   0  0  0  0  0  0  0  0  0  0  0  0
    5.0109    2.5261   21.6046 Cl  0  0  0  0  0  0  0  0  0  0  0  0
    4.3330    3.9768   19.3667 C   0  0  0  0  0  0  0  0  0  0  0  0
    4.0276    4.1041   18.0435 C   0  0  0  0  0  0  0  0  0  0  0  0
    4.3762    5.1643   20.2732 C   0  0  0  0  0  0  0  0  0  0  0  0
    5.6268    5.3778   20.7745 F   0  0  0  0  0  0  0  0  0  0  0  0
    3.4540    4.9464   21.2814 F   0  0  0  0  0  0  0  0  0  0  0  0
    3.9961    6.3198   19.5911 F   0  0  0  0  0  0  0  0  0  0  0  0
    2.0779    4.9732   12.9745 C   0  0  0  0  0  0  0  0  0  0  0  0
    1.2003    4.7503   14.0355 O   0  0  0  0  0  0  0  0  0  0  0  0
    0.4107    4.2481   13.7003 H   0  0  0  0  0  0  0  0  0  0  0  0
    2.6201    6.3374   13.1691 C   0  0  0  0  0  0  0  0  0  0  0  0
    3.9064    6.6582   12.8011 C   0  0  0  0  0  0  0  0  0  0  0  0
    4.4089    7.9517   12.9898 C   0  0  0  0  0  0  0  0  0  0  0  0
    3.6074    8.9189   13.5513 C   0  0  0  0  0  0  0  0  0  0  0  0
    2.3253    8.6185   13.9236 C   0  0  0  0  0  0  0  0  0  0  0  0
    1.8524    7.3342   13.7269 C   0  0  0  0  0  0  0  0  0  0  0  0
  1  2  1  0  0  0
  2  3  1  0  0  0
  3  4  1  0  0  0
  4  5  1  0  0  0
  5  6  1  0  0  0
  5  7  1  0  0  0
  7  8  2  0  0  0
  7  9  1  0  0  0
  9 11  1  0  0  0
 11 12  2  0  0  0
 12 13  1  0  0  0
 13 14  2  0  0  0
 14 15  1  0  0  0
 14 16  1  0  0  0
 16 17  2  0  0  0
 16 18  1  0  0  0
 18 19  1  0  0  0
 18 20  1  0  0  0
 18 21  1  0  0  0
  4 22  1  0  0  0
 22 23  1  0  0  0
 22 25  1  0  0  0
 25 26  2  0  0  0
 26 27  1  0  0  0
 27 28  2  0  0  0
 28 29  1  0  0  0
 29 30  2  0  0  0
  6  2  1  0  0  0
 17 11  1  0  0  0
 30 25  1  0  0  0
  9 10  1  0  0  0
 23 24  1  0  0  0
M  END
> <minimizedAffinity>
-7.38979

> <CNNscore>
0.2342760414

> <CNNaffinity>
5.4632782936

> <CNN_VS>
1.2799152136

> <CNNaffinity_variance>
0.9621148109

$$$$
[H]O[C@@]([H])(c1c([H])c([H])c([H])c([H])c1[H])[C@@]1([H])N(C(=O)N([H])c2c([H])c([H])c(Cl)c(C(F)(F)F)c2[H])C([H])([H])[C@@]([H])(C([H])([H])[H])C1([H])[H]


 30 32  0  0  0  0  0  0  0  0999 V2000
    3.7734    7.5813   10.7867 C   0  0  0  0  0  0  0  0  0  0  0  0
    3.5667    7.9938   12.2064 C   0  0  0  0  0  0  0  0  0  0  0  0
    2.1361    7.9826   12.6487 C   0  0  0  0  0  0  0  0  0  0  0  0
    2.1396    7.5216   14.1053 C   0  0  0  0  0  0  0  0  0  0  0  0
    3.5501    7.4292   14.4215 N   0  0  0  0  0  0  0  0  0  0  0  0
    4.2005    7.0161   13.1963 C   0  0  0  0  0  0  0  0  0  0  0  0
    4.2067    7.6913   15.6694 C   0  0  0  0  0  0  0  0  0  0  0  0
    5.4446    7.5195   15.6559 O   0  0  0  0  0  0  0  0  0  0  0  0
    3.4376    8.1001   16.7495 N   0  0  0  0  0  0  0  0  0  0  0  0
    2.3876    8.2073   16.6011 H   0  0  0  0  0  0  0  0  0  0  0  0
    3.9320    8.3908   18.0491 C   0  0  0  0  0  0  0  0  0  0  0  0
    4.1095    9.6605   18.5240 C   0  0  0  0  0  0  0  0  0  0  0  0
    4.5862    9.8374   19.8338 C   0  0  0  0  0  0  0  0  0  0  0  0
    4.8778    8.7686   20.6460 C   0  0  0  0  0  0  0  0  0  0  0  0
    5.4739    9.0551   22.2833 Cl  0  0  0  0  0  0  0  0  0  0  0  0
    4.6968    7.4864   20.1602 C   0  0  0  0  0  0  0  0  0  0  0  0
    4.2346    7.2954   18.8913 C   0  0  0  0  0  0  0  0  0  0  0  0
    5.0179    6.3320   21.0535 C   0  0  0  0  0  0  0  0  0  0  0  0
    4.2427    6.3249   22.1759 F   0  0  0  0  0  0  0  0  0  0  0  0
    6.3635    6.4140   21.3648 F   0  0  0  0  0  0  0  0  0  0  0  0
    4.8070    5.1225   20.3919 F   0  0  0  0  0  0  0  0  0  0  0  0
    1.5747    6.1239   14.2153 C   0  0  0  0  0  0  0  0  0  0  0  0
    1.4061    5.7660   15.5529 O   0  0  0  0  0  0  0  0  0  0  0  0
    2.1961    5.2393   15.8474 H   0  0  0  0  0  0  0  0  0  0  0  0
    0.2390    6.0068   13.5869 C   0  0  0  0  0  0  0  0  0  0  0  0
   -0.7939    6.8470   13.9334 C   0  0  0  0  0  0  0  0  0  0  0  0
   -2.0533    6.7271   13.3327 C   0  0  0  0  0  0  0  0  0  0  0  0
   -2.2647    5.7560   12.3812 C   0  0  0  0  0  0  0  0  0  0  0  0
   -1.2494    4.9110   12.0236 C   0  0  0  0  0  0  0  0  0  0  0  0
   -0.0151    5.0496   12.6312 C   0  0  0  0  0  0  0  0  0  0  0  0
  1  2  1  0  0  0
  2  3  1  0  0  0
  3  4  1  0  0  0
  4  5  1  0  0  0
  5  6  1  0  0  0
  5  7  1  0  0  0
  7  8  2  0  0  0
  7  9  1  0  0  0
  9 11  1  0  0  0
 11 12  2  0  0  0
 12 13  1  0  0  0
 13 14  2  0  0  0
 14 15  1  0  0  0
 14 16  1  0  0  0
 16 17  2  0  0  0
 16 18  1  0  0  0
 18 19  1  0  0  0
 18 20  1  0  0  0
 18 21  1  0  0  0
  4 22  1  0  0  0
 22 23  1  0  0  0
 22 25  1  0  0  0
 25 26  2  0  0  0
 26 27  1  0  0  0
 27 28  2  0  0  0
 28 29  1  0  0  0
 29 30  2  0  0  0
  6  2  1  0  0  0
 17 11  1  0  0  0
 30 25  1  0  0  0
  9 10  1  0  0  0
 23 24  1  0  0  0
M  END
> <minimizedAffinity>
-7.98505

> <CNNscore>
0.2272661626

> <CNNaffinity>
5.1516332626

> <CNN_VS>
1.1707918644

> <CNNaffinity_variance>
0.4646340907

$$$$
[H]ON([H])C(=O)C([H])([H])[C@]([H])(C(=O)N([H])[C@]([H])(C(=O)N([H])O[H])C([H])([H])c1c([H])c([H])c([H])c([H])c1[H])C([H])([H])C([H])(C([H])([H])[H])C([H])([H])[H]


 30 30  0  0  0  0  0  0  0  0999 V2000
    5.3190    5.5386   19.3263 C   0  0  0  0  0  0  0  0  0  0  0  0
    6.2883    6.1033   18.7929 O   0  0  0  0  0  0  0  0  0  0  0  0
    4.3817    4.7178   18.6735 N   0  0  0  0  0  0  0  0  0  0  0  0
    3.6067    4.3407   19.3192 H   0  0  0  0  0  0  0  0  0  0  0  0
    5.1767    5.7854   20.8284 C   0  0  0  0  0  0  0  0  0  0  0  0
    3.9860    5.1271   21.4046 C   0  0  0  0  0  0  0  0  0  0  0  0
    5.6778    3.5700   22.3987 C   0  0  0  0  0  0  0  0  0  0  0  0
    4.2200    3.8478   22.1520 C   0  0  0  0  0  0  0  0  0  0  0  0
    3.5913    4.0007   23.5478 C   0  0  0  0  0  0  0  0  0  0  0  0
    5.0537    7.2842   20.9835 C   0  0  0  0  0  0  0  0  0  0  0  0
    5.7556    7.8407   22.1351 C   0  0  0  0  0  0  0  0  0  0  0  0
    6.7146    7.2578   22.7013 O   0  0  0  0  0  0  0  0  0  0  0  0
    5.3357    9.0949   22.6363 N   0  0  0  0  0  0  0  0  0  0  0  0
    5.9640    9.6290   23.6943 O   0  0  0  0  0  0  0  0  0  0  0  0
    4.5483    9.5880   22.1821 H   0  0  0  0  0  0  0  0  0  0  0  0
    5.3395    9.6924   24.4650 H   0  0  0  0  0  0  0  0  0  0  0  0
    4.2990    4.3249   17.3211 C   0  0  0  0  0  0  0  0  0  0  0  0
    3.0217    4.6101   16.6531 C   0  0  0  0  0  0  0  0  0  0  0  0
    1.9929    4.9676   17.2558 O   0  0  0  0  0  0  0  0  0  0  0  0
    2.8973    4.4884   15.2298 N   0  0  0  0  0  0  0  0  0  0  0  0
    1.7575    4.7363   14.5750 O   0  0  0  0  0  0  0  0  0  0  0  0
    3.7177    4.2025   14.6779 H   0  0  0  0  0  0  0  0  0  0  0  0
    1.7911    5.5322   13.9929 H   0  0  0  0  0  0  0  0  0  0  0  0
    4.8486    2.9518   17.0402 C   0  0  0  0  0  0  0  0  0  0  0  0
    4.0553    1.8341   17.5416 C   0  0  0  0  0  0  0  0  0  0  0  0
    4.0977    1.5655   18.9001 C   0  0  0  0  0  0  0  0  0  0  0  0
    3.3860    0.5272   19.4508 C   0  0  0  0  0  0  0  0  0  0  0  0
    2.6126   -0.2692   18.6531 C   0  0  0  0  0  0  0  0  0  0  0  0
    2.5695   -0.0062   17.3144 C   0  0  0  0  0  0  0  0  0  0  0  0
    3.2864    1.0467   16.7291 C   0  0  0  0  0  0  0  0  0  0  0  0
  7  8  1  0  0  0
  8  9  1  0  0  0
  8  6  1  0  0  0
  6  5  1  0  0  0
  5 10  1  0  0  0
 10 11  1  0  0  0
 11 12  2  0  0  0
 11 13  1  0  0  0
 13 14  1  0  0  0
  5  1  1  0  0  0
  1  2  2  0  0  0
  1  3  1  0  0  0
  3 17  1  0  0  0
 17 24  1  0  0  0
 24 25  1  0  0  0
 25 26  2  0  0  0
 26 27  1  0  0  0
 27 28  2  0  0  0
 28 29  1  0  0  0
 29 30  2  0  0  0
 17 18  1  0  0  0
 18 19  2  0  0  0
 18 20  1  0  0  0
 20 21  1  0  0  0
 30 25  1  0  0  0
 13 15  1  0  0  0
 14 16  1  0  0  0
  3  4  1  0  0  0
 20 22  1  0  0  0
 21 23  1  0  0  0
M  END
> <minimizedAffinity>
-7.55566

> <CNNscore>
0.3315164447

> <CNNaffinity>
5.5393691063

> <CNN_VS>
1.8363919258

> <CNNaffinity_variance>
0.1163416877

$$$$
[H]ON([H])C(=O)C([H])([H])[C@]([H])(C(=O)N([H])[C@]([H])(C(=O)N([H])O[H])C([H])([H])c1c([H])c([H])c([H])c([H])c1[H])C([H])([H])C([H])(C([H])([H])[H])C([H])([H])[H]


 30 30  0  0  0  0  0  0  0  0999 V2000
    2.9575    4.6190   17.2919 C   0  0  0  0  0  0  0  0  0  0  0  0
    1.8094    4.9489   17.6326 O   0  0  0  0  0  0  0  0  0  0  0  0
    4.0624    4.4740   18.1502 N   0  0  0  0  0  0  0  0  0  0  0  0
    4.9732    4.1974   17.6468 H   0  0  0  0  0  0  0  0  0  0  0  0
    3.1342    4.3541   15.7966 C   0  0  0  0  0  0  0  0  0  0  0  0
    3.9771    3.1721   15.5221 C   0  0  0  0  0  0  0  0  0  0  0  0
    2.7987    1.0703   16.2067 C   0  0  0  0  0  0  0  0  0  0  0  0
    3.2682    1.9314   15.0660 C   0  0  0  0  0  0  0  0  0  0  0  0
    1.9894    2.3679   14.3305 C   0  0  0  0  0  0  0  0  0  0  0  0
    3.7995    5.5928   15.2410 C   0  0  0  0  0  0  0  0  0  0  0  0
    2.8922    6.5440   14.6080 C   0  0  0  0  0  0  0  0  0  0  0  0
    2.1274    6.2354   13.6594 O   0  0  0  0  0  0  0  0  0  0  0  0
    2.8742    7.8753   15.0855 N   0  0  0  0  0  0  0  0  0  0  0  0
    2.0494    8.7699   14.5210 O   0  0  0  0  0  0  0  0  0  0  0  0
    3.4970    8.1460   15.8654 H   0  0  0  0  0  0  0  0  0  0  0  0
    2.5763    9.4844   14.0739 H   0  0  0  0  0  0  0  0  0  0  0  0
    4.1595    4.6402   19.5477 C   0  0  0  0  0  0  0  0  0  0  0  0
    4.3744    6.0181   20.0107 C   0  0  0  0  0  0  0  0  0  0  0  0
    4.7225    6.9506   19.2632 O   0  0  0  0  0  0  0  0  0  0  0  0
    4.1844    6.3647   21.3891 N   0  0  0  0  0  0  0  0  0  0  0  0
    4.3671    7.6034   21.8600 O   0  0  0  0  0  0  0  0  0  0  0  0
    3.8898    5.6354   22.0530 H   0  0  0  0  0  0  0  0  0  0  0  0
    3.5390    8.0467   22.1621 H   0  0  0  0  0  0  0  0  0  0  0  0
    5.0243    3.6171   20.2346 C   0  0  0  0  0  0  0  0  0  0  0  0
    4.3386    2.4184   20.7068 C   0  0  0  0  0  0  0  0  0  0  0  0
    4.0641    1.4215   19.7846 C   0  0  0  0  0  0  0  0  0  0  0  0
    3.4156    0.2654   20.1465 C   0  0  0  0  0  0  0  0  0  0  0  0
    3.0255    0.0787   21.4432 C   0  0  0  0  0  0  0  0  0  0  0  0
    3.2950    1.0596   22.3532 C   0  0  0  0  0  0  0  0  0  0  0  0
    3.9549    2.2475   22.0087 C   0  0  0  0  0  0  0  0  0  0  0  0
  7  8  1  0  0  0
  8  9  1  0  0  0
  8  6  1  0  0  0
  6  5  1  0  0  0
  5 10  1  0  0  0
 10 11  1  0  0  0
 11 12  2  0  0  0
 11 13  1  0  0  0
 13 14  1  0  0  0
  5  1  1  0  0  0
  1  2  2  0  0  0
  1  3  1  0  0  0
  3 17  1  0  0  0
 17 24  1  0  0  0
 24 25  1  0  0  0
 25 26  2  0  0  0
 26 27  1  0  0  0
 27 28  2  0  0  0
 28 29  1  0  0  0
 29 30  2  0  0  0
 17 18  1  0  0  0
 18 19  2  0  0  0
 18 20  1  0  0  0
 20 21  1  0  0  0
 30 25  1  0  0  0
 13 15  1  0  0  0
 14 16  1  0  0  0
  3  4  1  0  0  0
 20 22  1  0  0  0
 21 23  1  0  0  0
M  END
> <minimizedAffinity>
-8.02267

> <CNNscore>
0.3131012917

> <CNNaffinity>
5.7152462006

> <CNN_VS>
1.7894510031

> <CNNaffinity_variance>
0.1283362955

$$$$
[H]ON([H])C(=O)C([H])([H])[C@]([H])(C(=O)N([H])[C@]([H])(C(=O)N([H])O[H])C([H])([H])c1c([H])c([H])c([H])c([H])c1[H])C([H])([H])C([H])(C([H])([H])[H])C([H])([H])[H]


 30 30  0  0  0  0  0  0  0  0999 V2000
    4.0604    5.2216   19.0541 C   0  0  0  0  0  0  0  0  0  0  0  0
    2.9635    5.7522   19.2957 O   0  0  0  0  0  0  0  0  0  0  0  0
    5.0416    4.8875   20.0049 N   0  0  0  0  0  0  0  0  0  0  0  0
    5.9298    4.4506   19.5809 H   0  0  0  0  0  0  0  0  0  0  0  0
    4.3190    4.9213   17.5775 C   0  0  0  0  0  0  0  0  0  0  0  0
    5.3150    3.8481   17.3794 C   0  0  0  0  0  0  0  0  0  0  0  0
    4.1417    1.7369   18.0438 C   0  0  0  0  0  0  0  0  0  0  0  0
    4.7893    2.5164   16.9319 C   0  0  0  0  0  0  0  0  0  0  0  0
    3.6696    2.7761   15.9092 C   0  0  0  0  0  0  0  0  0  0  0  0
    4.8382    6.2119   16.9858 C   0  0  0  0  0  0  0  0  0  0  0  0
    3.9162    6.8837   16.0763 C   0  0  0  0  0  0  0  0  0  0  0  0
    3.3410    6.2964   15.1254 O   0  0  0  0  0  0  0  0  0  0  0  0
    3.6590    8.2601   16.2755 N   0  0  0  0  0  0  0  0  0  0  0  0
    2.8153    8.9018   15.4534 O   0  0  0  0  0  0  0  0  0  0  0  0
    4.1239    8.7586   17.0533 H   0  0  0  0  0  0  0  0  0  0  0  0
    3.3045    9.5967   14.9380 H   0  0  0  0  0  0  0  0  0  0  0  0
    5.0426    5.0415   21.4072 C   0  0  0  0  0  0  0  0  0  0  0  0
    5.3272    6.3971   21.8977 C   0  0  0  0  0  0  0  0  0  0  0  0
    6.3965    6.7218   22.4460 O   0  0  0  0  0  0  0  0  0  0  0  0
    4.3563    7.4434   21.7610 N   0  0  0  0  0  0  0  0  0  0  0  0
    4.5670    8.6925   22.1909 O   0  0  0  0  0  0  0  0  0  0  0  0
    3.4554    7.2349   21.3091 H   0  0  0  0  0  0  0  0  0  0  0  0
    4.6399    9.3610   21.4689 H   0  0  0  0  0  0  0  0  0  0  0  0
    5.7694    3.9520   22.1496 C   0  0  0  0  0  0  0  0  0  0  0  0
    5.3538    2.5869   21.8431 C   0  0  0  0  0  0  0  0  0  0  0  0
    4.0304    2.2447   22.0691 C   0  0  0  0  0  0  0  0  0  0  0  0
    3.5608    0.9790   21.8136 C   0  0  0  0  0  0  0  0  0  0  0  0
    4.4064    0.0228   21.3245 C   0  0  0  0  0  0  0  0  0  0  0  0
    5.7106    0.3579   21.1012 C   0  0  0  0  0  0  0  0  0  0  0  0
    6.2134    1.6418   21.3539 C   0  0  0  0  0  0  0  0  0  0  0  0
  7  8  1  0  0  0
  8  9  1  0  0  0
  8  6  1  0  0  0
  6  5  1  0  0  0
  5 10  1  0  0  0
 10 11  1  0  0  0
 11 12  2  0  0  0
 11 13  1  0  0  0
 13 14  1  0  0  0
  5  1  1  0  0  0
  1  2  2  0  0  0
  1  3  1  0  0  0
  3 17  1  0  0  0
 17 24  1  0  0  0
 24 25  1  0  0  0
 25 26  2  0  0  0
 26 27  1  0  0  0
 27 28  2  0  0  0
 28 29  1  0  0  0
 29 30  2  0  0  0
 17 18  1  0  0  0
 18 19  2  0  0  0
 18 20  1  0  0  0
 20 21  1  0  0  0
 30 25  1  0  0  0
 13 15  1  0  0  0
 14 16  1  0  0  0
  3  4  1  0  0  0
 20 22  1  0  0  0
 21 23  1  0  0  0
M  END
> <minimizedAffinity>
-8.00834

> <CNNscore>
0.2719363272

> <CNNaffinity>
5.3589525223

> <CNN_VS>
1.4572938681

> <CNNaffinity_variance>
0.3277421892

$$$$
[H]ON([H])C(=O)C([H])([H])[C@]([H])(C(=O)N([H])[C@]([H])(C(=O)N([H])O[H])C([H])([H])c1c([H])c([H])c([H])c([H])c1[H])C([H])([H])C([H])(C([H])([H])[H])C([H])([H])[H]


 30 30  0  0  0  0  0  0  0  0999 V2000
    4.8939    4.6315   18.5027 C   0  0  0  0  0  0  0  0  0  0  0  0
    5.9233    4.9376   17.8784 O   0  0  0  0  0  0  0  0  0  0  0  0
    4.0859    3.5062   18.2587 N   0  0  0  0  0  0  0  0  0  0  0  0
    3.2274    3.4367   18.9050 H   0  0  0  0  0  0  0  0  0  0  0  0
    4.5146    5.5925   19.6296 C   0  0  0  0  0  0  0  0  0  0  0  0
    3.8968    4.9049   20.7822 C   0  0  0  0  0  0  0  0  0  0  0  0
    5.6319    5.8470   22.3240 C   0  0  0  0  0  0  0  0  0  0  0  0
    4.7782    4.6597   21.9708 C   0  0  0  0  0  0  0  0  0  0  0  0
    3.8667    4.4350   23.1897 C   0  0  0  0  0  0  0  0  0  0  0  0
    3.5225    6.5583   19.0225 C   0  0  0  0  0  0  0  0  0  0  0  0
    3.9308    7.9585   19.0567 C   0  0  0  0  0  0  0  0  0  0  0  0
    4.0444    8.6653   18.0235 O   0  0  0  0  0  0  0  0  0  0  0  0
    4.2117    8.5462   20.3122 N   0  0  0  0  0  0  0  0  0  0  0  0
    4.5892    9.8320   20.3717 O   0  0  0  0  0  0  0  0  0  0  0  0
    4.1231    7.9788   21.1722 H   0  0  0  0  0  0  0  0  0  0  0  0
    5.5206    9.8981   20.7123 H   0  0  0  0  0  0  0  0  0  0  0  0
    4.2226    2.4745   17.3064 C   0  0  0  0  0  0  0  0  0  0  0  0
    3.2848    2.5241   16.1763 C   0  0  0  0  0  0  0  0  0  0  0  0
    3.1774    3.5003   15.4114 O   0  0  0  0  0  0  0  0  0  0  0  0
    2.4238    1.4135   15.8908 N   0  0  0  0  0  0  0  0  0  0  0  0
    1.5536    1.4096   14.8749 O   0  0  0  0  0  0  0  0  0  0  0  0
    2.4734    0.5754   16.4861 H   0  0  0  0  0  0  0  0  0  0  0  0
    1.7732    0.7686   14.1577 H   0  0  0  0  0  0  0  0  0  0  0  0
    4.4003    1.1027   17.9004 C   0  0  0  0  0  0  0  0  0  0  0  0
    4.1817    0.9995   19.3398 C   0  0  0  0  0  0  0  0  0  0  0  0
    5.2300    1.3343   20.1815 C   0  0  0  0  0  0  0  0  0  0  0  0
    5.1083    1.2575   21.5479 C   0  0  0  0  0  0  0  0  0  0  0  0
    3.9315    0.8429   22.1063 C   0  0  0  0  0  0  0  0  0  0  0  0
    2.8975    0.5125   21.2788 C   0  0  0  0  0  0  0  0  0  0  0  0
    2.9972    0.5824   19.8822 C   0  0  0  0  0  0  0  0  0  0  0  0
  7  8  1  0  0  0
  8  9  1  0  0  0
  8  6  1  0  0  0
  6  5  1  0  0  0
  5 10  1  0  0  0
 10 11  1  0  0  0
 11 12  2  0  0  0
 11 13  1  0  0  0
 13 14  1  0  0  0
  5  1  1  0  0  0
  1  2  2  0  0  0
  1  3  1  0  0  0
  3 17  1  0  0  0
 17 24  1  0  0  0
 24 25  1  0  0  0
 25 26  2  0  0  0
 26 27  1  0  0  0
 27 28  2  0  0  0
 28 29  1  0  0  0
 29 30  2  0  0  0
 17 18  1  0  0  0
 18 19  2  0  0  0
 18 20  1  0  0  0
 20 21  1  0  0  0
 30 25  1  0  0  0
 13 15  1  0  0  0
 14 16  1  0  0  0
  3  4  1  0  0  0
 20 22  1  0  0  0
 21 23  1  0  0  0
M  END
> <minimizedAffinity>
-7.24561

> <CNNscore>
0.2511526942

> <CNNaffinity>
5.2450561523

> <CNN_VS>
1.3173099756

> <CNNaffinity_variance>
0.3206885457

$$$$
[H]ON([H])C(=O)C([H])([H])[C@]([H])(C(=O)N([H])[C@]([H])(C(=O)N([H])O[H])C([H])([H])c1c([H])c([H])c([H])c([H])c1[H])C([H])([H])C([H])(C([H])([H])[H])C([H])([H])[H]


 30 30  0  0  0  0  0  0  0  0999 V2000
    4.1717    5.0742   18.9647 C   0  0  0  0  0  0  0  0  0  0  0  0
    2.9331    5.1588   18.9261 O   0  0  0  0  0  0  0  0  0  0  0  0
    4.9277    3.9187   18.6965 N   0  0  0  0  0  0  0  0  0  0  0  0
    5.9902    4.0571   18.8044 H   0  0  0  0  0  0  0  0  0  0  0  0
    4.8942    6.3687   19.3384 C   0  0  0  0  0  0  0  0  0  0  0  0
    4.7710    6.6971   20.7737 C   0  0  0  0  0  0  0  0  0  0  0  0
    6.6432    5.3622   21.7677 C   0  0  0  0  0  0  0  0  0  0  0  0
    6.0427    6.7271   21.5686 C   0  0  0  0  0  0  0  0  0  0  0  0
    7.0832    7.5165   20.7554 C   0  0  0  0  0  0  0  0  0  0  0  0
    4.2398    7.4518   18.5113 C   0  0  0  0  0  0  0  0  0  0  0  0
    5.0484    7.9499   17.4038 C   0  0  0  0  0  0  0  0  0  0  0  0
    5.7771    7.2075   16.6982 O   0  0  0  0  0  0  0  0  0  0  0  0
    5.0092    9.3334   17.1120 N   0  0  0  0  0  0  0  0  0  0  0  0
    5.7432    9.8174   16.0990 O   0  0  0  0  0  0  0  0  0  0  0  0
    4.4148    9.9584   17.6826 H   0  0  0  0  0  0  0  0  0  0  0  0
    6.4381   10.4369   16.4474 H   0  0  0  0  0  0  0  0  0  0  0  0
    4.5124    2.6240   18.3204 C   0  0  0  0  0  0  0  0  0  0  0  0
    3.7811    2.5351   17.0491 C   0  0  0  0  0  0  0  0  0  0  0  0
    2.6784    1.9709   16.9258 O   0  0  0  0  0  0  0  0  0  0  0  0
    4.3194    3.1149   15.8532 N   0  0  0  0  0  0  0  0  0  0  0  0
    3.6933    3.0609   14.6724 O   0  0  0  0  0  0  0  0  0  0  0  0
    5.2259    3.6007   15.8963 H   0  0  0  0  0  0  0  0  0  0  0  0
    3.3742    3.9350   14.3443 H   0  0  0  0  0  0  0  0  0  0  0  0
    3.9055    1.8190   19.4385 C   0  0  0  0  0  0  0  0  0  0  0  0
    4.5616    1.9376   20.7368 C   0  0  0  0  0  0  0  0  0  0  0  0
    5.8381    1.4156   20.8694 C   0  0  0  0  0  0  0  0  0  0  0  0
    6.5217    1.4799   22.0596 C   0  0  0  0  0  0  0  0  0  0  0  0
    5.9427    2.0698   23.1484 C   0  0  0  0  0  0  0  0  0  0  0  0
    4.6852    2.5847   23.0197 C   0  0  0  0  0  0  0  0  0  0  0  0
    3.9677    2.5313   21.8167 C   0  0  0  0  0  0  0  0  0  0  0  0
  7  8  1  0  0  0
  8  9  1  0  0  0
  8  6  1  0  0  0
  6  5  1  0  0  0
  5 10  1  0  0  0
 10 11  1  0  0  0
 11 12  2  0  0  0
 11 13  1  0  0  0
 13 14  1  0  0  0
  5  1  1  0  0  0
  1  2  2  0  0  0
  1  3  1  0  0  0
  3 17  1  0  0  0
 17 24  1  0  0  0
 24 25  1  0  0  0
 25 26  2  0  0  0
 26 27  1  0  0  0
 27 28  2  0  0  0
 28 29  1  0  0  0
 29 30  2  0  0  0
 17 18  1  0  0  0
 18 19  2  0  0  0
 18 20  1  0  0  0
 20 21  1  0  0  0
 30 25  1  0  0  0
 13 15  1  0  0  0
 14 16  1  0  0  0
  3  4  1  0  0  0
 20 22  1  0  0  0
 21 23  1  0  0  0
M  END
> <minimizedAffinity>
-6.25847

> <CNNscore>
0.2422071099

> <CNNaffinity>
5.0431237221

> <CNN_VS>
1.2214803696

> <CNNaffinity_variance>
0.3075752258

$$$$
[H]ON([H])C(=O)C([H])([H])[C@]([H])(C(=O)N([H])[C@]([H])(C(=O)N([H])O[H])C([H])([H])c1c([H])c([H])c([H])c([H])c1[H])C([H])([H])C([H])(C([H])([H])[H])C([H])([H])[H]


 30 30  0  0  0  0  0  0  0  0999 V2000
    4.3729    3.2243   19.3734 C   0  0  0  0  0  0  0  0  0  0  0  0
    4.9481    2.5617   18.4942 O   0  0  0  0  0  0  0  0  0  0  0  0
    3.7457    4.4698   19.1889 N   0  0  0  0  0  0  0  0  0  0  0  0
    3.3217    4.8827   20.0885 H   0  0  0  0  0  0  0  0  0  0  0  0
    4.3701    2.5857   20.7624 C   0  0  0  0  0  0  0  0  0  0  0  0
    5.4753    3.0697   21.6153 C   0  0  0  0  0  0  0  0  0  0  0  0
    3.7297    4.2215   22.9942 C   0  0  0  0  0  0  0  0  0  0  0  0
    5.0994    3.5998   22.9672 C   0  0  0  0  0  0  0  0  0  0  0  0
    5.0247    2.4048   23.9333 C   0  0  0  0  0  0  0  0  0  0  0  0
    4.5233    1.1003   20.5264 C   0  0  0  0  0  0  0  0  0  0  0  0
    3.2714    0.3803   20.3195 C   0  0  0  0  0  0  0  0  0  0  0  0
    2.4681    0.1196   21.2505 O   0  0  0  0  0  0  0  0  0  0  0  0
    2.9484   -0.0433   19.0093 N   0  0  0  0  0  0  0  0  0  0  0  0
    1.8034   -0.7073   18.7916 O   0  0  0  0  0  0  0  0  0  0  0  0
    3.5982    0.1631   18.2317 H   0  0  0  0  0  0  0  0  0  0  0  0
    1.9990   -1.6330   18.4870 H   0  0  0  0  0  0  0  0  0  0  0  0
    3.5959    5.2519   18.0245 C   0  0  0  0  0  0  0  0  0  0  0  0
    3.7880    6.6979   18.2008 C   0  0  0  0  0  0  0  0  0  0  0  0
    4.4298    7.4103   17.4070 O   0  0  0  0  0  0  0  0  0  0  0  0
    3.2249    7.3785   19.3303 N   0  0  0  0  0  0  0  0  0  0  0  0
    3.3713    8.6921   19.5358 O   0  0  0  0  0  0  0  0  0  0  0  0
    2.6779    6.8413   20.0171 H   0  0  0  0  0  0  0  0  0  0  0  0
    2.5354    9.2095   19.4514 H   0  0  0  0  0  0  0  0  0  0  0  0
    2.4029    4.8866   17.1821 C   0  0  0  0  0  0  0  0  0  0  0  0
    2.6287    3.8583   16.1712 C   0  0  0  0  0  0  0  0  0  0  0  0
    3.2443    4.2345   14.9884 C   0  0  0  0  0  0  0  0  0  0  0  0
    3.4865    3.3290   13.9838 C   0  0  0  0  0  0  0  0  0  0  0  0
    3.1177    2.0219   14.1391 C   0  0  0  0  0  0  0  0  0  0  0  0
    2.5110    1.6493   15.3037 C   0  0  0  0  0  0  0  0  0  0  0  0
    2.2531    2.5541   16.3429 C   0  0  0  0  0  0  0  0  0  0  0  0
  7  8  1  0  0  0
  8  9  1  0  0  0
  8  6  1  0  0  0
  6  5  1  0  0  0
  5 10  1  0  0  0
 10 11  1  0  0  0
 11 12  2  0  0  0
 11 13  1  0  0  0
 13 14  1  0  0  0
  5  1  1  0  0  0
  1  2  2  0  0  0
  1  3  1  0  0  0
  3 17  1  0  0  0
 17 24  1  0  0  0
 24 25  1  0  0  0
 25 26  2  0  0  0
 26 27  1  0  0  0
 27 28  2  0  0  0
 28 29  1  0  0  0
 29 30  2  0  0  0
 17 18  1  0  0  0
 18 19  2  0  0  0
 18 20  1  0  0  0
 20 21  1  0  0  0
 30 25  1  0  0  0
 13 15  1  0  0  0
 14 16  1  0  0  0
  3  4  1  0  0  0
 20 22  1  0  0  0
 21 23  1  0  0  0
M  END
> <minimizedAffinity>
-8.14245

> <CNNscore>
0.2102673650

> <CNNaffinity>
5.3966107368

> <CNN_VS>
1.1347311735

> <CNNaffinity_variance>
0.1042163149

$$$$
[H]ON([H])C(=O)C([H])([H])[C@]([H])(C(=O)N([H])[C@]([H])(C(=O)N([H])O[H])C([H])([H])c1c([H])c([H])c([H])c([H])c1[H])C([H])([H])C([H])(C([H])([H])[H])C([H])([H])[H]


 30 30  0  0  0  0  0  0  0  0999 V2000
    4.5828    4.7584   17.9698 C   0  0  0  0  0  0  0  0  0  0  0  0
    5.8017    4.7795   17.7315 O   0  0  0  0  0  0  0  0  0  0  0  0
    3.9518    5.3296   19.0897 N   0  0  0  0  0  0  0  0  0  0  0  0
    2.8854    5.1816   19.1130 H   0  0  0  0  0  0  0  0  0  0  0  0
    3.7342    4.0388   16.9212 C   0  0  0  0  0  0  0  0  0  0  0  0
    4.0675    2.6042   16.8039 C   0  0  0  0  0  0  0  0  0  0  0  0
    2.8535    1.5068   14.9073 C   0  0  0  0  0  0  0  0  0  0  0  0
    2.9535    1.6856   16.3977 C   0  0  0  0  0  0  0  0  0  0  0  0
    3.2732    0.2882   16.9563 C   0  0  0  0  0  0  0  0  0  0  0  0
    4.0275    4.7373   15.6130 C   0  0  0  0  0  0  0  0  0  0  0  0
    2.8497    5.2092   14.8928 C   0  0  0  0  0  0  0  0  0  0  0  0
    2.6830    5.0318   13.6596 O   0  0  0  0  0  0  0  0  0  0  0  0
    1.8499    5.8985   15.6179 N   0  0  0  0  0  0  0  0  0  0  0  0
    0.7570    6.3431   14.9798 O   0  0  0  0  0  0  0  0  0  0  0  0
    1.9713    6.0530   16.6333 H   0  0  0  0  0  0  0  0  0  0  0  0
    0.7298    7.3364   15.0023 H   0  0  0  0  0  0  0  0  0  0  0  0
    4.4953    6.0496   20.1742 C   0  0  0  0  0  0  0  0  0  0  0  0
    4.6481    7.4959   19.9644 C   0  0  0  0  0  0  0  0  0  0  0  0
    5.7142    8.1110   20.1505 O   0  0  0  0  0  0  0  0  0  0  0  0
    3.5415    8.2915   19.5187 N   0  0  0  0  0  0  0  0  0  0  0  0
    3.6293    9.6103   19.3133 O   0  0  0  0  0  0  0  0  0  0  0  0
    2.6359    7.8354   19.3418 H   0  0  0  0  0  0  0  0  0  0  0  0
    3.5453    9.8781   18.3674 H   0  0  0  0  0  0  0  0  0  0  0  0
    5.6849    5.3914   20.8209 C   0  0  0  0  0  0  0  0  0  0  0  0
    5.3832    4.4123   21.8603 C   0  0  0  0  0  0  0  0  0  0  0  0
    4.2647    4.6266   22.6493 C   0  0  0  0  0  0  0  0  0  0  0  0
    3.9154    3.7566   23.6538 C   0  0  0  0  0  0  0  0  0  0  0  0
    4.6789    2.6484   23.8934 C   0  0  0  0  0  0  0  0  0  0  0  0
    5.7813    2.4355   23.1171 C   0  0  0  0  0  0  0  0  0  0  0  0
    6.1583    3.3081   22.0868 C   0  0  0  0  0  0  0  0  0  0  0  0
  7  8  1  0  0  0
  8  9  1  0  0  0
  8  6  1  0  0  0
  6  5  1  0  0  0
  5 10  1  0  0  0
 10 11  1  0  0  0
 11 12  2  0  0  0
 11 13  1  0  0  0
 13 14  1  0  0  0
  5  1  1  0  0  0
  1  2  2  0  0  0
  1  3  1  0  0  0
  3 17  1  0  0  0
 17 24  1  0  0  0
 24 25  1  0  0  0
 25 26  2  0  0  0
 26 27  1  0  0  0
 27 28  2  0  0  0
 28 29  1  0  0  0
 29 30  2  0  0  0
 17 18  1  0  0  0
 18 19  2  0  0  0
 18 20  1  0  0  0
 20 21  1  0  0  0
 30 25  1  0  0  0
 13 15  1  0  0  0
 14 16  1  0  0  0
  3  4  1  0  0  0
 20 22  1  0  0  0
 21 23  1  0  0  0
M  END
> <minimizedAffinity>
-7.66687

> <CNNscore>
0.2040674537

> <CNNaffinity>
5.3139319420

> <CNN_VS>
1.0844005346

> <CNNaffinity_variance>
0.3868384659

$$$$
[H]ON([H])C(=O)C([H])([H])[C@]([H])(C(=O)N([H])[C@]([H])(C(=O)N([H])O[H])C([H])([H])c1c([H])c([H])c([H])c([H])c1[H])C([H])([H])C([H])(C([H])([H])[H])C([H])([H])[H]


 30 30  0  0  0  0  0  0  0  0999 V2000
    4.6143    4.8550   20.2218 C   0  0  0  0  0  0  0  0  0  0  0  0
    3.5059    4.9496   20.7746 O   0  0  0  0  0  0  0  0  0  0  0  0
    4.9077    5.2207   18.8956 N   0  0  0  0  0  0  0  0  0  0  0  0
    5.9297    5.0398   18.6087 H   0  0  0  0  0  0  0  0  0  0  0  0
    5.7273    4.2885   21.1035 C   0  0  0  0  0  0  0  0  0  0  0  0
    5.4079    2.9471   21.6344 C   0  0  0  0  0  0  0  0  0  0  0  0
    6.3455    0.6794   21.1309 C   0  0  0  0  0  0  0  0  0  0  0  0
    5.4671    1.8070   20.6615 C   0  0  0  0  0  0  0  0  0  0  0  0
    4.0538    1.2078   20.5577 C   0  0  0  0  0  0  0  0  0  0  0  0
    5.8757    5.2656   22.2475 C   0  0  0  0  0  0  0  0  0  0  0  0
    5.8013    6.6718   21.8659 C   0  0  0  0  0  0  0  0  0  0  0  0
    6.7502    7.2837   21.3132 O   0  0  0  0  0  0  0  0  0  0  0  0
    4.6048    7.3778   22.1312 N   0  0  0  0  0  0  0  0  0  0  0  0
    4.5102    8.6718   21.7905 O   0  0  0  0  0  0  0  0  0  0  0  0
    3.8144    6.8895   22.5853 H   0  0  0  0  0  0  0  0  0  0  0  0
    4.4132    9.2324   22.6054 H   0  0  0  0  0  0  0  0  0  0  0  0
    4.0784    5.7731   17.8971 C   0  0  0  0  0  0  0  0  0  0  0  0
    3.8453    7.2207   17.9932 C   0  0  0  0  0  0  0  0  0  0  0  0
    4.1495    8.0292   17.0969 O   0  0  0  0  0  0  0  0  0  0  0  0
    3.2346    7.7875   19.1602 N   0  0  0  0  0  0  0  0  0  0  0  0
    3.0014    9.0976   19.2961 O   0  0  0  0  0  0  0  0  0  0  0  0
    2.9556    7.1658   19.9315 H   0  0  0  0  0  0  0  0  0  0  0  0
    2.0448    9.3390   19.3016 H   0  0  0  0  0  0  0  0  0  0  0  0
    2.8408    4.9674   17.6041 C   0  0  0  0  0  0  0  0  0  0  0  0
    2.9922    3.9060   16.6139 C   0  0  0  0  0  0  0  0  0  0  0  0
    3.1213    2.6046   17.0715 C   0  0  0  0  0  0  0  0  0  0  0  0
    3.2751    1.5493   16.2052 C   0  0  0  0  0  0  0  0  0  0  0  0
    3.3033    1.7715   14.8567 C   0  0  0  0  0  0  0  0  0  0  0  0
    3.1763    3.0529   14.4039 C   0  0  0  0  0  0  0  0  0  0  0  0
    3.0184    4.1458   15.2674 C   0  0  0  0  0  0  0  0  0  0  0  0
  7  8  1  0  0  0
  8  9  1  0  0  0
  8  6  1  0  0  0
  6  5  1  0  0  0
  5 10  1  0  0  0
 10 11  1  0  0  0
 11 12  2  0  0  0
 11 13  1  0  0  0
 13 14  1  0  0  0
  5  1  1  0  0  0
  1  2  2  0  0  0
  1  3  1  0  0  0
  3 17  1  0  0  0
 17 24  1  0  0  0
 24 25  1  0  0  0
 25 26  2  0  0  0
 26 27  1  0  0  0
 27 28  2  0  0  0
 28 29  1  0  0  0
 29 30  2  0  0  0
 17 18  1  0  0  0
 18 19  2  0  0  0
 18 20  1  0  0  0
 20 21  1  0  0  0
 30 25  1  0  0  0
 13 15  1  0  0  0
 14 16  1  0  0  0
  3  4  1  0  0  0
 20 22  1  0  0  0
 21 23  1  0  0  0
M  END
> <minimizedAffinity>
-8.14498

> <CNNscore>
0.2005265504

> <CNNaffinity>
5.2650575638

> <CNN_VS>
1.0557838678

> <CNNaffinity_variance>
0.4441823363

$$$$
[H]ON([H])C(=O)C([H])([H])[C@]([H])(C(=O)N([H])[C@]([H])(C(=O)N([H])O[H])C([H])([H])c1c([H])c([H])c([H])c([H])c1[H])C([H])([H])C([H])(C([H])([H])[H])C([H])([H])[H]


 30 30  0  0  0  0  0  0  0  0999 V2000
    3.6827    4.4734   18.1577 C   0  0  0  0  0  0  0  0  0  0  0  0
    2.7548    5.2963   18.2274 O   0  0  0  0  0  0  0  0  0  0  0  0
    3.9087    3.5735   17.1004 N   0  0  0  0  0  0  0  0  0  0  0  0
    4.7612    2.9323   17.2473 H   0  0  0  0  0  0  0  0  0  0  0  0
    4.6400    4.4799   19.3497 C   0  0  0  0  0  0  0  0  0  0  0  0
    5.3525    3.1964   19.5164 C   0  0  0  0  0  0  0  0  0  0  0  0
    4.0892    1.0983   20.0430 C   0  0  0  0  0  0  0  0  0  0  0  0
    4.8445    2.2792   20.5891 C   0  0  0  0  0  0  0  0  0  0  0  0
    6.0654    1.6845   21.3119 C   0  0  0  0  0  0  0  0  0  0  0  0
    3.7763    4.7430   20.5622 C   0  0  0  0  0  0  0  0  0  0  0  0
    4.2997    5.7482   21.4810 C   0  0  0  0  0  0  0  0  0  0  0  0
    4.8501    5.4588   22.5734 O   0  0  0  0  0  0  0  0  0  0  0  0
    4.1811    7.1117   21.1240 N   0  0  0  0  0  0  0  0  0  0  0  0
    4.6539    8.0561   21.9509 O   0  0  0  0  0  0  0  0  0  0  0  0
    3.7309    7.3672   20.2287 H   0  0  0  0  0  0  0  0  0  0  0  0
    3.9064    8.6147   22.2930 H   0  0  0  0  0  0  0  0  0  0  0  0
    3.1955    3.3809   15.8986 C   0  0  0  0  0  0  0  0  0  0  0  0
    2.7514    2.0050   15.6363 C   0  0  0  0  0  0  0  0  0  0  0  0
    2.6891    1.5055   14.4979 O   0  0  0  0  0  0  0  0  0  0  0  0
    2.3590    1.1448   16.7145 N   0  0  0  0  0  0  0  0  0  0  0  0
    1.9475   -0.1142   16.5282 O   0  0  0  0  0  0  0  0  0  0  0  0
    2.3965    1.5018   17.6791 H   0  0  0  0  0  0  0  0  0  0  0  0
    2.5649   -0.7974   16.8826 H   0  0  0  0  0  0  0  0  0  0  0  0
    3.7959    4.0732   14.7041 C   0  0  0  0  0  0  0  0  0  0  0  0
    3.0267    5.1889   14.1623 C   0  0  0  0  0  0  0  0  0  0  0  0
    3.6020    5.9453   13.1541 C   0  0  0  0  0  0  0  0  0  0  0  0
    2.9473    7.0164   12.5954 C   0  0  0  0  0  0  0  0  0  0  0  0
    1.6980    7.3570   13.0333 C   0  0  0  0  0  0  0  0  0  0  0  0
    1.1296    6.6130   14.0265 C   0  0  0  0  0  0  0  0  0  0  0  0
    1.7771    5.5163   14.6122 C   0  0  0  0  0  0  0  0  0  0  0  0
  7  8  1  0  0  0
  8  9  1  0  0  0
  8  6  1  0  0  0
  6  5  1  0  0  0
  5 10  1  0  0  0
 10 11  1  0  0  0
 11 12  2  0  0  0
 11 13  1  0  0  0
 13 14  1  0  0  0
  5  1  1  0  0  0
  1  2  2  0  0  0
  1  3  1  0  0  0
  3 17  1  0  0  0
 17 24  1  0  0  0
 24 25  1  0  0  0
 25 26  2  0  0  0
 26 27  1  0  0  0
 27 28  2  0  0  0
 28 29  1  0  0  0
 29 30  2  0  0  0
 17 18  1  0  0  0
 18 19  2  0  0  0
 18 20  1  0  0  0
 20 21  1  0  0  0
 30 25  1  0  0  0
 13 15  1  0  0  0
 14 16  1  0  0  0
  3  4  1  0  0  0
 20 22  1  0  0  0
 21 23  1  0  0  0
M  END
> <minimizedAffinity>
-7.01515

> <CNNscore>
0.1747888476

> <CNNaffinity>
4.8494653702

> <CNN_VS>
0.8476324677

> <CNNaffinity_variance>
0.3029792011

$$$$
[H]c1nc(N([H])c2c([H])c([H])c(N3C([H])([H])C([H])([H])C([H])(N(C([H])([H])[H])C([H])([H])[H])C([H])([H])C3([H])[H])c([H])c2OC([H])([H])[H])nc(N([H])c2c([H])c([H])c([H])c([H])c2S(=O)(=O)C([H])(C([H])([H])[H])C([H])([H])[H])c1Cl


 40 43  0  0  0  0  0  0  0  0999 V2000
    3.4939    2.2623   16.0581 C   0  0  0  0  0  0  0  0  0  0  0  0
    3.2991    0.9524   16.1654 N   0  0  0  0  0  0  0  0  0  0  0  0
    3.2761    0.3079   17.3388 C   0  0  0  0  0  0  0  0  0  0  0  0
    3.4570    0.9871   18.5128 C   0  0  0  0  0  0  0  0  0  0  0  0
    3.4272    0.1979   20.0734 Cl  0  0  0  0  0  0  0  0  0  0  0  0
    3.6690    2.3840   18.4605 C   0  0  0  0  0  0  0  0  0  0  0  0
    3.6700    2.9015   17.2520 N   0  0  0  0  0  0  0  0  0  0  0  0
    3.5340    3.0272   14.8612 N   0  0  0  0  0  0  0  0  0  0  0  0
    4.5007    3.4217   14.5747 H   0  0  0  0  0  0  0  0  0  0  0  0
    1.9113    4.6267   14.1040 C   0  0  0  0  0  0  0  0  0  0  0  0
    0.8835    4.9381   13.2691 C   0  0  0  0  0  0  0  0  0  0  0  0
    0.3757    4.0718   12.3376 C   0  0  0  0  0  0  0  0  0  0  0  0
    0.9476    2.8283   12.2578 C   0  0  0  0  0  0  0  0  0  0  0  0
    1.9997    2.4517   13.0833 C   0  0  0  0  0  0  0  0  0  0  0  0
    2.4900    3.3364   14.0071 C   0  0  0  0  0  0  0  0  0  0  0  0
   -0.7102    4.4054   11.4558 N   0  0  0  0  0  0  0  0  0  0  0  0
   -0.5264    4.0445   10.0714 C   0  0  0  0  0  0  0  0  0  0  0  0
   -1.7131    4.2195    9.1961 C   0  0  0  0  0  0  0  0  0  0  0  0
   -2.9923    4.3583    9.9622 C   0  0  0  0  0  0  0  0  0  0  0  0
   -2.8425    5.5093   10.9354 C   0  0  0  0  0  0  0  0  0  0  0  0
   -1.8643    5.0529   11.9877 C   0  0  0  0  0  0  0  0  0  0  0  0
   -4.1123    4.5272    9.0686 N   0  0  0  0  0  0  0  0  0  0  0  0
   -3.7123    4.7569    7.7129 C   0  0  0  0  0  0  0  0  0  0  0  0
   -5.0974    3.4789    9.1983 C   0  0  0  0  0  0  0  0  0  0  0  0
    3.1984    6.5940   14.6330 C   0  0  0  0  0  0  0  0  0  0  0  0
    2.4147    5.5095   15.0394 O   0  0  0  0  0  0  0  0  0  0  0  0
    3.8981    3.0928   19.6603 N   0  0  0  0  0  0  0  0  0  0  0  0
    3.7978    2.5289   20.5290 H   0  0  0  0  0  0  0  0  0  0  0  0
    4.2050    4.4462   19.7685 C   0  0  0  0  0  0  0  0  0  0  0  0
    3.6888    5.4232   18.9168 C   0  0  0  0  0  0  0  0  0  0  0  0
    3.9180    6.7748   19.1258 C   0  0  0  0  0  0  0  0  0  0  0  0
    4.6657    7.2036   20.1865 C   0  0  0  0  0  0  0  0  0  0  0  0
    5.1729    6.2458   21.0214 C   0  0  0  0  0  0  0  0  0  0  0  0
    4.9733    4.8688   20.8543 C   0  0  0  0  0  0  0  0  0  0  0  0
    5.7848    3.8115   21.9282 S   0  0  0  0  0  0  0  0  0  0  0  0
    6.1995    2.5582   21.1226 O   0  0  0  0  0  0  0  0  0  0  0  0
    7.1078    4.3220   22.4446 O   0  0  0  0  0  0  0  0  0  0  0  0
    4.8200    3.1773   23.2609 C   0  0  0  0  0  0  0  0  0  0  0  0
    3.6137    4.0820   23.5305 C   0  0  0  0  0  0  0  0  0  0  0  0
    4.3047    1.8087   23.0913 C   0  0  0  0  0  0  0  0  0  0  0  0
 25 26  1  0  0  0
 26 10  1  0  0  0
 10 11  2  0  0  0
 11 12  1  0  0  0
 12 13  2  0  0  0
 13 14  1  0  0  0
 14 15  2  0  0  0
 15  8  1  0  0  0
  8  1  1  0  0  0
  1  2  2  0  0  0
  2  3  1  0  0  0
  3  4  2  0  0  0
  4  5  1  0  0  0
  4  6  1  0  0  0
  6 27  1  0  0  0
 27 29  1  0  0  0
 29 30  2  0  0  0
 30 31  1  0  0  0
 31 32  2  0  0  0
 32 33  1  0  0  0
 33 34  2  0  0  0
 34 35  1  0  0  0
 35 36  2  0  0  0
 35 37  2  0  0  0
 35 38  1  0  0  0
 38 39  1  0  0  0
 38 40  1  0  0  0
  6  7  2  0  0  0
 12 16  1  0  0  0
 16 17  1  0  0  0
 17 18  1  0  0  0
 18 19  1  0  0  0
 19 20  1  0  0  0
 20 21  1  0  0  0
 19 22  1  0  0  0
 22 23  1  0  0  0
 22 24  1  0  0  0
 15 10  1  0  0  0
  7  1  1  0  0  0
 21 16  1  0  0  0
 34 29  1  0  0  0
  8  9  1  0  0  0
 27 28  1  0  0  0
M  END
> <minimizedAffinity>
-7.82500

> <CNNscore>
0.4363757968

> <CNNaffinity>
7.1183881760

> <CNN_VS>
3.1062922478

> <CNNaffinity_variance>
0.2727766931

$$$$
[H]c1nc(N([H])c2c([H])c([H])c(N3C([H])([H])C([H])([H])C([H])(N(C([H])([H])[H])C([H])([H])[H])C([H])([H])C3([H])[H])c([H])c2OC([H])([H])[H])nc(N([H])c2c([H])c([H])c([H])c([H])c2S(=O)(=O)C([H])(C([H])([H])[H])C([H])([H])[H])c1Cl


 40 43  0  0  0  0  0  0  0  0999 V2000
    4.5575    2.1299   19.6611 C   0  0  0  0  0  0  0  0  0  0  0  0
    3.9969    1.4541   20.6583 N   0  0  0  0  0  0  0  0  0  0  0  0
    3.7867    1.9778   21.8724 C   0  0  0  0  0  0  0  0  0  0  0  0
    4.1494    3.2678   22.1494 C   0  0  0  0  0  0  0  0  0  0  0  0
    3.8900    4.0055   23.7139 Cl  0  0  0  0  0  0  0  0  0  0  0  0
    4.7511    4.0359   21.1261 C   0  0  0  0  0  0  0  0  0  0  0  0
    4.9042    3.4119   19.9793 N   0  0  0  0  0  0  0  0  0  0  0  0
    4.8185    1.6577   18.3465 N   0  0  0  0  0  0  0  0  0  0  0  0
    5.5874    0.9014   18.2509 H   0  0  0  0  0  0  0  0  0  0  0  0
    3.3230    1.1287   16.5441 C   0  0  0  0  0  0  0  0  0  0  0  0
    2.7251    1.4979   15.3794 C   0  0  0  0  0  0  0  0  0  0  0  0
    2.9363    2.7061   14.7698 C   0  0  0  0  0  0  0  0  0  0  0  0
    3.8005    3.5767   15.3821 C   0  0  0  0  0  0  0  0  0  0  0  0
    4.4413    3.2568   16.5726 C   0  0  0  0  0  0  0  0  0  0  0  0
    4.2134    2.0418   17.1627 C   0  0  0  0  0  0  0  0  0  0  0  0
    2.3012    3.0933   13.5390 N   0  0  0  0  0  0  0  0  0  0  0  0
    1.9453    2.0136   12.6512 C   0  0  0  0  0  0  0  0  0  0  0  0
    1.1291    2.3922   11.4700 C   0  0  0  0  0  0  0  0  0  0  0  0
    0.4858    3.7375   11.6076 C   0  0  0  0  0  0  0  0  0  0  0  0
    1.5701    4.7578   11.8866 C   0  0  0  0  0  0  0  0  0  0  0  0
    2.0711    4.4768   13.2803 C   0  0  0  0  0  0  0  0  0  0  0  0
   -0.2927    4.0587   10.4362 N   0  0  0  0  0  0  0  0  0  0  0  0
   -0.2711    3.0188    9.4519 C   0  0  0  0  0  0  0  0  0  0  0  0
   -1.6275    4.5088   10.7549 C   0  0  0  0  0  0  0  0  0  0  0  0
    2.0737   -0.2380   18.0862 C   0  0  0  0  0  0  0  0  0  0  0  0
    3.1016   -0.0930   17.1492 O   0  0  0  0  0  0  0  0  0  0  0  0
    5.1684    5.3553   21.4081 N   0  0  0  0  0  0  0  0  0  0  0  0
    4.3967    6.0405   21.5412 H   0  0  0  0  0  0  0  0  0  0  0  0
    6.4848    5.8008   21.4873 C   0  0  0  0  0  0  0  0  0  0  0  0
    7.4171    5.2906   22.3911 C   0  0  0  0  0  0  0  0  0  0  0  0
    8.7507    5.6701   22.3626 C   0  0  0  0  0  0  0  0  0  0  0  0
    9.2052    6.5671   21.4371 C   0  0  0  0  0  0  0  0  0  0  0  0
    8.2909    7.0684   20.5512 C   0  0  0  0  0  0  0  0  0  0  0  0
    6.9335    6.7204   20.5381 C   0  0  0  0  0  0  0  0  0  0  0  0
    5.9132    7.5393   19.4345 S   0  0  0  0  0  0  0  0  0  0  0  0
    6.7889    8.0031   18.2472 O   0  0  0  0  0  0  0  0  0  0  0  0
    4.8793    6.6712   18.7599 O   0  0  0  0  0  0  0  0  0  0  0  0
    5.1632    9.0194   20.0311 C   0  0  0  0  0  0  0  0  0  0  0  0
    3.8029    9.2410   19.3625 C   0  0  0  0  0  0  0  0  0  0  0  0
    4.9471    9.0934   21.4855 C   0  0  0  0  0  0  0  0  0  0  0  0
 25 26  1  0  0  0
 26 10  1  0  0  0
 10 11  2  0  0  0
 11 12  1  0  0  0
 12 13  2  0  0  0
 13 14  1  0  0  0
 14 15  2  0  0  0
 15  8  1  0  0  0
  8  1  1  0  0  0
  1  2  2  0  0  0
  2  3  1  0  0  0
  3  4  2  0  0  0
  4  5  1  0  0  0
  4  6  1  0  0  0
  6 27  1  0  0  0
 27 29  1  0  0  0
 29 30  2  0  0  0
 30 31  1  0  0  0
 31 32  2  0  0  0
 32 33  1  0  0  0
 33 34  2  0  0  0
 34 35  1  0  0  0
 35 36  2  0  0  0
 35 37  2  0  0  0
 35 38  1  0  0  0
 38 39  1  0  0  0
 38 40  1  0  0  0
  6  7  2  0  0  0
 12 16  1  0  0  0
 16 17  1  0  0  0
 17 18  1  0  0  0
 18 19  1  0  0  0
 19 20  1  0  0  0
 20 21  1  0  0  0
 19 22  1  0  0  0
 22 23  1  0  0  0
 22 24  1  0  0  0
 15 10  1  0  0  0
  7  1  1  0  0  0
 21 16  1  0  0  0
 34 29  1  0  0  0
  8  9  1  0  0  0
 27 28  1  0  0  0
M  END
> <minimizedAffinity>
-8.87895

> <CNNscore>
0.4183574915

> <CNNaffinity>
7.2073411942

> <CNN_VS>
3.0152451992

> <CNNaffinity_variance>
0.2431896627

$$$$
[H]c1nc(N([H])c2c([H])c([H])c(N3C([H])([H])C([H])([H])C([H])(N(C([H])([H])[H])C([H])([H])[H])C([H])([H])C3([H])[H])c([H])c2OC([H])([H])[H])nc(N([H])c2c([H])c([H])c([H])c([H])c2S(=O)(=O)C([H])(C([H])([H])[H])C([H])([H])[H])c1Cl


 40 43  0  0  0  0  0  0  0  0999 V2000
    3.4138    2.3009   15.7100 C   0  0  0  0  0  0  0  0  0  0  0  0
    2.7056    1.2055   15.9626 N   0  0  0  0  0  0  0  0  0  0  0  0
    2.7126    0.5849   17.1489 C   0  0  0  0  0  0  0  0  0  0  0  0
    3.4698    1.0632   18.1835 C   0  0  0  0  0  0  0  0  0  0  0  0
    3.5093    0.2986   19.7560 Cl  0  0  0  0  0  0  0  0  0  0  0  0
    4.2449    2.2269   17.9729 C   0  0  0  0  0  0  0  0  0  0  0  0
    4.1547    2.7446   16.7679 N   0  0  0  0  0  0  0  0  0  0  0  0
    3.4677    3.0232   14.4874 N   0  0  0  0  0  0  0  0  0  0  0  0
    4.4515    3.1766   14.0623 H   0  0  0  0  0  0  0  0  0  0  0  0
    2.0183    2.8950   12.5774 C   0  0  0  0  0  0  0  0  0  0  0  0
    0.9883    3.4177   11.8590 C   0  0  0  0  0  0  0  0  0  0  0  0
    0.3141    4.5543   12.2191 C   0  0  0  0  0  0  0  0  0  0  0  0
    0.7140    5.1849   13.3689 C   0  0  0  0  0  0  0  0  0  0  0  0
    1.7593    4.6996   14.1448 C   0  0  0  0  0  0  0  0  0  0  0  0
    2.4180    3.5607   13.7634 C   0  0  0  0  0  0  0  0  0  0  0  0
   -0.7754    5.1030   11.4574 N   0  0  0  0  0  0  0  0  0  0  0  0
   -0.4096    5.7696   10.2317 C   0  0  0  0  0  0  0  0  0  0  0  0
   -1.5384    6.1743    9.3559 C   0  0  0  0  0  0  0  0  0  0  0  0
   -2.8214    5.4796    9.6931 C   0  0  0  0  0  0  0  0  0  0  0  0
   -3.1307    5.7328   11.1542 C   0  0  0  0  0  0  0  0  0  0  0  0
   -2.1075    4.9595   11.9464 C   0  0  0  0  0  0  0  0  0  0  0  0
   -3.8847    5.9074    8.8169 N   0  0  0  0  0  0  0  0  0  0  0  0
   -5.1113    6.1579    9.5122 C   0  0  0  0  0  0  0  0  0  0  0  0
   -3.4944    6.9933    7.9485 C   0  0  0  0  0  0  0  0  0  0  0  0
    2.9223    1.4771   10.8514 C   0  0  0  0  0  0  0  0  0  0  0  0
    2.6904    1.7477   12.2037 O   0  0  0  0  0  0  0  0  0  0  0  0
    5.0632    2.7096   19.0178 N   0  0  0  0  0  0  0  0  0  0  0  0
    6.0609    2.4193   18.9635 H   0  0  0  0  0  0  0  0  0  0  0  0
    4.6468    3.4889   20.0933 C   0  0  0  0  0  0  0  0  0  0  0  0
    4.1820    2.9560   21.2959 C   0  0  0  0  0  0  0  0  0  0  0  0
    3.8899    3.7570   22.3897 C   0  0  0  0  0  0  0  0  0  0  0  0
    4.0495    5.1130   22.3286 C   0  0  0  0  0  0  0  0  0  0  0  0
    4.5045    5.6361   21.1491 C   0  0  0  0  0  0  0  0  0  0  0  0
    4.8118    4.8726   20.0149 C   0  0  0  0  0  0  0  0  0  0  0  0
    5.2531    5.7095   18.5885 S   0  0  0  0  0  0  0  0  0  0  0  0
    5.9965    6.9967   19.0152 O   0  0  0  0  0  0  0  0  0  0  0  0
    6.2777    5.0081   17.7308 O   0  0  0  0  0  0  0  0  0  0  0  0
    3.9193    6.2841   17.5885 C   0  0  0  0  0  0  0  0  0  0  0  0
    4.3410    6.3552   16.1175 C   0  0  0  0  0  0  0  0  0  0  0  0
    2.6806    5.4905   17.6452 C   0  0  0  0  0  0  0  0  0  0  0  0
 25 26  1  0  0  0
 26 10  1  0  0  0
 10 11  2  0  0  0
 11 12  1  0  0  0
 12 13  2  0  0  0
 13 14  1  0  0  0
 14 15  2  0  0  0
 15  8  1  0  0  0
  8  1  1  0  0  0
  1  2  2  0  0  0
  2  3  1  0  0  0
  3  4  2  0  0  0
  4  5  1  0  0  0
  4  6  1  0  0  0
  6 27  1  0  0  0
 27 29  1  0  0  0
 29 30  2  0  0  0
 30 31  1  0  0  0
 31 32  2  0  0  0
 32 33  1  0  0  0
 33 34  2  0  0  0
 34 35  1  0  0  0
 35 36  2  0  0  0
 35 37  2  0  0  0
 35 38  1  0  0  0
 38 39  1  0  0  0
 38 40  1  0  0  0
  6  7  2  0  0  0
 12 16  1  0  0  0
 16 17  1  0  0  0
 17 18  1  0  0  0
 18 19  1  0  0  0
 19 20  1  0  0  0
 20 21  1  0  0  0
 19 22  1  0  0  0
 22 23  1  0  0  0
 22 24  1  0  0  0
 15 10  1  0  0  0
  7  1  1  0  0  0
 21 16  1  0  0  0
 34 29  1  0  0  0
  8  9  1  0  0  0
 27 28  1  0  0  0
M  END
> <minimizedAffinity>
-7.70809

> <CNNscore>
0.4126488566

> <CNNaffinity>
6.9908194542

> <CNN_VS>
2.8847537041

> <CNNaffinity_variance>
0.1924613118

$$$$
[H]c1nc(N([H])c2c([H])c([H])c(N3C([H])([H])C([H])([H])C([H])(N(C([H])([H])[H])C([H])([H])[H])C([H])([H])C3([H])[H])c([H])c2OC([H])([H])[H])nc(N([H])c2c([H])c([H])c([H])c([H])c2S(=O)(=O)C([H])(C([H])([H])[H])C([H])([H])[H])c1Cl


 40 43  0  0  0  0  0  0  0  0999 V2000
    4.3302    1.9127   19.9464 C   0  0  0  0  0  0  0  0  0  0  0  0
    3.7868    1.2485   20.9608 N   0  0  0  0  0  0  0  0  0  0  0  0
    3.5628    1.7976   22.1611 C   0  0  0  0  0  0  0  0  0  0  0  0
    3.8920    3.1032   22.4048 C   0  0  0  0  0  0  0  0  0  0  0  0
    3.6132    3.8739   23.9499 Cl  0  0  0  0  0  0  0  0  0  0  0  0
    4.4740    3.8601   21.3620 C   0  0  0  0  0  0  0  0  0  0  0  0
    4.6435    3.2110   20.2314 N   0  0  0  0  0  0  0  0  0  0  0  0
    4.6037    1.4138   18.6442 N   0  0  0  0  0  0  0  0  0  0  0  0
    5.3560    0.6383   18.5745 H   0  0  0  0  0  0  0  0  0  0  0  0
    4.5876    2.9029   16.7608 C   0  0  0  0  0  0  0  0  0  0  0  0
    4.0280    3.2833   15.5808 C   0  0  0  0  0  0  0  0  0  0  0  0
    2.9525    2.6519   15.0145 C   0  0  0  0  0  0  0  0  0  0  0  0
    2.4257    1.5807   15.6888 C   0  0  0  0  0  0  0  0  0  0  0  0
    2.9533    1.1449   16.8978 C   0  0  0  0  0  0  0  0  0  0  0  0
    4.0294    1.7932   17.4437 C   0  0  0  0  0  0  0  0  0  0  0  0
    2.3646    3.0565   13.7659 N   0  0  0  0  0  0  0  0  0  0  0  0
    1.8181    1.9942   12.9576 C   0  0  0  0  0  0  0  0  0  0  0  0
    1.0512    2.4235   11.7608 C   0  0  0  0  0  0  0  0  0  0  0  0
    0.6406    3.8627   11.8118 C   0  0  0  0  0  0  0  0  0  0  0  0
    1.8832    4.7061   12.0101 C   0  0  0  0  0  0  0  0  0  0  0  0
    2.3596    4.4388   13.4151 C   0  0  0  0  0  0  0  0  0  0  0  0
   -0.0984    4.2301   10.6284 N   0  0  0  0  0  0  0  0  0  0  0  0
   -0.8107    5.4633   10.7781 C   0  0  0  0  0  0  0  0  0  0  0  0
    0.7032    4.1815    9.4280 C   0  0  0  0  0  0  0  0  0  0  0  0
    5.7458    4.9444   17.3061 C   0  0  0  0  0  0  0  0  0  0  0  0
    5.6725    3.5480   17.3216 O   0  0  0  0  0  0  0  0  0  0  0  0
    4.8570    5.1966   21.6098 N   0  0  0  0  0  0  0  0  0  0  0  0
    4.0683    5.8575   21.7641 H   0  0  0  0  0  0  0  0  0  0  0  0
    6.1596    5.6869   21.6312 C   0  0  0  0  0  0  0  0  0  0  0  0
    7.2031    5.0701   22.3219 C   0  0  0  0  0  0  0  0  0  0  0  0
    8.5127    5.5157   22.2241 C   0  0  0  0  0  0  0  0  0  0  0  0
    8.8322    6.5870   21.4379 C   0  0  0  0  0  0  0  0  0  0  0  0
    7.8090    7.1928   20.7612 C   0  0  0  0  0  0  0  0  0  0  0  0
    6.4701    6.7843   20.8267 C   0  0  0  0  0  0  0  0  0  0  0  0
    5.3072    7.7360   20.0072 S   0  0  0  0  0  0  0  0  0  0  0  0
    5.9545    8.2324   18.6933 O   0  0  0  0  0  0  0  0  0  0  0  0
    4.0998    6.9780   19.5120 O   0  0  0  0  0  0  0  0  0  0  0  0
    4.7994    9.2102   20.8305 C   0  0  0  0  0  0  0  0  0  0  0  0
    5.4343    9.2959   22.2219 C   0  0  0  0  0  0  0  0  0  0  0  0
    5.1024   10.4739   20.1385 C   0  0  0  0  0  0  0  0  0  0  0  0
 25 26  1  0  0  0
 26 10  1  0  0  0
 10 11  2  0  0  0
 11 12  1  0  0  0
 12 13  2  0  0  0
 13 14  1  0  0  0
 14 15  2  0  0  0
 15  8  1  0  0  0
  8  1  1  0  0  0
  1  2  2  0  0  0
  2  3  1  0  0  0
  3  4  2  0  0  0
  4  5  1  0  0  0
  4  6  1  0  0  0
  6 27  1  0  0  0
 27 29  1  0  0  0
 29 30  2  0  0  0
 30 31  1  0  0  0
 31 32  2  0  0  0
 32 33  1  0  0  0
 33 34  2  0  0  0
 34 35  1  0  0  0
 35 36  2  0  0  0
 35 37  2  0  0  0
 35 38  1  0  0  0
 38 39  1  0  0  0
 38 40  1  0  0  0
  6  7  2  0  0  0
 12 16  1  0  0  0
 16 17  1  0  0  0
 17 18  1  0  0  0
 18 19  1  0  0  0
 19 20  1  0  0  0
 20 21  1  0  0  0
 19 22  1  0  0  0
 22 23  1  0  0  0
 22 24  1  0  0  0
 15 10  1  0  0  0
  7  1  1  0  0  0
 21 16  1  0  0  0
 34 29  1  0  0  0
  8  9  1  0  0  0
 27 28  1  0  0  0
M  END
> <minimizedAffinity>
-8.83088

> <CNNscore>
0.3672680557

> <CNNaffinity>
7.1735124588

> <CNN_VS>
2.6346020699

> <CNNaffinity_variance>
0.2537489831

$$$$
[H]c1nc(N([H])c2c([H])c([H])c(N3C([H])([H])C([H])([H])C([H])(N(C([H])([H])[H])C([H])([H])[H])C([H])([H])C3([H])[H])c([H])c2OC([H])([H])[H])nc(N([H])c2c([H])c([H])c([H])c([H])c2S(=O)(=O)C([H])(C([H])([H])[H])C([H])([H])[H])c1Cl


 40 43  0  0  0  0  0  0  0  0999 V2000
    3.6713    1.6680   20.6750 C   0  0  0  0  0  0  0  0  0  0  0  0
    2.9523    0.5573   20.5538 N   0  0  0  0  0  0  0  0  0  0  0  0
    2.7495   -0.0613   19.3839 C   0  0  0  0  0  0  0  0  0  0  0  0
    3.2879    0.4355   18.2281 C   0  0  0  0  0  0  0  0  0  0  0  0
    3.0633   -0.3363   16.6748 Cl  0  0  0  0  0  0  0  0  0  0  0  0
    4.0629    1.6162   18.2957 C   0  0  0  0  0  0  0  0  0  0  0  0
    4.1899    2.1299   19.4991 N   0  0  0  0  0  0  0  0  0  0  0  0
    3.9382    2.3897   21.8697 N   0  0  0  0  0  0  0  0  0  0  0  0
    3.6132    1.9277   22.7934 H   0  0  0  0  0  0  0  0  0  0  0  0
    5.9804    3.6494   21.9556 C   0  0  0  0  0  0  0  0  0  0  0  0
    6.6037    4.8507   22.0919 C   0  0  0  0  0  0  0  0  0  0  0  0
    5.9371    6.0328   22.2769 C   0  0  0  0  0  0  0  0  0  0  0  0
    4.5679    5.9817   22.3246 C   0  0  0  0  0  0  0  0  0  0  0  0
    3.8746    4.7851   22.1918 C   0  0  0  0  0  0  0  0  0  0  0  0
    4.5643    3.6160   22.0076 C   0  0  0  0  0  0  0  0  0  0  0  0
    6.5998    7.3012   22.4193 N   0  0  0  0  0  0  0  0  0  0  0  0
    7.9717    7.2450   22.8613 C   0  0  0  0  0  0  0  0  0  0  0  0
    8.7117    8.5321   22.8333 C   0  0  0  0  0  0  0  0  0  0  0  0
    8.0454    9.5741   21.9890 C   0  0  0  0  0  0  0  0  0  0  0  0
    6.6271    9.7569   22.4885 C   0  0  0  0  0  0  0  0  0  0  0  0
    5.8819    8.4979   22.1251 C   0  0  0  0  0  0  0  0  0  0  0  0
    8.8007   10.8033   21.9960 N   0  0  0  0  0  0  0  0  0  0  0  0
    8.0836   11.8998   21.4179 C   0  0  0  0  0  0  0  0  0  0  0  0
    9.3590   11.1122   23.2917 C   0  0  0  0  0  0  0  0  0  0  0  0
    6.6967    1.5034   22.7853 C   0  0  0  0  0  0  0  0  0  0  0  0
    6.6642    2.4638   21.7693 O   0  0  0  0  0  0  0  0  0  0  0  0
    4.5912    2.1641   17.1062 N   0  0  0  0  0  0  0  0  0  0  0  0
    5.6248    2.0908   17.0106 H   0  0  0  0  0  0  0  0  0  0  0  0
    3.8662    2.8003   16.1026 C   0  0  0  0  0  0  0  0  0  0  0  0
    3.0544    2.1232   15.1920 C   0  0  0  0  0  0  0  0  0  0  0  0
    2.2518    2.7957   14.2827 C   0  0  0  0  0  0  0  0  0  0  0  0
    2.2261    4.1617   14.2459 C   0  0  0  0  0  0  0  0  0  0  0  0
    3.0228    4.8260   15.1381 C   0  0  0  0  0  0  0  0  0  0  0  0
    3.8529    4.1956   16.0747 C   0  0  0  0  0  0  0  0  0  0  0  0
    4.8707    5.1866   17.0295 S   0  0  0  0  0  0  0  0  0  0  0  0
    6.1641    4.3880   17.3139 O   0  0  0  0  0  0  0  0  0  0  0  0
    5.3930    6.4194   16.3332 O   0  0  0  0  0  0  0  0  0  0  0  0
    4.2559    5.6097   18.6270 C   0  0  0  0  0  0  0  0  0  0  0  0
    4.5345    7.0835   18.9382 C   0  0  0  0  0  0  0  0  0  0  0  0
    2.8173    5.3861   18.8458 C   0  0  0  0  0  0  0  0  0  0  0  0
 25 26  1  0  0  0
 26 10  1  0  0  0
 10 11  2  0  0  0
 11 12  1  0  0  0
 12 13  2  0  0  0
 13 14  1  0  0  0
 14 15  2  0  0  0
 15  8  1  0  0  0
  8  1  1  0  0  0
  1  2  2  0  0  0
  2  3  1  0  0  0
  3  4  2  0  0  0
  4  5  1  0  0  0
  4  6  1  0  0  0
  6 27  1  0  0  0
 27 29  1  0  0  0
 29 30  2  0  0  0
 30 31  1  0  0  0
 31 32  2  0  0  0
 32 33  1  0  0  0
 33 34  2  0  0  0
 34 35  1  0  0  0
 35 36  2  0  0  0
 35 37  2  0  0  0
 35 38  1  0  0  0
 38 39  1  0  0  0
 38 40  1  0  0  0
  6  7  2  0  0  0
 12 16  1  0  0  0
 16 17  1  0  0  0
 17 18  1  0  0  0
 18 19  1  0  0  0
 19 20  1  0  0  0
 20 21  1  0  0  0
 19 22  1  0  0  0
 22 23  1  0  0  0
 22 24  1  0  0  0
 15 10  1  0  0  0
  7  1  1  0  0  0
 21 16  1  0  0  0
 34 29  1  0  0  0
  8  9  1  0  0  0
 27 28  1  0  0  0
M  END
> <minimizedAffinity>
-8.01948

> <CNNscore>
0.3192210197

> <CNNaffinity>
7.3677496910

> <CNN_VS>
2.3519406319

> <CNNaffinity_variance>
0.0658277720

$$$$
[H]c1nc(N([H])c2c([H])c([H])c(N3C([H])([H])C([H])([H])C([H])(N(C([H])([H])[H])C([H])([H])[H])C([H])([H])C3([H])[H])c([H])c2OC([H])([H])[H])nc(N([H])c2c([H])c([H])c([H])c([H])c2S(=O)(=O)C([H])(C([H])([H])[H])C([H])([H])[H])c1Cl


 40 43  0  0  0  0  0  0  0  0999 V2000
    4.4173    1.7065   19.6126 C   0  0  0  0  0  0  0  0  0  0  0  0
    4.2117    0.8715   20.6254 N   0  0  0  0  0  0  0  0  0  0  0  0
    4.1074    1.2738   21.8981 C   0  0  0  0  0  0  0  0  0  0  0  0
    4.2103    2.5991   22.2229 C   0  0  0  0  0  0  0  0  0  0  0  0
    4.0725    3.1812   23.8664 Cl  0  0  0  0  0  0  0  0  0  0  0  0
    4.4296    3.5347   21.1857 C   0  0  0  0  0  0  0  0  0  0  0  0
    4.5141    3.0183   19.9796 N   0  0  0  0  0  0  0  0  0  0  0  0
    4.5408    1.3709   18.2372 N   0  0  0  0  0  0  0  0  0  0  0  0
    5.2147    0.5578   17.9992 H   0  0  0  0  0  0  0  0  0  0  0  0
    4.4944    3.1092   16.5816 C   0  0  0  0  0  0  0  0  0  0  0  0
    3.8768    3.6884   15.5170 C   0  0  0  0  0  0  0  0  0  0  0  0
    2.7159    3.2149   14.9656 C   0  0  0  0  0  0  0  0  0  0  0  0
    2.1618    2.0958   15.5315 C   0  0  0  0  0  0  0  0  0  0  0  0
    2.7455    1.4599   16.6200 C   0  0  0  0  0  0  0  0  0  0  0  0
    3.9069    1.9530   17.1535 C   0  0  0  0  0  0  0  0  0  0  0  0
    2.0667    3.8295   13.8390 N   0  0  0  0  0  0  0  0  0  0  0  0
    2.4210    5.2045   13.5853 C   0  0  0  0  0  0  0  0  0  0  0  0
    1.8963    5.7833   12.3225 C   0  0  0  0  0  0  0  0  0  0  0  0
    1.4320    4.7446   11.3489 C   0  0  0  0  0  0  0  0  0  0  0  0
    0.3987    3.8756   12.0358 C   0  0  0  0  0  0  0  0  0  0  0  0
    1.1414    3.0658   13.0679 C   0  0  0  0  0  0  0  0  0  0  0  0
    0.9312    5.3565   10.1423 N   0  0  0  0  0  0  0  0  0  0  0  0
    1.4096    6.6936    9.9570 C   0  0  0  0  0  0  0  0  0  0  0  0
    1.1091    4.5249    8.9750 C   0  0  0  0  0  0  0  0  0  0  0  0
    5.8760    4.9754   17.2260 C   0  0  0  0  0  0  0  0  0  0  0  0
    5.6654    3.5964   17.1287 O   0  0  0  0  0  0  0  0  0  0  0  0
    4.5790    4.9012   21.5090 N   0  0  0  0  0  0  0  0  0  0  0  0
    4.6380    5.1073   22.5272 H   0  0  0  0  0  0  0  0  0  0  0  0
    4.6197    5.9590   20.6051 C   0  0  0  0  0  0  0  0  0  0  0  0
    3.6028    6.2282   19.6887 C   0  0  0  0  0  0  0  0  0  0  0  0
    3.6183    7.3591   18.8861 C   0  0  0  0  0  0  0  0  0  0  0  0
    4.6417    8.2615   18.9653 C   0  0  0  0  0  0  0  0  0  0  0  0
    5.6396    7.9973   19.8632 C   0  0  0  0  0  0  0  0  0  0  0  0
    5.6733    6.8700   20.6950 C   0  0  0  0  0  0  0  0  0  0  0  0
    7.0615    6.6422   21.6699 S   0  0  0  0  0  0  0  0  0  0  0  0
    6.8223    7.3898   23.0023 O   0  0  0  0  0  0  0  0  0  0  0  0
    7.2915    5.2225   22.1272 O   0  0  0  0  0  0  0  0  0  0  0  0
    8.5621    7.3265   21.0459 C   0  0  0  0  0  0  0  0  0  0  0  0
    8.6782    7.0842   19.5378 C   0  0  0  0  0  0  0  0  0  0  0  0
    8.7559    8.7689   21.2682 C   0  0  0  0  0  0  0  0  0  0  0  0
 25 26  1  0  0  0
 26 10  1  0  0  0
 10 11  2  0  0  0
 11 12  1  0  0  0
 12 13  2  0  0  0
 13 14  1  0  0  0
 14 15  2  0  0  0
 15  8  1  0  0  0
  8  1  1  0  0  0
  1  2  2  0  0  0
  2  3  1  0  0  0
  3  4  2  0  0  0
  4  5  1  0  0  0
  4  6  1  0  0  0
  6 27  1  0  0  0
 27 29  1  0  0  0
 29 30  2  0  0  0
 30 31  1  0  0  0
 31 32  2  0  0  0
 32 33  1  0  0  0
 33 34  2  0  0  0
 34 35  1  0  0  0
 35 36  2  0  0  0
 35 37  2  0  0  0
 35 38  1  0  0  0
 38 39  1  0  0  0
 38 40  1  0  0  0
  6  7  2  0  0  0
 12 16  1  0  0  0
 16 17  1  0  0  0
 17 18  1  0  0  0
 18 19  1  0  0  0
 19 20  1  0  0  0
 20 21  1  0  0  0
 19 22  1  0  0  0
 22 23  1  0  0  0
 22 24  1  0  0  0
 15 10  1  0  0  0
  7  1  1  0  0  0
 21 16  1  0  0  0
 34 29  1  0  0  0
  8  9  1  0  0  0
 27 28  1  0  0  0
M  END
> <minimizedAffinity>
-8.29843

> <CNNscore>
0.2980304062

> <CNNaffinity>
7.1315889359

> <CNN_VS>
2.1254303455

> <CNNaffinity_variance>
0.2330727875

$$$$
[H]c1nc(N([H])c2c([H])c([H])c(N3C([H])([H])C([H])([H])C([H])(N(C([H])([H])[H])C([H])([H])[H])C([H])([H])C3([H])[H])c([H])c2OC([H])([H])[H])nc(N([H])c2c([H])c([H])c([H])c([H])c2S(=O)(=O)C([H])(C([H])([H])[H])C([H])([H])[H])c1Cl


 40 43  0  0  0  0  0  0  0  0999 V2000
    3.8696    6.4687   18.5419 C   0  0  0  0  0  0  0  0  0  0  0  0
    3.6679    6.6837   17.2463 N   0  0  0  0  0  0  0  0  0  0  0  0
    3.8237    5.7368   16.3127 C   0  0  0  0  0  0  0  0  0  0  0  0
    4.2080    4.4701   16.6593 C   0  0  0  0  0  0  0  0  0  0  0  0
    4.4173    3.1927   15.4831 Cl  0  0  0  0  0  0  0  0  0  0  0  0
    4.4374    4.1825   18.0245 C   0  0  0  0  0  0  0  0  0  0  0  0
    4.2517    5.1930   18.8446 N   0  0  0  0  0  0  0  0  0  0  0  0
    3.7294    7.4088   19.5982 N   0  0  0  0  0  0  0  0  0  0  0  0
    2.7683    7.9007   19.6799 H   0  0  0  0  0  0  0  0  0  0  0  0
    4.9251    9.1641   20.7181 C   0  0  0  0  0  0  0  0  0  0  0  0
    5.8483    9.5383   21.6444 C   0  0  0  0  0  0  0  0  0  0  0  0
    6.5454    8.6503   22.4200 C   0  0  0  0  0  0  0  0  0  0  0  0
    6.2847    7.3167   22.2380 C   0  0  0  0  0  0  0  0  0  0  0  0
    5.3533    6.8729   21.3075 C   0  0  0  0  0  0  0  0  0  0  0  0
    4.6688    7.7809   20.5437 C   0  0  0  0  0  0  0  0  0  0  0  0
    7.5198    9.0501   23.3993 N   0  0  0  0  0  0  0  0  0  0  0  0
    7.9994    8.0040   24.2690 C   0  0  0  0  0  0  0  0  0  0  0  0
    9.1333    8.3708   25.1547 C   0  0  0  0  0  0  0  0  0  0  0  0
    9.8373    9.6192   24.7207 C   0  0  0  0  0  0  0  0  0  0  0  0
    8.8168   10.7349   24.6302 C   0  0  0  0  0  0  0  0  0  0  0  0
    7.9372   10.4129   23.4490 C   0  0  0  0  0  0  0  0  0  0  0  0
   10.9272    9.9328   25.6124 N   0  0  0  0  0  0  0  0  0  0  0  0
   10.5148   10.0352   26.9800 C   0  0  0  0  0  0  0  0  0  0  0  0
   12.0696    9.0685   25.4290 C   0  0  0  0  0  0  0  0  0  0  0  0
    4.7874   11.3157   19.6418 C   0  0  0  0  0  0  0  0  0  0  0  0
    4.2283   10.0695   19.9419 O   0  0  0  0  0  0  0  0  0  0  0  0
    4.8741    2.8913   18.3940 N   0  0  0  0  0  0  0  0  0  0  0  0
    5.9010    2.7389   18.3245 H   0  0  0  0  0  0  0  0  0  0  0  0
    4.0630    1.8349   18.7985 C   0  0  0  0  0  0  0  0  0  0  0  0
    3.2360    1.1227   17.9295 C   0  0  0  0  0  0  0  0  0  0  0  0
    2.5334   -0.0003   18.3400 C   0  0  0  0  0  0  0  0  0  0  0  0
    2.6275   -0.4557   19.6251 C   0  0  0  0  0  0  0  0  0  0  0  0
    3.4377    0.2431   20.4779 C   0  0  0  0  0  0  0  0  0  0  0  0
    4.1667    1.3836   20.1152 C   0  0  0  0  0  0  0  0  0  0  0  0
    5.0331    2.1984   21.3460 S   0  0  0  0  0  0  0  0  0  0  0  0
    6.1687    1.2594   21.8154 O   0  0  0  0  0  0  0  0  0  0  0  0
    5.7880    3.4226   20.8885 O   0  0  0  0  0  0  0  0  0  0  0  0
    4.1278    2.5607   22.8151 C   0  0  0  0  0  0  0  0  0  0  0  0
    4.9299    2.1553   24.0556 C   0  0  0  0  0  0  0  0  0  0  0  0
    3.7290    3.9660   22.9983 C   0  0  0  0  0  0  0  0  0  0  0  0
 25 26  1  0  0  0
 26 10  1  0  0  0
 10 11  2  0  0  0
 11 12  1  0  0  0
 12 13  2  0  0  0
 13 14  1  0  0  0
 14 15  2  0  0  0
 15  8  1  0  0  0
  8  1  1  0  0  0
  1  2  2  0  0  0
  2  3  1  0  0  0
  3  4  2  0  0  0
  4  5  1  0  0  0
  4  6  1  0  0  0
  6 27  1  0  0  0
 27 29  1  0  0  0
 29 30  2  0  0  0
 30 31  1  0  0  0
 31 32  2  0  0  0
 32 33  1  0  0  0
 33 34  2  0  0  0
 34 35  1  0  0  0
 35 36  2  0  0  0
 35 37  2  0  0  0
 35 38  1  0  0  0
 38 39  1  0  0  0
 38 40  1  0  0  0
  6  7  2  0  0  0
 12 16  1  0  0  0
 16 17  1  0  0  0
 17 18  1  0  0  0
 18 19  1  0  0  0
 19 20  1  0  0  0
 20 21  1  0  0  0
 19 22  1  0  0  0
 22 23  1  0  0  0
 22 24  1  0  0  0
 15 10  1  0  0  0
  7  1  1  0  0  0
 21 16  1  0  0  0
 34 29  1  0  0  0
  8  9  1  0  0  0
 27 28  1  0  0  0
M  END
> <minimizedAffinity>
-8.66989

> <CNNscore>
0.2552731633

> <CNNaffinity>
7.0295171738

> <CNN_VS>
1.7944470644

> <CNNaffinity_variance>
0.0798844993

$$$$
[H]c1nc(N([H])c2c([H])c([H])c(N3C([H])([H])C([H])([H])C([H])(N(C([H])([H])[H])C([H])([H])[H])C([H])([H])C3([H])[H])c([H])c2OC([H])([H])[H])nc(N([H])c2c([H])c([H])c([H])c([H])c2S(=O)(=O)C([H])(C([H])([H])[H])C([H])([H])[H])c1Cl


 40 43  0  0  0  0  0  0  0  0999 V2000
    3.4858    2.6772   15.4917 C   0  0  0  0  0  0  0  0  0  0  0  0
    3.2979    1.3800   15.7094 N   0  0  0  0  0  0  0  0  0  0  0  0
    3.3553    0.8246   16.9263 C   0  0  0  0  0  0  0  0  0  0  0  0
    3.6169    1.5880   18.0313 C   0  0  0  0  0  0  0  0  0  0  0  0
    3.6940    0.9172   19.6447 Cl  0  0  0  0  0  0  0  0  0  0  0  0
    3.8257    2.9760   17.8607 C   0  0  0  0  0  0  0  0  0  0  0  0
    3.7440    3.4023   16.6198 N   0  0  0  0  0  0  0  0  0  0  0  0
    3.4440    3.3508   14.2412 N   0  0  0  0  0  0  0  0  0  0  0  0
    4.3928    3.4928   13.7394 H   0  0  0  0  0  0  0  0  0  0  0  0
    1.8527    3.1326   12.4565 C   0  0  0  0  0  0  0  0  0  0  0  0
    0.7685    3.6206   11.7958 C   0  0  0  0  0  0  0  0  0  0  0  0
    0.1196    4.7727   12.1530 C   0  0  0  0  0  0  0  0  0  0  0  0
    0.6042    5.4568   13.2378 C   0  0  0  0  0  0  0  0  0  0  0  0
    1.7079    5.0088   13.9529 C   0  0  0  0  0  0  0  0  0  0  0  0
    2.3397    3.8534   13.5757 C   0  0  0  0  0  0  0  0  0  0  0  0
   -1.0274    5.2846   11.4525 N   0  0  0  0  0  0  0  0  0  0  0  0
   -0.7596    5.8920   10.1719 C   0  0  0  0  0  0  0  0  0  0  0  0
   -1.9540    6.2546    9.3676 C   0  0  0  0  0  0  0  0  0  0  0  0
   -3.2048    5.5771    9.8356 C   0  0  0  0  0  0  0  0  0  0  0  0
   -3.4012    5.8997   11.3025 C   0  0  0  0  0  0  0  0  0  0  0  0
   -2.3173    5.1649   12.0492 C   0  0  0  0  0  0  0  0  0  0  0  0
   -4.3340    5.9628    9.0248 N   0  0  0  0  0  0  0  0  0  0  0  0
   -5.5075    6.2348    9.7992 C   0  0  0  0  0  0  0  0  0  0  0  0
   -4.0188    7.0144    8.0864 C   0  0  0  0  0  0  0  0  0  0  0  0
    2.3700    1.4769   10.7837 C   0  0  0  0  0  0  0  0  0  0  0  0
    2.4985    1.9691   12.0864 O   0  0  0  0  0  0  0  0  0  0  0  0
    4.1372    3.7706   18.9858 N   0  0  0  0  0  0  0  0  0  0  0  0
    3.4789    3.6755   19.7859 H   0  0  0  0  0  0  0  0  0  0  0  0
    5.2002    4.6630   19.0917 C   0  0  0  0  0  0  0  0  0  0  0  0
    5.8503    5.2201   17.9901 C   0  0  0  0  0  0  0  0  0  0  0  0
    6.8244    6.1974   18.1295 C   0  0  0  0  0  0  0  0  0  0  0  0
    7.1861    6.6560   19.3651 C   0  0  0  0  0  0  0  0  0  0  0  0
    6.5494    6.1092   20.4456 C   0  0  0  0  0  0  0  0  0  0  0  0
    5.5614    5.1192   20.3603 C   0  0  0  0  0  0  0  0  0  0  0  0
    4.9611    4.4664   21.8243 S   0  0  0  0  0  0  0  0  0  0  0  0
    5.1553    5.5355   22.9247 O   0  0  0  0  0  0  0  0  0  0  0  0
    3.4703    4.2337   21.8527 O   0  0  0  0  0  0  0  0  0  0  0  0
    5.8063    3.0460   22.4383 C   0  0  0  0  0  0  0  0  0  0  0  0
    4.8514    2.1560   23.2400 C   0  0  0  0  0  0  0  0  0  0  0  0
    6.4495    2.1899   21.4280 C   0  0  0  0  0  0  0  0  0  0  0  0
 25 26  1  0  0  0
 26 10  1  0  0  0
 10 11  2  0  0  0
 11 12  1  0  0  0
 12 13  2  0  0  0
 13 14  1  0  0  0
 14 15  2  0  0  0
 15  8  1  0  0  0
  8  1  1  0  0  0
  1  2  2  0  0  0
  2  3  1  0  0  0
  3  4  2  0  0  0
  4  5  1  0  0  0
  4  6  1  0  0  0
  6 27  1  0  0  0
 27 29  1  0  0  0
 29 30  2  0  0  0
 30 31  1  0  0  0
 31 32  2  0  0  0
 32 33  1  0  0  0
 33 34  2  0  0  0
 34 35  1  0  0  0
 35 36  2  0  0  0
 35 37  2  0  0  0
 35 38  1  0  0  0
 38 39  1  0  0  0
 38 40  1  0  0  0
  6  7  2  0  0  0
 12 16  1  0  0  0
 16 17  1  0  0  0
 17 18  1  0  0  0
 18 19  1  0  0  0
 19 20  1  0  0  0
 20 21  1  0  0  0
 19 22  1  0  0  0
 22 23  1  0  0  0
 22 24  1  0  0  0
 15 10  1  0  0  0
  7  1  1  0  0  0
 21 16  1  0  0  0
 34 29  1  0  0  0
  8  9  1  0  0  0
 27 28  1  0  0  0
M  END
> <minimizedAffinity>
-7.57801

> <CNNscore>
0.2163713723

> <CNNaffinity>
6.7110610008

> <CNN_VS>
1.4520814419

> <CNNaffinity_variance>
0.2598204315

$$$$
[H]c1nc(N([H])c2c([H])c([H])c(N3C([H])([H])C([H])([H])C([H])(N(C([H])([H])[H])C([H])([H])[H])C([H])([H])C3([H])[H])c([H])c2OC([H])([H])[H])nc(N([H])c2c([H])c([H])c([H])c([H])c2S(=O)(=O)C([H])(C([H])([H])[H])C([H])([H])[H])c1Cl


 40 43  0  0  0  0  0  0  0  0999 V2000
    3.9295    2.5226   16.3722 C   0  0  0  0  0  0  0  0  0  0  0  0
    3.1294    1.4897   16.1305 N   0  0  0  0  0  0  0  0  0  0  0  0
    2.2435    1.4672   15.1270 C   0  0  0  0  0  0  0  0  0  0  0  0
    2.1180    2.5357   14.2813 C   0  0  0  0  0  0  0  0  0  0  0  0
    0.9849    2.5566   12.9492 Cl  0  0  0  0  0  0  0  0  0  0  0  0
    2.9439    3.6642   14.4901 C   0  0  0  0  0  0  0  0  0  0  0  0
    3.7723    3.5668   15.5062 N   0  0  0  0  0  0  0  0  0  0  0  0
    4.8950    2.6341   17.4089 N   0  0  0  0  0  0  0  0  0  0  0  0
    5.5612    1.7906   17.5385 H   0  0  0  0  0  0  0  0  0  0  0  0
    4.7692    3.4937   19.6472 C   0  0  0  0  0  0  0  0  0  0  0  0
    4.9625    4.5260   20.5117 C   0  0  0  0  0  0  0  0  0  0  0  0
    5.4569    5.7465   20.1350 C   0  0  0  0  0  0  0  0  0  0  0  0
    5.7677    5.9174   18.8106 C   0  0  0  0  0  0  0  0  0  0  0  0
    5.5923    4.9008   17.8801 C   0  0  0  0  0  0  0  0  0  0  0  0
    5.0961    3.6889   18.2819 C   0  0  0  0  0  0  0  0  0  0  0  0
    5.6611    6.8351   21.0524 N   0  0  0  0  0  0  0  0  0  0  0  0
    6.4924    6.5440   22.1946 C   0  0  0  0  0  0  0  0  0  0  0  0
    6.8541    7.7081   23.0426 C   0  0  0  0  0  0  0  0  0  0  0  0
    6.6330    9.0227   22.3603 C   0  0  0  0  0  0  0  0  0  0  0  0
    5.1884    9.0886   21.9093 C   0  0  0  0  0  0  0  0  0  0  0  0
    5.0474    8.0944   20.7849 C   0  0  0  0  0  0  0  0  0  0  0  0
    6.9969   10.1193   23.2242 N   0  0  0  0  0  0  0  0  0  0  0  0
    8.0278    9.7742   24.1565 C   0  0  0  0  0  0  0  0  0  0  0  0
    7.2737   11.3375   22.4995 C   0  0  0  0  0  0  0  0  0  0  0  0
    3.9594    2.0310   21.3826 C   0  0  0  0  0  0  0  0  0  0  0  0
    4.2699    2.2672   20.0397 O   0  0  0  0  0  0  0  0  0  0  0  0
    2.7980    4.7909   13.6513 N   0  0  0  0  0  0  0  0  0  0  0  0
    2.6393    4.5722   12.6465 H   0  0  0  0  0  0  0  0  0  0  0  0
    2.8791    6.1236   14.0451 C   0  0  0  0  0  0  0  0  0  0  0  0
    3.7428    6.5810   15.0406 C   0  0  0  0  0  0  0  0  0  0  0  0
    3.8864    7.9308   15.3247 C   0  0  0  0  0  0  0  0  0  0  0  0
    3.1794    8.8726   14.6312 C   0  0  0  0  0  0  0  0  0  0  0  0
    2.3315    8.4243   13.6554 C   0  0  0  0  0  0  0  0  0  0  0  0
    2.1479    7.0736   13.3304 C   0  0  0  0  0  0  0  0  0  0  0  0
    0.9555    6.6914   12.1635 S   0  0  0  0  0  0  0  0  0  0  0  0
    0.9482    7.8288   11.1158 O   0  0  0  0  0  0  0  0  0  0  0  0
    1.2550    5.4738   11.3236 O   0  0  0  0  0  0  0  0  0  0  0  0
   -0.7054    6.6259   12.7519 C   0  0  0  0  0  0  0  0  0  0  0  0
   -1.4026    5.3552   12.2560 C   0  0  0  0  0  0  0  0  0  0  0  0
   -0.8753    6.6699   14.2136 C   0  0  0  0  0  0  0  0  0  0  0  0
 25 26  1  0  0  0
 26 10  1  0  0  0
 10 11  2  0  0  0
 11 12  1  0  0  0
 12 13  2  0  0  0
 13 14  1  0  0  0
 14 15  2  0  0  0
 15  8  1  0  0  0
  8  1  1  0  0  0
  1  2  2  0  0  0
  2  3  1  0  0  0
  3  4  2  0  0  0
  4  5  1  0  0  0
  4  6  1  0  0  0
  6 27  1  0  0  0
 27 29  1  0  0  0
 29 30  2  0  0  0
 30 31  1  0  0  0
 31 32  2  0  0  0
 32 33  1  0  0  0
 33 34  2  0  0  0
 34 35  1  0  0  0
 35 36  2  0  0  0
 35 37  2  0  0  0
 35 38  1  0  0  0
 38 39  1  0  0  0
 38 40  1  0  0  0
  6  7  2  0  0  0
 12 16  1  0  0  0
 16 17  1  0  0  0
 17 18  1  0  0  0
 18 19  1  0  0  0
 19 20  1  0  0  0
 20 21  1  0  0  0
 19 22  1  0  0  0
 22 23  1  0  0  0
 22 24  1  0  0  0
 15 10  1  0  0  0
  7  1  1  0  0  0
 21 16  1  0  0  0
 34 29  1  0  0  0
  8  9  1  0  0  0
 27 28  1  0  0  0
M  END
> <minimizedAffinity>
-8.50189

> <CNNscore>
0.1565373093

> <CNNaffinity>
6.6548910141

> <CNN_VS>
1.0417387486

> <CNNaffinity_variance>
0.2134138048

$$$$
[H]c1c([H])c([H])c2c(c1[H])c1c3c(c4c5c([H])c([H])c([H])c([H])c5n5c4c1n2[C@]1([H])O[C@]5(C([H])([H])[H])[C@]([H])(OC([H])([H])[H])[C@]([H])(N([H])C([H])([H])[H])C1([H])[H])C([H])([H])N([H])C3=O


 37 44  0  0  0  0  0  0  0  0999 V2000
    5.1325    7.0099   21.2958 C   0  0  0  0  0  0  0  0  0  0  0  0
    5.1628    5.4926   21.6791 C   0  0  0  0  0  0  0  0  0  0  0  0
    4.8832    4.9107   20.4626 C   0  0  0  0  0  0  0  0  0  0  0  0
    5.8876    5.3553   19.6152 O   0  0  0  0  0  0  0  0  0  0  0  0
    5.3071    6.4055   18.8355 C   0  0  0  0  0  0  0  0  0  0  0  0
    6.5846    7.0741   18.2713 C   0  0  0  0  0  0  0  0  0  0  0  0
    4.6529    7.2258   19.8359 C   0  0  0  0  0  0  0  0  0  0  0  0
    4.6002    5.7262   17.7739 N   0  0  0  0  0  0  0  0  0  0  0  0
    4.3719    6.2061   16.5241 C   0  0  0  0  0  0  0  0  0  0  0  0
    4.5780    7.4250   15.9599 C   0  0  0  0  0  0  0  0  0  0  0  0
    4.2422    7.6896   14.6185 C   0  0  0  0  0  0  0  0  0  0  0  0
    3.6874    6.6930   13.8455 C   0  0  0  0  0  0  0  0  0  0  0  0
    3.4625    5.4358   14.3916 C   0  0  0  0  0  0  0  0  0  0  0  0
    3.8123    5.2378   15.7105 C   0  0  0  0  0  0  0  0  0  0  0  0
    3.6828    4.1250   16.4748 C   0  0  0  0  0  0  0  0  0  0  0  0
    3.2327    2.8182   16.2832 C   0  0  0  0  0  0  0  0  0  0  0  0
    2.6820    2.2424   15.0292 C   0  0  0  0  0  0  0  0  0  0  0  0
    2.3726    0.8755   15.3717 N   0  0  0  0  0  0  0  0  0  0  0  0
    2.7118    0.6163   16.7521 C   0  0  0  0  0  0  0  0  0  0  0  0
    2.5216   -0.5097   17.2441 O   0  0  0  0  0  0  0  0  0  0  0  0
    3.2426    1.8556   17.2741 C   0  0  0  0  0  0  0  0  0  0  0  0
    3.7156    2.1806   18.5350 C   0  0  0  0  0  0  0  0  0  0  0  0
    3.8232    1.5390   19.7357 C   0  0  0  0  0  0  0  0  0  0  0  0
    3.5558    0.2825   20.1692 C   0  0  0  0  0  0  0  0  0  0  0  0
    3.7956   -0.0291   21.5127 C   0  0  0  0  0  0  0  0  0  0  0  0
    4.2925    0.9137   22.3825 C   0  0  0  0  0  0  0  0  0  0  0  0
    4.5677    2.1963   21.9482 C   0  0  0  0  0  0  0  0  0  0  0  0
    4.3224    2.4844   20.6113 C   0  0  0  0  0  0  0  0  0  0  0  0
    4.5171    3.6386   20.0043 N   0  0  0  0  0  0  0  0  0  0  0  0
    4.1536    3.4699   18.7048 C   0  0  0  0  0  0  0  0  0  0  0  0
    4.1497    4.4411   17.6907 C   0  0  0  0  0  0  0  0  0  0  0  0
    1.9650    0.2014   14.6984 H   0  0  0  0  0  0  0  0  0  0  0  0
    7.1106    6.9698   22.5646 C   0  0  0  0  0  0  0  0  0  0  0  0
    6.3817    7.6413   21.5303 N   0  0  0  0  0  0  0  0  0  0  0  0
    6.3260    8.6503   21.6439 H   0  0  0  0  0  0  0  0  0  0  0  0
    5.0893    8.5699   19.6221 O   0  0  0  0  0  0  0  0  0  0  0  0
    4.0453    9.4250   19.3682 C   0  0  0  0  0  0  0  0  0  0  0  0
 33 34  1  0  0  0
 34  1  1  0  0  0
  1  2  1  0  0  0
  2  3  1  0  0  0
  3  4  1  0  0  0
  4  5  1  0  0  0
  5  6  1  0  0  0
  5  7  1  0  0  0
  7 36  1  0  0  0
 36 37  1  0  0  0
  5  8  1  0  0  0
  8  9  1  0  0  0
  9 10  2  0  0  0
 10 11  1  0  0  0
 11 12  2  0  0  0
 12 13  1  0  0  0
 13 14  2  0  0  0
 14 15  1  0  0  0
 15 16  2  0  0  0
 16 17  1  0  0  0
 17 18  1  0  0  0
 18 19  1  0  0  0
 19 20  2  0  0  0
 19 21  1  0  0  0
 21 22  2  0  0  0
 22 23  1  0  0  0
 23 24  2  0  0  0
 24 25  1  0  0  0
 25 26  2  0  0  0
 26 27  1  0  0  0
 27 28  2  0  0  0
 28 29  1  0  0  0
 29 30  1  0  0  0
 30 31  2  0  0  0
  7  1  1  0  0  0
 31  8  1  0  0  0
 29  3  1  0  0  0
 14  9  1  0  0  0
 31 15  1  0  0  0
 21 16  1  0  0  0
 30 22  1  0  0  0
 28 23  1  0  0  0
 34 35  1  0  0  0
 18 32  1  0  0  0
M  END
> <minimizedAffinity>
-11.33031

> <CNNscore>
0.6934766769

> <CNNaffinity>
6.9977316856

> <CNN_VS>
4.8527636528

> <CNNaffinity_variance>
0.0902644247

$$$$
[H]c1c([H])c([H])c2c(c1[H])c1c3c(c4c5c([H])c([H])c([H])c([H])c5n5c4c1n2[C@]1([H])O[C@]5(C([H])([H])[H])[C@]([H])(OC([H])([H])[H])[C@]([H])(N([H])C([H])([H])[H])C1([H])[H])C([H])([H])N([H])C3=O


 37 44  0  0  0  0  0  0  0  0999 V2000
    6.7909    6.0435    7.7569 C   0  0  0  0  0  0  0  0  0  0  0  0
    6.8514    4.4860    7.9004 C   0  0  0  0  0  0  0  0  0  0  0  0
    5.5104    4.1760    7.9462 C   0  0  0  0  0  0  0  0  0  0  0  0
    4.9896    4.6685    6.7583 O   0  0  0  0  0  0  0  0  0  0  0  0
    4.3437    5.9006    7.0937 C   0  0  0  0  0  0  0  0  0  0  0  0
    4.1948    6.5306    5.6873 C   0  0  0  0  0  0  0  0  0  0  0  0
    5.3413    6.5791    7.8976 C   0  0  0  0  0  0  0  0  0  0  0  0
    3.0461    5.5096    7.5951 N   0  0  0  0  0  0  0  0  0  0  0  0
    1.9021    6.2378    7.5203 C   0  0  0  0  0  0  0  0  0  0  0  0
    1.6537    7.5140    7.1252 C   0  0  0  0  0  0  0  0  0  0  0  0
    0.3563    8.0602    7.1483 C   0  0  0  0  0  0  0  0  0  0  0  0
   -0.7000    7.2893    7.5824 C   0  0  0  0  0  0  0  0  0  0  0  0
   -0.4806    5.9809    7.9941 C   0  0  0  0  0  0  0  0  0  0  0  0
    0.8118    5.5026    7.9486 C   0  0  0  0  0  0  0  0  0  0  0  0
    1.2890    4.2845    8.3057 C   0  0  0  0  0  0  0  0  0  0  0  0
    0.7466    3.0900    8.7813 C   0  0  0  0  0  0  0  0  0  0  0  0
   -0.6831    2.8207    9.0829 C   0  0  0  0  0  0  0  0  0  0  0  0
   -0.6981    1.4522    9.5397 N   0  0  0  0  0  0  0  0  0  0  0  0
    0.6385    0.9037    9.5214 C   0  0  0  0  0  0  0  0  0  0  0  0
    0.8400   -0.2697    9.8799 O   0  0  0  0  0  0  0  0  0  0  0  0
    1.4996    1.9616    9.0422 C   0  0  0  0  0  0  0  0  0  0  0  0
    2.8687    1.9925    8.8329 C   0  0  0  0  0  0  0  0  0  0  0  0
    3.9082    1.1280    9.0245 C   0  0  0  0  0  0  0  0  0  0  0  0
    4.0114   -0.1540    9.4534 C   0  0  0  0  0  0  0  0  0  0  0  0
    5.2821   -0.7367    9.5272 C   0  0  0  0  0  0  0  0  0  0  0  0
    6.4086   -0.0308    9.1736 C   0  0  0  0  0  0  0  0  0  0  0  0
    6.3115    1.2761    8.7353 C   0  0  0  0  0  0  0  0  0  0  0  0
    5.0412    1.8351    8.6697 C   0  0  0  0  0  0  0  0  0  0  0  0
    4.7363    3.0574    8.2805 N   0  0  0  0  0  0  0  0  0  0  0  0
    3.3842    3.1752    8.3654 C   0  0  0  0  0  0  0  0  0  0  0  0
    2.6120    4.3159    8.0932 C   0  0  0  0  0  0  0  0  0  0  0  0
   -1.5631    0.9625    9.8325 H   0  0  0  0  0  0  0  0  0  0  0  0
    8.5286    5.6815    6.2162 C   0  0  0  0  0  0  0  0  0  0  0  0
    7.3940    6.4890    6.5520 N   0  0  0  0  0  0  0  0  0  0  0  0
    7.5665    7.4905    6.5155 H   0  0  0  0  0  0  0  0  0  0  0  0
    5.5002    7.8880    7.3460 O   0  0  0  0  0  0  0  0  0  0  0  0
    5.1430    8.8757    8.2305 C   0  0  0  0  0  0  0  0  0  0  0  0
 33 34  1  0  0  0
 34  1  1  0  0  0
  1  2  1  0  0  0
  2  3  1  0  0  0
  3  4  1  0  0  0
  4  5  1  0  0  0
  5  6  1  0  0  0
  5  7  1  0  0  0
  7 36  1  0  0  0
 36 37  1  0  0  0
  5  8  1  0  0  0
  8  9  1  0  0  0
  9 10  2  0  0  0
 10 11  1  0  0  0
 11 12  2  0  0  0
 12 13  1  0  0  0
 13 14  2  0  0  0
 14 15  1  0  0  0
 15 16  2  0  0  0
 16 17  1  0  0  0
 17 18  1  0  0  0
 18 19  1  0  0  0
 19 20  2  0  0  0
 19 21  1  0  0  0
 21 22  2  0  0  0
 22 23  1  0  0  0
 23 24  2  0  0  0
 24 25  1  0  0  0
 25 26  2  0  0  0
 26 27  1  0  0  0
 27 28  2  0  0  0
 28 29  1  0  0  0
 29 30  1  0  0  0
 30 31  2  0  0  0
  7  1  1  0  0  0
 31  8  1  0  0  0
 29  3  1  0  0  0
 14  9  1  0  0  0
 31 15  1  0  0  0
 21 16  1  0  0  0
 30 22  1  0  0  0
 28 23  1  0  0  0
 34 35  1  0  0  0
 18 32  1  0  0  0
M  END
> <minimizedAffinity>
-5.33449

> <CNNscore>
0.6104817390

> <CNNaffinity>
5.7259278297

> <CNN_VS>
3.4955744743

> <CNNaffinity_variance>
0.3484771550

$$$$
[H]c1c([H])c([H])c2c(c1[H])c1c3c(c4c5c([H])c([H])c([H])c([H])c5n5c4c1n2[C@]1([H])O[C@]5(C([H])([H])[H])[C@]([H])(OC([H])([H])[H])[C@]([H])(N([H])C([H])([H])[H])C1([H])[H])C([H])([H])N([H])C3=O


 37 44  0  0  0  0  0  0  0  0999 V2000
    4.5380   -3.0450    7.0092 C   0  0  0  0  0  0  0  0  0  0  0  0
    5.3649   -1.8872    7.6617 C   0  0  0  0  0  0  0  0  0  0  0  0
    4.3559   -1.1066    8.1808 C   0  0  0  0  0  0  0  0  0  0  0  0
    3.6692   -1.9425    9.0493 O   0  0  0  0  0  0  0  0  0  0  0  0
    2.4927   -2.3565    8.3477 C   0  0  0  0  0  0  0  0  0  0  0  0
    2.0617   -3.5659    9.2130 C   0  0  0  0  0  0  0  0  0  0  0  0
    3.0130   -2.7615    7.0566 C   0  0  0  0  0  0  0  0  0  0  0  0
    1.5579   -1.2690    8.5257 N   0  0  0  0  0  0  0  0  0  0  0  0
    0.2039   -1.3696    8.5594 C   0  0  0  0  0  0  0  0  0  0  0  0
   -0.6436   -2.4017    8.3087 C   0  0  0  0  0  0  0  0  0  0  0  0
   -2.0409   -2.2554    8.4006 C   0  0  0  0  0  0  0  0  0  0  0  0
   -2.5766   -1.0358    8.7532 C   0  0  0  0  0  0  0  0  0  0  0  0
   -1.7383    0.0402    9.0153 C   0  0  0  0  0  0  0  0  0  0  0  0
   -0.3790   -0.1651    8.9087 C   0  0  0  0  0  0  0  0  0  0  0  0
    0.6384    0.7125    9.0926 C   0  0  0  0  0  0  0  0  0  0  0  0
    0.7588    2.0498    9.4724 C   0  0  0  0  0  0  0  0  0  0  0  0
   -0.3493    2.9871    9.7902 C   0  0  0  0  0  0  0  0  0  0  0  0
    0.3153    4.2256   10.1159 N   0  0  0  0  0  0  0  0  0  0  0  0
    1.7476    4.0680   10.0096 C   0  0  0  0  0  0  0  0  0  0  0  0
    2.5037    5.0249   10.2520 O   0  0  0  0  0  0  0  0  0  0  0  0
    1.9716    2.6977    9.6068 C   0  0  0  0  0  0  0  0  0  0  0  0
    3.1451    2.0067    9.3527 C   0  0  0  0  0  0  0  0  0  0  0  0
    4.4755    2.3136    9.3245 C   0  0  0  0  0  0  0  0  0  0  0  0
    5.1998    3.4276    9.5939 C   0  0  0  0  0  0  0  0  0  0  0  0
    6.5912    3.3744    9.4499 C   0  0  0  0  0  0  0  0  0  0  0  0
    7.2194    2.2199    9.0441 C   0  0  0  0  0  0  0  0  0  0  0  0
    6.4882    1.0804    8.7679 C   0  0  0  0  0  0  0  0  0  0  0  0
    5.1088    1.1549    8.9171 C   0  0  0  0  0  0  0  0  0  0  0  0
    4.2389    0.1868    8.7058 N   0  0  0  0  0  0  0  0  0  0  0  0
    3.0071    0.6932    8.9803 C   0  0  0  0  0  0  0  0  0  0  0  0
    1.7717    0.0377    8.8547 C   0  0  0  0  0  0  0  0  0  0  0  0
   -0.1934    5.0876   10.3839 H   0  0  0  0  0  0  0  0  0  0  0  0
    5.8336   -4.9948    6.8000 C   0  0  0  0  0  0  0  0  0  0  0  0
    4.8493   -4.3063    7.5804 N   0  0  0  0  0  0  0  0  0  0  0  0
    4.0370   -4.8685    7.8217 H   0  0  0  0  0  0  0  0  0  0  0  0
    2.5037   -4.0710    6.7949 O   0  0  0  0  0  0  0  0  0  0  0  0
    1.8069   -4.1350    5.6134 C   0  0  0  0  0  0  0  0  0  0  0  0
 33 34  1  0  0  0
 34  1  1  0  0  0
  1  2  1  0  0  0
  2  3  1  0  0  0
  3  4  1  0  0  0
  4  5  1  0  0  0
  5  6  1  0  0  0
  5  7  1  0  0  0
  7 36  1  0  0  0
 36 37  1  0  0  0
  5  8  1  0  0  0
  8  9  1  0  0  0
  9 10  2  0  0  0
 10 11  1  0  0  0
 11 12  2  0  0  0
 12 13  1  0  0  0
 13 14  2  0  0  0
 14 15  1  0  0  0
 15 16  2  0  0  0
 16 17  1  0  0  0
 17 18  1  0  0  0
 18 19  1  0  0  0
 19 20  2  0  0  0
 19 21  1  0  0  0
 21 22  2  0  0  0
 22 23  1  0  0  0
 23 24  2  0  0  0
 24 25  1  0  0  0
 25 26  2  0  0  0
 26 27  1  0  0  0
 27 28  2  0  0  0
 28 29  1  0  0  0
 29 30  1  0  0  0
 30 31  2  0  0  0
  7  1  1  0  0  0
 31  8  1  0  0  0
 29  3  1  0  0  0
 14  9  1  0  0  0
 31 15  1  0  0  0
 21 16  1  0  0  0
 30 22  1  0  0  0
 28 23  1  0  0  0
 34 35  1  0  0  0
 18 32  1  0  0  0
M  END
> <minimizedAffinity>
-5.68238

> <CNNscore>
0.4998612106

> <CNNaffinity>
5.5033030510

> <CNN_VS>
2.7508876324

> <CNNaffinity_variance>
0.1471277773

$$$$
[H]c1c([H])c([H])c2c(c1[H])c1c3c(c4c5c([H])c([H])c([H])c([H])c5n5c4c1n2[C@]1([H])O[C@]5(C([H])([H])[H])[C@]([H])(OC([H])([H])[H])[C@]([H])(N([H])C([H])([H])[H])C1([H])[H])C([H])([H])N([H])C3=O


 37 44  0  0  0  0  0  0  0  0999 V2000
    1.3934    5.6572   11.1199 C   0  0  0  0  0  0  0  0  0  0  0  0
    0.7596    6.4297    9.9151 C   0  0  0  0  0  0  0  0  0  0  0  0
    1.7038    6.2078    8.9374 C   0  0  0  0  0  0  0  0  0  0  0  0
    1.7766    4.8276    8.8183 O   0  0  0  0  0  0  0  0  0  0  0  0
    2.9525    4.4334    9.5323 C   0  0  0  0  0  0  0  0  0  0  0  0
    2.6911    2.9151    9.6857 C   0  0  0  0  0  0  0  0  0  0  0  0
    2.8201    5.1442   10.7889 C   0  0  0  0  0  0  0  0  0  0  0  0
    4.0366    4.6522    8.6022 N   0  0  0  0  0  0  0  0  0  0  0  0
    5.2054    3.9624    8.5527 C   0  0  0  0  0  0  0  0  0  0  0  0
    5.7542    3.0313    9.3764 C   0  0  0  0  0  0  0  0  0  0  0  0
    7.0121    2.4558    9.1142 C   0  0  0  0  0  0  0  0  0  0  0  0
    7.7170    2.8397    7.9942 C   0  0  0  0  0  0  0  0  0  0  0  0
    7.1851    3.7898    7.1319 C   0  0  0  0  0  0  0  0  0  0  0  0
    5.9494    4.3170    7.4421 C   0  0  0  0  0  0  0  0  0  0  0  0
    5.2278    5.2576    6.7836 C   0  0  0  0  0  0  0  0  0  0  0  0
    5.3710    5.9973    5.6090 C   0  0  0  0  0  0  0  0  0  0  0  0
    6.5184    5.9554    4.6662 C   0  0  0  0  0  0  0  0  0  0  0  0
    6.1661    6.9014    3.6354 N   0  0  0  0  0  0  0  0  0  0  0  0
    4.8787    7.4933    3.9182 C   0  0  0  0  0  0  0  0  0  0  0  0
    4.3930    8.3375    3.1452 O   0  0  0  0  0  0  0  0  0  0  0  0
    4.4265    6.8978    5.1556 C   0  0  0  0  0  0  0  0  0  0  0  0
    3.2689    7.0987    5.8896 C   0  0  0  0  0  0  0  0  0  0  0  0
    2.1783    7.9150    5.7940 C   0  0  0  0  0  0  0  0  0  0  0  0
    1.7565    8.8359    4.8928 C   0  0  0  0  0  0  0  0  0  0  0  0
    0.5486    9.5025    5.1298 C   0  0  0  0  0  0  0  0  0  0  0  0
   -0.2019    9.2350    6.2512 C   0  0  0  0  0  0  0  0  0  0  0  0
    0.2212    8.2977    7.1741 C   0  0  0  0  0  0  0  0  0  0  0  0
    1.4227    7.6479    6.9198 C   0  0  0  0  0  0  0  0  0  0  0  0
    1.9960    6.7273    7.6697 N   0  0  0  0  0  0  0  0  0  0  0  0
    3.1458    6.3631    7.0414 C   0  0  0  0  0  0  0  0  0  0  0  0
    4.1052    5.4423    7.4921 C   0  0  0  0  0  0  0  0  0  0  0  0
    6.7740    7.1040    2.8211 H   0  0  0  0  0  0  0  0  0  0  0  0
   -0.8263    4.9571   11.4465 C   0  0  0  0  0  0  0  0  0  0  0  0
    0.5564    4.6054   11.5751 N   0  0  0  0  0  0  0  0  0  0  0  0
    0.8112    4.2320   12.4859 H   0  0  0  0  0  0  0  0  0  0  0  0
    2.9912    4.1815   11.8314 O   0  0  0  0  0  0  0  0  0  0  0  0
    4.0120    4.5135   12.6878 C   0  0  0  0  0  0  0  0  0  0  0  0
 33 34  1  0  0  0
 34  1  1  0  0  0
  1  2  1  0  0  0
  2  3  1  0  0  0
  3  4  1  0  0  0
  4  5  1  0  0  0
  5  6  1  0  0  0
  5  7  1  0  0  0
  7 36  1  0  0  0
 36 37  1  0  0  0
  5  8  1  0  0  0
  8  9  1  0  0  0
  9 10  2  0  0  0
 10 11  1  0  0  0
 11 12  2  0  0  0
 12 13  1  0  0  0
 13 14  2  0  0  0
 14 15  1  0  0  0
 15 16  2  0  0  0
 16 17  1  0  0  0
 17 18  1  0  0  0
 18 19  1  0  0  0
 19 20  2  0  0  0
 19 21  1  0  0  0
 21 22  2  0  0  0
 22 23  1  0  0  0
 23 24  2  0  0  0
 24 25  1  0  0  0
 25 26  2  0  0  0
 26 27  1  0  0  0
 27 28  2  0  0  0
 28 29  1  0  0  0
 29 30  1  0  0  0
 30 31  2  0  0  0
  7  1  1  0  0  0
 31  8  1  0  0  0
 29  3  1  0  0  0
 14  9  1  0  0  0
 31 15  1  0  0  0
 21 16  1  0  0  0
 30 22  1  0  0  0
 28 23  1  0  0  0
 34 35  1  0  0  0
 18 32  1  0  0  0
M  END
> <minimizedAffinity>
-5.16354

> <CNNscore>
0.4568843544

> <CNNaffinity>
5.6884965897

> <CNN_VS>
2.5989851952

> <CNNaffinity_variance>
0.2371606827

$$$$
[H]c1c([H])c([H])c2c(c1[H])c1c3c(c4c5c([H])c([H])c([H])c([H])c5n5c4c1n2[C@]1([H])O[C@]5(C([H])([H])[H])[C@]([H])(OC([H])([H])[H])[C@]([H])(N([H])C([H])([H])[H])C1([H])[H])C([H])([H])N([H])C3=O


 37 44  0  0  0  0  0  0  0  0999 V2000
    0.5808    4.3458   11.6233 C   0  0  0  0  0  0  0  0  0  0  0  0
    0.8354    5.5892   10.7072 C   0  0  0  0  0  0  0  0  0  0  0  0
    1.8881    5.1383    9.9423 C   0  0  0  0  0  0  0  0  0  0  0  0
    1.4110    3.9958    9.3166 O   0  0  0  0  0  0  0  0  0  0  0  0
    1.9476    2.8920   10.0526 C   0  0  0  0  0  0  0  0  0  0  0  0
    1.0341    1.7484    9.5477 C   0  0  0  0  0  0  0  0  0  0  0  0
    1.6664    3.2543   11.4279 C   0  0  0  0  0  0  0  0  0  0  0  0
    3.2838    2.7182    9.5305 N   0  0  0  0  0  0  0  0  0  0  0  0
    3.9763    1.5518    9.4651 C   0  0  0  0  0  0  0  0  0  0  0  0
    3.7278    0.3108    9.9598 C   0  0  0  0  0  0  0  0  0  0  0  0
    4.6219   -0.7594    9.7664 C   0  0  0  0  0  0  0  0  0  0  0  0
    5.7859   -0.5554    9.0579 C   0  0  0  0  0  0  0  0  0  0  0  0
    6.0710    0.7013    8.5394 C   0  0  0  0  0  0  0  0  0  0  0  0
    5.1567    1.7092    8.7618 C   0  0  0  0  0  0  0  0  0  0  0  0
    5.2048    3.0104    8.3827 C   0  0  0  0  0  0  0  0  0  0  0  0
    6.0756    3.8129    7.6446 C   0  0  0  0  0  0  0  0  0  0  0  0
    7.3589    3.3951    7.0235 C   0  0  0  0  0  0  0  0  0  0  0  0
    7.8537    4.5933    6.3900 N   0  0  0  0  0  0  0  0  0  0  0  0
    6.9344    5.6876    6.6019 C   0  0  0  0  0  0  0  0  0  0  0  0
    7.1794    6.8126    6.1324 O   0  0  0  0  0  0  0  0  0  0  0  0
    5.8458    5.1506    7.3872 C   0  0  0  0  0  0  0  0  0  0  0  0
    4.6994    5.7523    7.8803 C   0  0  0  0  0  0  0  0  0  0  0  0
    4.1792    7.0149    7.8808 C   0  0  0  0  0  0  0  0  0  0  0  0
    4.5575    8.1989    7.3393 C   0  0  0  0  0  0  0  0  0  0  0  0
    3.7524    9.3235    7.5558 C   0  0  0  0  0  0  0  0  0  0  0  0
    2.5993    9.2385    8.3011 C   0  0  0  0  0  0  0  0  0  0  0  0
    2.2071    8.0353    8.8560 C   0  0  0  0  0  0  0  0  0  0  0  0
    3.0204    6.9319    8.6290 C   0  0  0  0  0  0  0  0  0  0  0  0
    2.8241    5.7037    9.0667 N   0  0  0  0  0  0  0  0  0  0  0  0
    3.8554    4.9479    8.6038 C   0  0  0  0  0  0  0  0  0  0  0  0
    4.0901    3.5863    8.8540 C   0  0  0  0  0  0  0  0  0  0  0  0
    8.7465    4.6289    5.8653 H   0  0  0  0  0  0  0  0  0  0  0  0
   -1.7211    4.8145   11.6997 C   0  0  0  0  0  0  0  0  0  0  0  0
   -0.7244    3.8167   11.4488 N   0  0  0  0  0  0  0  0  0  0  0  0
   -0.8855    2.9336   11.9266 H   0  0  0  0  0  0  0  0  0  0  0  0
    1.0107    2.1348   12.0273 O   0  0  0  0  0  0  0  0  0  0  0  0
    1.5050    1.8452   13.2752 C   0  0  0  0  0  0  0  0  0  0  0  0
 33 34  1  0  0  0
 34  1  1  0  0  0
  1  2  1  0  0  0
  2  3  1  0  0  0
  3  4  1  0  0  0
  4  5  1  0  0  0
  5  6  1  0  0  0
  5  7  1  0  0  0
  7 36  1  0  0  0
 36 37  1  0  0  0
  5  8  1  0  0  0
  8  9  1  0  0  0
  9 10  2  0  0  0
 10 11  1  0  0  0
 11 12  2  0  0  0
 12 13  1  0  0  0
 13 14  2  0  0  0
 14 15  1  0  0  0
 15 16  2  0  0  0
 16 17  1  0  0  0
 17 18  1  0  0  0
 18 19  1  0  0  0
 19 20  2  0  0  0
 19 21  1  0  0  0
 21 22  2  0  0  0
 22 23  1  0  0  0
 23 24  2  0  0  0
 24 25  1  0  0  0
 25 26  2  0  0  0
 26 27  1  0  0  0
 27 28  2  0  0  0
 28 29  1  0  0  0
 29 30  1  0  0  0
 30 31  2  0  0  0
  7  1  1  0  0  0
 31  8  1  0  0  0
 29  3  1  0  0  0
 14  9  1  0  0  0
 31 15  1  0  0  0
 21 16  1  0  0  0
 30 22  1  0  0  0
 28 23  1  0  0  0
 34 35  1  0  0  0
 18 32  1  0  0  0
M  END
> <minimizedAffinity>
-6.26132

> <CNNscore>
0.4215065539

> <CNNaffinity>
5.4658155441

> <CNN_VS>
2.3038771152

> <CNNaffinity_variance>
0.1147865653

$$$$
[H]c1c([H])c([H])c2c(c1[H])c1c3c(c4c5c([H])c([H])c([H])c([H])c5n5c4c1n2[C@]1([H])O[C@]5(C([H])([H])[H])[C@]([H])(OC([H])([H])[H])[C@]([H])(N([H])C([H])([H])[H])C1([H])[H])C([H])([H])N([H])C3=O


 37 44  0  0  0  0  0  0  0  0999 V2000
    0.3267    3.9750   10.3946 C   0  0  0  0  0  0  0  0  0  0  0  0
    1.3783    2.8181   10.4693 C   0  0  0  0  0  0  0  0  0  0  0  0
    2.4534    3.4017    9.8365 C   0  0  0  0  0  0  0  0  0  0  0  0
    2.7307    4.5394   10.5803 O   0  0  0  0  0  0  0  0  0  0  0  0
    2.1703    5.6336    9.8478 C   0  0  0  0  0  0  0  0  0  0  0  0
    2.1640    6.7290   10.9420 C   0  0  0  0  0  0  0  0  0  0  0  0
    0.8358    5.1618    9.5341 C   0  0  0  0  0  0  0  0  0  0  0  0
    3.1614    5.9491    8.8446 N   0  0  0  0  0  0  0  0  0  0  0  0
    3.3890    7.1699    8.2949 C   0  0  0  0  0  0  0  0  0  0  0  0
    2.7248    8.3520    8.3840 C   0  0  0  0  0  0  0  0  0  0  0  0
    3.1580    9.5018    7.6967 C   0  0  0  0  0  0  0  0  0  0  0  0
    4.2857    9.4396    6.9074 C   0  0  0  0  0  0  0  0  0  0  0  0
    4.9876    8.2463    6.7937 C   0  0  0  0  0  0  0  0  0  0  0  0
    4.5141    7.1550    7.4908 C   0  0  0  0  0  0  0  0  0  0  0  0
    4.9987    5.8892    7.5355 C   0  0  0  0  0  0  0  0  0  0  0  0
    6.0919    5.2095    6.9969 C   0  0  0  0  0  0  0  0  0  0  0  0
    7.1302    5.7698    6.0938 C   0  0  0  0  0  0  0  0  0  0  0  0
    8.0149    4.6593    5.8375 N   0  0  0  0  0  0  0  0  0  0  0  0
    7.5569    3.4822    6.5393 C   0  0  0  0  0  0  0  0  0  0  0  0
    8.1861    2.4135    6.4489 O   0  0  0  0  0  0  0  0  0  0  0  0
    6.3585    3.8769    7.2451 C   0  0  0  0  0  0  0  0  0  0  0  0
    5.5084    3.1532    8.0654 C   0  0  0  0  0  0  0  0  0  0  0  0
    5.4173    1.8549    8.4790 C   0  0  0  0  0  0  0  0  0  0  0  0
    6.1705    0.7431    8.2929 C   0  0  0  0  0  0  0  0  0  0  0  0
    5.7564   -0.4551    8.8868 C   0  0  0  0  0  0  0  0  0  0  0  0
    4.6104   -0.5125    9.6455 C   0  0  0  0  0  0  0  0  0  0  0  0
    3.8376    0.6164    9.8399 C   0  0  0  0  0  0  0  0  0  0  0  0
    4.2665    1.7948    9.2416 C   0  0  0  0  0  0  0  0  0  0  0  0
    3.6763    2.9721    9.3052 N   0  0  0  0  0  0  0  0  0  0  0  0
    4.4390    3.8378    8.5855 C   0  0  0  0  0  0  0  0  0  0  0  0
    4.1788    5.1951    8.3370 C   0  0  0  0  0  0  0  0  0  0  0  0
    8.8517    4.7305    5.2305 H   0  0  0  0  0  0  0  0  0  0  0  0
    0.4621    3.5588   12.7039 C   0  0  0  0  0  0  0  0  0  0  0  0
   -0.0804    4.4060   11.6840 N   0  0  0  0  0  0  0  0  0  0  0  0
   -1.0783    4.5812   11.7712 H   0  0  0  0  0  0  0  0  0  0  0  0
   -0.0745    6.1832    9.9474 O   0  0  0  0  0  0  0  0  0  0  0  0
   -0.9541    6.5340    8.9530 C   0  0  0  0  0  0  0  0  0  0  0  0
 33 34  1  0  0  0
 34  1  1  0  0  0
  1  2  1  0  0  0
  2  3  1  0  0  0
  3  4  1  0  0  0
  4  5  1  0  0  0
  5  6  1  0  0  0
  5  7  1  0  0  0
  7 36  1  0  0  0
 36 37  1  0  0  0
  5  8  1  0  0  0
  8  9  1  0  0  0
  9 10  2  0  0  0
 10 11  1  0  0  0
 11 12  2  0  0  0
 12 13  1  0  0  0
 13 14  2  0  0  0
 14 15  1  0  0  0
 15 16  2  0  0  0
 16 17  1  0  0  0
 17 18  1  0  0  0
 18 19  1  0  0  0
 19 20  2  0  0  0
 19 21  1  0  0  0
 21 22  2  0  0  0
 22 23  1  0  0  0
 23 24  2  0  0  0
 24 25  1  0  0  0
 25 26  2  0  0  0
 26 27  1  0  0  0
 27 28  2  0  0  0
 28 29  1  0  0  0
 29 30  1  0  0  0
 30 31  2  0  0  0
  7  1  1  0  0  0
 31  8  1  0  0  0
 29  3  1  0  0  0
 14  9  1  0  0  0
 31 15  1  0  0  0
 21 16  1  0  0  0
 30 22  1  0  0  0
 28 23  1  0  0  0
 34 35  1  0  0  0
 18 32  1  0  0  0
M  END
> <minimizedAffinity>
-5.90156

> <CNNscore>
0.4181046486

> <CNNaffinity>
5.5554828644

> <CNN_VS>
2.3227732182

> <CNNaffinity_variance>
0.1552520990

$$$$
[H]c1c([H])c([H])c2c(c1[H])c1c3c(c4c5c([H])c([H])c([H])c([H])c5n5c4c1n2[C@]1([H])O[C@]5(C([H])([H])[H])[C@]([H])(OC([H])([H])[H])[C@]([H])(N([H])C([H])([H])[H])C1([H])[H])C([H])([H])N([H])C3=O


 37 44  0  0  0  0  0  0  0  0999 V2000
    1.1935   -0.4875    9.4106 C   0  0  0  0  0  0  0  0  0  0  0  0
    0.1493    0.6763    9.4825 C   0  0  0  0  0  0  0  0  0  0  0  0
    0.9704    1.7726    9.3390 C   0  0  0  0  0  0  0  0  0  0  0  0
    1.6058    1.5853    8.1200 O   0  0  0  0  0  0  0  0  0  0  0  0
    2.9158    1.1005    8.4306 C   0  0  0  0  0  0  0  0  0  0  0  0
    3.3433    0.5449    7.0500 C   0  0  0  0  0  0  0  0  0  0  0  0
    2.6505    0.0462    9.3896 C   0  0  0  0  0  0  0  0  0  0  0  0
    3.6818    2.2862    8.7399 N   0  0  0  0  0  0  0  0  0  0  0  0
    5.0169    2.4523    8.5544 C   0  0  0  0  0  0  0  0  0  0  0  0
    6.0051    1.5915    8.1951 C   0  0  0  0  0  0  0  0  0  0  0  0
    7.3455    2.0058    8.0778 C   0  0  0  0  0  0  0  0  0  0  0  0
    7.6779    3.3185    8.3326 C   0  0  0  0  0  0  0  0  0  0  0  0
    6.6920    4.2242    8.7030 C   0  0  0  0  0  0  0  0  0  0  0  0
    5.3978    3.7587    8.8009 C   0  0  0  0  0  0  0  0  0  0  0  0
    4.2709    4.4248    9.1551 C   0  0  0  0  0  0  0  0  0  0  0  0
    3.9416    5.7372    9.4961 C   0  0  0  0  0  0  0  0  0  0  0  0
    4.8733    6.8901    9.5966 C   0  0  0  0  0  0  0  0  0  0  0  0
    4.0296    7.9965    9.9784 N   0  0  0  0  0  0  0  0  0  0  0  0
    2.6582    7.5595   10.1054 C   0  0  0  0  0  0  0  0  0  0  0  0
    1.7697    8.3675   10.4276 O   0  0  0  0  0  0  0  0  0  0  0  0
    2.6568    6.1475    9.7952 C   0  0  0  0  0  0  0  0  0  0  0  0
    1.6230    5.2257    9.7663 C   0  0  0  0  0  0  0  0  0  0  0  0
    0.2867    5.2442   10.0470 C   0  0  0  0  0  0  0  0  0  0  0  0
   -0.5927    6.2059   10.4208 C   0  0  0  0  0  0  0  0  0  0  0  0
   -1.9300    5.8482   10.6288 C   0  0  0  0  0  0  0  0  0  0  0  0
   -2.3524    4.5500   10.4596 C   0  0  0  0  0  0  0  0  0  0  0  0
   -1.4622    3.5643   10.0785 C   0  0  0  0  0  0  0  0  0  0  0  0
   -0.1399    3.9407    9.8775 C   0  0  0  0  0  0  0  0  0  0  0  0
    0.8568    3.1578    9.5139 N   0  0  0  0  0  0  0  0  0  0  0  0
    1.9657    3.9404    9.4293 C   0  0  0  0  0  0  0  0  0  0  0  0
    3.2722    3.5317    9.1171 C   0  0  0  0  0  0  0  0  0  0  0  0
    4.3892    8.9561   10.1320 H   0  0  0  0  0  0  0  0  0  0  0  0
   -0.4359   -1.3175    7.9340 C   0  0  0  0  0  0  0  0  0  0  0  0
    0.9437   -1.3575    8.3176 N   0  0  0  0  0  0  0  0  0  0  0  0
    1.3194   -2.2952    8.4346 H   0  0  0  0  0  0  0  0  0  0  0  0
    3.3400   -1.1181    8.9295 O   0  0  0  0  0  0  0  0  0  0  0  0
    4.3643   -1.4849    9.7672 C   0  0  0  0  0  0  0  0  0  0  0  0
 33 34  1  0  0  0
 34  1  1  0  0  0
  1  2  1  0  0  0
  2  3  1  0  0  0
  3  4  1  0  0  0
  4  5  1  0  0  0
  5  6  1  0  0  0
  5  7  1  0  0  0
  7 36  1  0  0  0
 36 37  1  0  0  0
  5  8  1  0  0  0
  8  9  1  0  0  0
  9 10  2  0  0  0
 10 11  1  0  0  0
 11 12  2  0  0  0
 12 13  1  0  0  0
 13 14  2  0  0  0
 14 15  1  0  0  0
 15 16  2  0  0  0
 16 17  1  0  0  0
 17 18  1  0  0  0
 18 19  1  0  0  0
 19 20  2  0  0  0
 19 21  1  0  0  0
 21 22  2  0  0  0
 22 23  1  0  0  0
 23 24  2  0  0  0
 24 25  1  0  0  0
 25 26  2  0  0  0
 26 27  1  0  0  0
 27 28  2  0  0  0
 28 29  1  0  0  0
 29 30  1  0  0  0
 30 31  2  0  0  0
  7  1  1  0  0  0
 31  8  1  0  0  0
 29  3  1  0  0  0
 14  9  1  0  0  0
 31 15  1  0  0  0
 21 16  1  0  0  0
 30 22  1  0  0  0
 28 23  1  0  0  0
 34 35  1  0  0  0
 18 32  1  0  0  0
M  END
> <minimizedAffinity>
-5.51123

> <CNNscore>
0.3864883780

> <CNNaffinity>
5.5456199646

> <CNN_VS>
2.1433176994

> <CNNaffinity_variance>
0.2648358941

$$$$
[H]c1c([H])c([H])c2c(c1[H])c1c3c(c4c5c([H])c([H])c([H])c([H])c5n5c4c1n2[C@]1([H])O[C@]5(C([H])([H])[H])[C@]([H])(OC([H])([H])[H])[C@]([H])(N([H])C([H])([H])[H])C1([H])[H])C([H])([H])N([H])C3=O


 37 44  0  0  0  0  0  0  0  0999 V2000
    2.9633    2.5540   14.6951 C   0  0  0  0  0  0  0  0  0  0  0  0
    2.7410    1.7301   16.0073 C   0  0  0  0  0  0  0  0  0  0  0  0
    3.2987    2.5734   16.9424 C   0  0  0  0  0  0  0  0  0  0  0  0
    2.5846    3.7571   16.8262 O   0  0  0  0  0  0  0  0  0  0  0  0
    3.4136    4.6429   16.0672 C   0  0  0  0  0  0  0  0  0  0  0  0
    2.3749    5.7148   15.6558 C   0  0  0  0  0  0  0  0  0  0  0  0
    3.8262    3.8187   14.9482 C   0  0  0  0  0  0  0  0  0  0  0  0
    4.3354    5.1986   17.0314 N   0  0  0  0  0  0  0  0  0  0  0  0
    4.9164    6.4249   16.9745 C   0  0  0  0  0  0  0  0  0  0  0  0
    4.9415    7.3819   16.0102 C   0  0  0  0  0  0  0  0  0  0  0  0
    5.6374    8.5935   16.1832 C   0  0  0  0  0  0  0  0  0  0  0  0
    6.3169    8.8272   17.3589 C   0  0  0  0  0  0  0  0  0  0  0  0
    6.3124    7.8693   18.3647 C   0  0  0  0  0  0  0  0  0  0  0  0
    5.6130    6.7031   18.1364 C   0  0  0  0  0  0  0  0  0  0  0  0
    5.4674    5.6190   18.9379 C   0  0  0  0  0  0  0  0  0  0  0  0
    5.8729    5.2541   20.2223 C   0  0  0  0  0  0  0  0  0  0  0  0
    6.7018    6.0600   21.1555 C   0  0  0  0  0  0  0  0  0  0  0  0
    6.8261    5.2290   22.3284 N   0  0  0  0  0  0  0  0  0  0  0  0
    6.1169    3.9848   22.1376 C   0  0  0  0  0  0  0  0  0  0  0  0
    6.1013    3.1272   23.0379 O   0  0  0  0  0  0  0  0  0  0  0  0
    5.5418    4.0499   20.8128 C   0  0  0  0  0  0  0  0  0  0  0  0
    4.7708    3.1366   20.1122 C   0  0  0  0  0  0  0  0  0  0  0  0
    4.3093    1.8707   20.3343 C   0  0  0  0  0  0  0  0  0  0  0  0
    4.3757    1.0037   21.3746 C   0  0  0  0  0  0  0  0  0  0  0  0
    3.7688   -0.2508   21.2424 C   0  0  0  0  0  0  0  0  0  0  0  0
    3.1160   -0.6053   20.0845 C   0  0  0  0  0  0  0  0  0  0  0  0
    3.0439    0.2729   19.0201 C   0  0  0  0  0  0  0  0  0  0  0  0
    3.6529    1.5125   19.1723 C   0  0  0  0  0  0  0  0  0  0  0  0
    3.6964    2.4846   18.2827 N   0  0  0  0  0  0  0  0  0  0  0  0
    4.3817    3.5124   18.8511 C   0  0  0  0  0  0  0  0  0  0  0  0
    4.7137    4.7421   18.2601 C   0  0  0  0  0  0  0  0  0  0  0  0
    7.3568    5.5150   23.1712 H   0  0  0  0  0  0  0  0  0  0  0  0
    1.3512    1.8605   13.1316 C   0  0  0  0  0  0  0  0  0  0  0  0
    1.7371    2.8810   14.0600 N   0  0  0  0  0  0  0  0  0  0  0  0
    1.6988    3.8254   13.6848 H   0  0  0  0  0  0  0  0  0  0  0  0
    3.5440    4.5598   13.7592 O   0  0  0  0  0  0  0  0  0  0  0  0
    4.3657    4.2091   12.7164 C   0  0  0  0  0  0  0  0  0  0  0  0
 33 34  1  0  0  0
 34  1  1  0  0  0
  1  2  1  0  0  0
  2  3  1  0  0  0
  3  4  1  0  0  0
  4  5  1  0  0  0
  5  6  1  0  0  0
  5  7  1  0  0  0
  7 36  1  0  0  0
 36 37  1  0  0  0
  5  8  1  0  0  0
  8  9  1  0  0  0
  9 10  2  0  0  0
 10 11  1  0  0  0
 11 12  2  0  0  0
 12 13  1  0  0  0
 13 14  2  0  0  0
 14 15  1  0  0  0
 15 16  2  0  0  0
 16 17  1  0  0  0
 17 18  1  0  0  0
 18 19  1  0  0  0
 19 20  2  0  0  0
 19 21  1  0  0  0
 21 22  2  0  0  0
 22 23  1  0  0  0
 23 24  2  0  0  0
 24 25  1  0  0  0
 25 26  2  0  0  0
 26 27  1  0  0  0
 27 28  2  0  0  0
 28 29  1  0  0  0
 29 30  1  0  0  0
 30 31  2  0  0  0
  7  1  1  0  0  0
 31  8  1  0  0  0
 29  3  1  0  0  0
 14  9  1  0  0  0
 31 15  1  0  0  0
 21 16  1  0  0  0
 30 22  1  0  0  0
 28 23  1  0  0  0
 34 35  1  0  0  0
 18 32  1  0  0  0
M  END
> <minimizedAffinity>
-10.32942

> <CNNscore>
0.3733590841

> <CNNaffinity>
6.5531845093

> <CNN_VS>
2.4466910362

> <CNNaffinity_variance>
0.4349645078

$$$$
[H]c1c([H])c([H])c2c(c1[H])c1c3c(c4c5c([H])c([H])c([H])c([H])c5n5c4c1n2[C@]1([H])O[C@]5(C([H])([H])[H])[C@]([H])(OC([H])([H])[H])[C@]([H])(N([H])C([H])([H])[H])C1([H])[H])C([H])([H])N([H])C3=O


 37 44  0  0  0  0  0  0  0  0999 V2000
   -0.9304    4.8123    9.6442 C   0  0  0  0  0  0  0  0  0  0  0  0
   -1.2512    3.2803    9.6509 C   0  0  0  0  0  0  0  0  0  0  0  0
    0.0184    2.7482    9.6918 C   0  0  0  0  0  0  0  0  0  0  0  0
    0.5857    3.2670   10.8466 O   0  0  0  0  0  0  0  0  0  0  0  0
    1.4397    4.3329   10.4198 C   0  0  0  0  0  0  0  0  0  0  0  0
    1.6588    5.0711   11.7630 C   0  0  0  0  0  0  0  0  0  0  0  0
    0.5922    5.0815    9.5125 C   0  0  0  0  0  0  0  0  0  0  0  0
    2.6641    3.6815   10.0136 N   0  0  0  0  0  0  0  0  0  0  0  0
    3.9129    4.2127   10.0648 C   0  0  0  0  0  0  0  0  0  0  0  0
    4.3648    5.4635   10.3434 C   0  0  0  0  0  0  0  0  0  0  0  0
    5.7363    5.7806   10.3213 C   0  0  0  0  0  0  0  0  0  0  0  0
    6.6566    4.8038   10.0091 C   0  0  0  0  0  0  0  0  0  0  0  0
    6.2283    3.5149    9.7183 C   0  0  0  0  0  0  0  0  0  0  0  0
    4.8726    3.2659    9.7562 C   0  0  0  0  0  0  0  0  0  0  0  0
    4.2043    2.1140    9.5001 C   0  0  0  0  0  0  0  0  0  0  0  0
    4.5474    0.8032    9.1665 C   0  0  0  0  0  0  0  0  0  0  0  0
    5.9174    0.2698    8.9526 C   0  0  0  0  0  0  0  0  0  0  0  0
    5.7109   -1.1218    8.6326 N   0  0  0  0  0  0  0  0  0  0  0  0
    4.3005   -1.4351    8.6485 C   0  0  0  0  0  0  0  0  0  0  0  0
    3.9113   -2.5892    8.3982 O   0  0  0  0  0  0  0  0  0  0  0  0
    3.6202   -0.2048    8.9858 C   0  0  0  0  0  0  0  0  0  0  0  0
    2.2715    0.0753    9.1337 C   0  0  0  0  0  0  0  0  0  0  0  0
    1.1052   -0.6191    8.9840 C   0  0  0  0  0  0  0  0  0  0  0  0
    0.7962   -1.9033    8.6784 C   0  0  0  0  0  0  0  0  0  0  0  0
   -0.5529   -2.2706    8.6088 C   0  0  0  0  0  0  0  0  0  0  0  0
   -1.5513   -1.3541    8.8444 C   0  0  0  0  0  0  0  0  0  0  0  0
   -1.2444   -0.0435    9.1567 C   0  0  0  0  0  0  0  0  0  0  0  0
    0.1005    0.2998    9.2204 C   0  0  0  0  0  0  0  0  0  0  0  0
    0.5991    1.4877    9.5009 N   0  0  0  0  0  0  0  0  0  0  0  0
    1.9532    1.3692    9.4615 C   0  0  0  0  0  0  0  0  0  0  0  0
    2.9011    2.3872    9.6531 C   0  0  0  0  0  0  0  0  0  0  0  0
    6.4871   -1.7764    8.4254 H   0  0  0  0  0  0  0  0  0  0  0  0
   -2.6523    4.8009   11.2439 C   0  0  0  0  0  0  0  0  0  0  0  0
   -1.4785    5.4741   10.7736 N   0  0  0  0  0  0  0  0  0  0  0  0
   -1.5892    6.4783   10.6575 H   0  0  0  0  0  0  0  0  0  0  0  0
    0.6445    6.4484    9.9266 O   0  0  0  0  0  0  0  0  0  0  0  0
    1.2970    7.2457    9.0188 C   0  0  0  0  0  0  0  0  0  0  0  0
 33 34  1  0  0  0
 34  1  1  0  0  0
  1  2  1  0  0  0
  2  3  1  0  0  0
  3  4  1  0  0  0
  4  5  1  0  0  0
  5  6  1  0  0  0
  5  7  1  0  0  0
  7 36  1  0  0  0
 36 37  1  0  0  0
  5  8  1  0  0  0
  8  9  1  0  0  0
  9 10  2  0  0  0
 10 11  1  0  0  0
 11 12  2  0  0  0
 12 13  1  0  0  0
 13 14  2  0  0  0
 14 15  1  0  0  0
 15 16  2  0  0  0
 16 17  1  0  0  0
 17 18  1  0  0  0
 18 19  1  0  0  0
 19 20  2  0  0  0
 19 21  1  0  0  0
 21 22  2  0  0  0
 22 23  1  0  0  0
 23 24  2  0  0  0
 24 25  1  0  0  0
 25 26  2  0  0  0
 26 27  1  0  0  0
 27 28  2  0  0  0
 28 29  1  0  0  0
 29 30  1  0  0  0
 30 31  2  0  0  0
  7  1  1  0  0  0
 31  8  1  0  0  0
 29  3  1  0  0  0
 14  9  1  0  0  0
 31 15  1  0  0  0
 21 16  1  0  0  0
 30 22  1  0  0  0
 28 23  1  0  0  0
 34 35  1  0  0  0
 18 32  1  0  0  0
M  END
> <minimizedAffinity>
-5.97140

> <CNNscore>
0.3293656111

> <CNNaffinity>
5.4339494705

> <CNN_VS>
1.7897560596

> <CNNaffinity_variance>
0.1726422608

$$$$
[H]N=C(N([H])[H])N([H])C([H])([H])C([H])([H])C([H])([H])[C@@]([H])(C(=O)N([H])[C@]([H])(C(=O)N1C([H])([H])C([H])([H])C([H])([H])[C@@]1([H])C(=O)N([H])[C@]([H])(C(=O)O[H])C([H])([H])C(=O)O[H])C([H])([H])C(=O)O[H])N([H])C(=O)[C@@]1([H])C([H])([H])C([H])([H])C([H])([H])[C@@]1([H])N([H])C(=O)OC(C([H])([H])[H])(C([H])([H])[H])C([H])([H])[H]


 61 62  0  0  0  0  0  0  0  0999 V2000
    4.8276    8.3219   14.6968 C   0  0  0  0  0  0  0  0  0  0  0  0
    5.9528    8.9546   14.6638 O   0  0  0  0  0  0  0  0  0  0  0  0
    3.9519    8.6780   15.7287 N   0  0  0  0  0  0  0  0  0  0  0  0
    3.0124    8.3185   15.9379 H   0  0  0  0  0  0  0  0  0  0  0  0
    4.3846    9.7453   16.6705 C   0  0  0  0  0  0  0  0  0  0  0  0
    4.3550    9.1108   18.0295 C   0  0  0  0  0  0  0  0  0  0  0  0
    3.2729    9.0688   18.7159 O   0  0  0  0  0  0  0  0  0  0  0  0
    5.5138    8.5319   18.6041 N   0  0  0  0  0  0  0  0  0  0  0  0
    6.8067    8.4682   17.9965 C   0  0  0  0  0  0  0  0  0  0  0  0
    7.3439    7.1235   18.4337 C   0  0  0  0  0  0  0  0  0  0  0  0
    6.4938    6.7089   19.6098 C   0  0  0  0  0  0  0  0  0  0  0  0
    5.5867    7.8999   19.8868 C   0  0  0  0  0  0  0  0  0  0  0  0
    6.2579    8.7381   20.9328 C   0  0  0  0  0  0  0  0  0  0  0  0
    5.8536    9.9040   21.1444 O   0  0  0  0  0  0  0  0  0  0  0  0
    7.3465    8.2218   21.6825 N   0  0  0  0  0  0  0  0  0  0  0  0
    7.6898    7.2662   21.5211 H   0  0  0  0  0  0  0  0  0  0  0  0
    8.0145    9.0203   22.7035 C   0  0  0  0  0  0  0  0  0  0  0  0
    9.3095    9.4773   22.1456 C   0  0  0  0  0  0  0  0  0  0  0  0
    9.4393   10.0211   20.8897 O   0  0  0  0  0  0  0  0  0  0  0  0
   10.3661    9.3675   22.8467 O   0  0  0  0  0  0  0  0  0  0  0  0
    9.9764    9.5483   20.1701 H   0  0  0  0  0  0  0  0  0  0  0  0
    8.2704    8.1516   23.9060 C   0  0  0  0  0  0  0  0  0  0  0  0
    7.8751    8.7832   25.1696 C   0  0  0  0  0  0  0  0  0  0  0  0
    6.5174    8.9376   25.4609 O   0  0  0  0  0  0  0  0  0  0  0  0
    8.7145    9.1921   26.0015 O   0  0  0  0  0  0  0  0  0  0  0  0
    6.2357    9.7106   26.0840 H   0  0  0  0  0  0  0  0  0  0  0  0
    3.3860   10.8568   16.6501 C   0  0  0  0  0  0  0  0  0  0  0  0
    3.4018   11.6090   15.3667 C   0  0  0  0  0  0  0  0  0  0  0  0
    2.2127   12.1320   14.8703 O   0  0  0  0  0  0  0  0  0  0  0  0
    4.4471   11.7966   14.7027 O   0  0  0  0  0  0  0  0  0  0  0  0
    1.5436   11.4679   14.4957 H   0  0  0  0  0  0  0  0  0  0  0  0
    4.6218    7.3146   13.6322 C   0  0  0  0  0  0  0  0  0  0  0  0
    3.2207    5.2071   13.8775 C   0  0  0  0  0  0  0  0  0  0  0  0
    4.2511    4.5495   13.6110 O   0  0  0  0  0  0  0  0  0  0  0  0
    3.3367    6.6218   13.9102 N   0  0  0  0  0  0  0  0  0  0  0  0
    2.5341    7.2237   14.1288 H   0  0  0  0  0  0  0  0  0  0  0  0
    2.0180    3.0325   14.2346 C   0  0  0  0  0  0  0  0  0  0  0  0
    2.2947    2.5755   12.8609 C   0  0  0  0  0  0  0  0  0  0  0  0
    1.7616    3.6535   11.9544 C   0  0  0  0  0  0  0  0  0  0  0  0
    1.1149    4.6867   12.8576 C   0  0  0  0  0  0  0  0  0  0  0  0
    1.9415    4.5279   14.1433 C   0  0  0  0  0  0  0  0  0  0  0  0
    2.7063    2.9978   16.5922 C   0  0  0  0  0  0  0  0  0  0  0  0
    1.7086    3.7341   16.8909 O   0  0  0  0  0  0  0  0  0  0  0  0
    2.9462    2.5886   15.2521 N   0  0  0  0  0  0  0  0  0  0  0  0
    3.7707    1.9923   15.0569 H   0  0  0  0  0  0  0  0  0  0  0  0
    3.5304    2.6239   17.6148 O   0  0  0  0  0  0  0  0  0  0  0  0
    5.0822    2.8693   19.4892 C   0  0  0  0  0  0  0  0  0  0  0  0
    4.3737    3.4870   18.3284 C   0  0  0  0  0  0  0  0  0  0  0  0
    5.4520    3.9527   17.3424 C   0  0  0  0  0  0  0  0  0  0  0  0
    3.6574    4.7512   18.7623 C   0  0  0  0  0  0  0  0  0  0  0  0
    4.4978    7.9728   12.2895 C   0  0  0  0  0  0  0  0  0  0  0  0
    5.0285    7.2217   11.1145 C   0  0  0  0  0  0  0  0  0  0  0  0
    6.1847    7.9760   10.4646 C   0  0  0  0  0  0  0  0  0  0  0  0
    7.0618    8.4259   11.5117 N   0  0  0  0  0  0  0  0  0  0  0  0
    6.7081    9.1630   12.1815 H   0  0  0  0  0  0  0  0  0  0  0  0
    8.3794    7.9622   11.7313 C   0  0  0  0  0  0  0  0  0  0  0  0
    8.8452    6.8707   10.9388 N   0  0  0  0  0  0  0  0  0  0  0  0
    9.1712    8.4553   12.5853 N   0  0  0  0  0  0  0  0  0  0  0  0
    9.3572    7.0432   10.0453 H   0  0  0  0  0  0  0  0  0  0  0  0
    8.6608    5.8845   11.2746 H   0  0  0  0  0  0  0  0  0  0  0  0
    8.9358    9.2544   13.2157 H   0  0  0  0  0  0  0  0  0  0  0  0
 47 48  1  0  0  0
 48 49  1  0  0  0
 48 50  1  0  0  0
 48 46  1  0  0  0
 46 42  1  0  0  0
 42 43  2  0  0  0
 42 44  1  0  0  0
 44 37  1  0  0  0
 37 38  1  0  0  0
 38 39  1  0  0  0
 39 40  1  0  0  0
 40 41  1  0  0  0
 41 33  1  0  0  0
 33 34  2  0  0  0
 33 35  1  0  0  0
 35 32  1  0  0  0
 32 51  1  0  0  0
 51 52  1  0  0  0
 52 53  1  0  0  0
 53 54  1  0  0  0
 54 56  1  0  0  0
 56 57  1  0  0  0
 56 58  2  0  0  0
 32  1  1  0  0  0
  1  2  2  0  0  0
  1  3  1  0  0  0
  3  5  1  0  0  0
  5 27  1  0  0  0
 27 28  1  0  0  0
 28 29  1  0  0  0
 28 30  2  0  0  0
  5  6  1  0  0  0
  6  7  2  0  0  0
  6  8  1  0  0  0
  8  9  1  0  0  0
  9 10  1  0  0  0
 10 11  1  0  0  0
 11 12  1  0  0  0
 12 13  1  0  0  0
 13 14  2  0  0  0
 13 15  1  0  0  0
 15 17  1  0  0  0
 17 22  1  0  0  0
 22 23  1  0  0  0
 23 24  1  0  0  0
 23 25  2  0  0  0
 17 18  1  0  0  0
 18 19  1  0  0  0
 18 20  2  0  0  0
 41 37  1  0  0  0
 12  8  1  0  0  0
 44 45  1  0  0  0
 35 36  1  0  0  0
 54 55  1  0  0  0
 57 59  1  0  0  0
 57 60  1  0  0  0
 58 61  1  0  0  0
  3  4  1  0  0  0
 29 31  1  0  0  0
 15 16  1  0  0  0
 24 26  1  0  0  0
 19 21  1  0  0  0
M  END
> <minimizedAffinity>
-7.34138

> <CNNscore>
0.3496502936

> <CNNaffinity>
6.5804290771

> <CNN_VS>
2.3008489609

> <CNNaffinity_variance>
0.2368774861

$$$$
[H]N=C(N([H])[H])N([H])C([H])([H])C([H])([H])C([H])([H])[C@@]([H])(C(=O)N([H])[C@]([H])(C(=O)N1C([H])([H])C([H])([H])C([H])([H])[C@@]1([H])C(=O)N([H])[C@]([H])(C(=O)O[H])C([H])([H])C(=O)O[H])C([H])([H])C(=O)O[H])N([H])C(=O)[C@@]1([H])C([H])([H])C([H])([H])C([H])([H])[C@@]1([H])N([H])C(=O)OC(C([H])([H])[H])(C([H])([H])[H])C([H])([H])[H]


 61 62  0  0  0  0  0  0  0  0999 V2000
    4.1455    7.9310   14.8931 C   0  0  0  0  0  0  0  0  0  0  0  0
    3.8159    9.1428   14.5926 O   0  0  0  0  0  0  0  0  0  0  0  0
    4.5290    7.1145   13.8231 N   0  0  0  0  0  0  0  0  0  0  0  0
    4.8370    6.1343   13.8303 H   0  0  0  0  0  0  0  0  0  0  0  0
    4.5347    7.7115   12.4604 C   0  0  0  0  0  0  0  0  0  0  0  0
    3.6636    6.8149   11.6311 C   0  0  0  0  0  0  0  0  0  0  0  0
    4.1617    5.8338   10.9730 O   0  0  0  0  0  0  0  0  0  0  0  0
    2.2630    7.0126   11.5456 N   0  0  0  0  0  0  0  0  0  0  0  0
    1.5204    8.0381   12.2102 C   0  0  0  0  0  0  0  0  0  0  0  0
    0.2220    7.3577   12.5834 C   0  0  0  0  0  0  0  0  0  0  0  0
    0.1494    6.1201   11.7227 C   0  0  0  0  0  0  0  0  0  0  0  0
    1.3484    6.2118   10.7890 C   0  0  0  0  0  0  0  0  0  0  0  0
    0.8800    6.8665    9.5244 C   0  0  0  0  0  0  0  0  0  0  0  0
   -0.3419    6.8814    9.2516 O   0  0  0  0  0  0  0  0  0  0  0  0
    1.8088    7.4669    8.6355 N   0  0  0  0  0  0  0  0  0  0  0  0
    2.8153    7.4636    8.8456 H   0  0  0  0  0  0  0  0  0  0  0  0
    1.3749    8.1078    7.3997 C   0  0  0  0  0  0  0  0  0  0  0  0
    1.8399    7.2710    6.2680 C   0  0  0  0  0  0  0  0  0  0  0  0
    2.5869    6.1287    6.4325 O   0  0  0  0  0  0  0  0  0  0  0  0
    1.5461    7.6104    5.0771 O   0  0  0  0  0  0  0  0  0  0  0  0
    3.5391    6.0742    6.0855 H   0  0  0  0  0  0  0  0  0  0  0  0
    2.0160    9.4669    7.3088 C   0  0  0  0  0  0  0  0  0  0  0  0
    3.4804    9.4207    7.3810 C   0  0  0  0  0  0  0  0  0  0  0  0
    4.0954    9.1220    8.5994 O   0  0  0  0  0  0  0  0  0  0  0  0
    4.2040    9.6410    6.3852 O   0  0  0  0  0  0  0  0  0  0  0  0
    5.0456    9.4869    8.7702 H   0  0  0  0  0  0  0  0  0  0  0  0
    5.9213    7.6623   11.9053 C   0  0  0  0  0  0  0  0  0  0  0  0
    6.7712    8.7765   12.4045 C   0  0  0  0  0  0  0  0  0  0  0  0
    6.1641    9.9138   12.9262 O   0  0  0  0  0  0  0  0  0  0  0  0
    8.0228    8.7402   12.3775 O   0  0  0  0  0  0  0  0  0  0  0  0
    5.7082   10.5320   12.2637 H   0  0  0  0  0  0  0  0  0  0  0  0
    4.0778    7.5808   16.3295 C   0  0  0  0  0  0  0  0  0  0  0  0
    3.5412    5.0956   16.3573 C   0  0  0  0  0  0  0  0  0  0  0  0
    4.7538    4.8808   16.1362 O   0  0  0  0  0  0  0  0  0  0  0  0
    3.1259    6.4484   16.4724 N   0  0  0  0  0  0  0  0  0  0  0  0
    2.1479    6.6980   16.6603 H   0  0  0  0  0  0  0  0  0  0  0  0
    3.1958    2.6092   16.3992 C   0  0  0  0  0  0  0  0  0  0  0  0
    3.6055    2.4600   14.9913 C   0  0  0  0  0  0  0  0  0  0  0  0
    2.7156    3.3856   14.2044 C   0  0  0  0  0  0  0  0  0  0  0  0
    1.7507    3.9976   15.2024 C   0  0  0  0  0  0  0  0  0  0  0  0
    2.5904    3.9789   16.4893 C   0  0  0  0  0  0  0  0  0  0  0  0
    4.0013    1.4083   18.3847 C   0  0  0  0  0  0  0  0  0  0  0  0
    2.9207    0.7311   18.4095 O   0  0  0  0  0  0  0  0  0  0  0  0
    4.2298    2.3968   17.3890 N   0  0  0  0  0  0  0  0  0  0  0  0
    5.1218    2.9234   17.4101 H   0  0  0  0  0  0  0  0  0  0  0  0
    4.9236    1.1416   19.3557 O   0  0  0  0  0  0  0  0  0  0  0  0
    6.2152    1.5571   21.3906 C   0  0  0  0  0  0  0  0  0  0  0  0
    4.9355    1.7126   20.6360 C   0  0  0  0  0  0  0  0  0  0  0  0
    4.7107    3.2170   20.4417 C   0  0  0  0  0  0  0  0  0  0  0  0
    3.7674    1.2404   21.4797 C   0  0  0  0  0  0  0  0  0  0  0  0
    5.4129    7.1131   16.8297 C   0  0  0  0  0  0  0  0  0  0  0  0
    5.7515    7.4229   18.2495 C   0  0  0  0  0  0  0  0  0  0  0  0
    4.9032    8.5791   18.7706 C   0  0  0  0  0  0  0  0  0  0  0  0
    4.2425    8.1363   19.9688 N   0  0  0  0  0  0  0  0  0  0  0  0
    3.1943    8.0032   19.9449 H   0  0  0  0  0  0  0  0  0  0  0  0
    4.8803    7.8567   21.1994 C   0  0  0  0  0  0  0  0  0  0  0  0
    6.0772    8.5691   21.5094 N   0  0  0  0  0  0  0  0  0  0  0  0
    4.4555    7.0156   22.0428 N   0  0  0  0  0  0  0  0  0  0  0  0
    6.0400    9.4588   22.0547 H   0  0  0  0  0  0  0  0  0  0  0  0
    7.0018    8.1780   21.1755 H   0  0  0  0  0  0  0  0  0  0  0  0
    3.5915    6.4414   21.9195 H   0  0  0  0  0  0  0  0  0  0  0  0
 47 48  1  0  0  0
 48 49  1  0  0  0
 48 50  1  0  0  0
 48 46  1  0  0  0
 46 42  1  0  0  0
 42 43  2  0  0  0
 42 44  1  0  0  0
 44 37  1  0  0  0
 37 38  1  0  0  0
 38 39  1  0  0  0
 39 40  1  0  0  0
 40 41  1  0  0  0
 41 33  1  0  0  0
 33 34  2  0  0  0
 33 35  1  0  0  0
 35 32  1  0  0  0
 32 51  1  0  0  0
 51 52  1  0  0  0
 52 53  1  0  0  0
 53 54  1  0  0  0
 54 56  1  0  0  0
 56 57  1  0  0  0
 56 58  2  0  0  0
 32  1  1  0  0  0
  1  2  2  0  0  0
  1  3  1  0  0  0
  3  5  1  0  0  0
  5 27  1  0  0  0
 27 28  1  0  0  0
 28 29  1  0  0  0
 28 30  2  0  0  0
  5  6  1  0  0  0
  6  7  2  0  0  0
  6  8  1  0  0  0
  8  9  1  0  0  0
  9 10  1  0  0  0
 10 11  1  0  0  0
 11 12  1  0  0  0
 12 13  1  0  0  0
 13 14  2  0  0  0
 13 15  1  0  0  0
 15 17  1  0  0  0
 17 22  1  0  0  0
 22 23  1  0  0  0
 23 24  1  0  0  0
 23 25  2  0  0  0
 17 18  1  0  0  0
 18 19  1  0  0  0
 18 20  2  0  0  0
 41 37  1  0  0  0
 12  8  1  0  0  0
 44 45  1  0  0  0
 35 36  1  0  0  0
 54 55  1  0  0  0
 57 59  1  0  0  0
 57 60  1  0  0  0
 58 61  1  0  0  0
  3  4  1  0  0  0
 29 31  1  0  0  0
 15 16  1  0  0  0
 24 26  1  0  0  0
 19 21  1  0  0  0
M  END
> <minimizedAffinity>
-7.46818

> <CNNscore>
0.2766758204

> <CNNaffinity>
6.4656190872

> <CNN_VS>
1.7888804674

> <CNNaffinity_variance>
0.5952821970

$$$$
[H]N=C(N([H])[H])N([H])C([H])([H])C([H])([H])C([H])([H])[C@@]([H])(C(=O)N([H])[C@]([H])(C(=O)N1C([H])([H])C([H])([H])C([H])([H])[C@@]1([H])C(=O)N([H])[C@]([H])(C(=O)O[H])C([H])([H])C(=O)O[H])C([H])([H])C(=O)O[H])N([H])C(=O)[C@@]1([H])C([H])([H])C([H])([H])C([H])([H])[C@@]1([H])N([H])C(=O)OC(C([H])([H])[H])(C([H])([H])[H])C([H])([H])[H]


 61 62  0  0  0  0  0  0  0  0999 V2000
    4.5576    8.3246   16.5048 C   0  0  0  0  0  0  0  0  0  0  0  0
    5.4036    9.2314   16.1447 O   0  0  0  0  0  0  0  0  0  0  0  0
    4.0115    8.4668   17.7854 N   0  0  0  0  0  0  0  0  0  0  0  0
    3.3214    7.8778   18.2675 H   0  0  0  0  0  0  0  0  0  0  0  0
    4.4383    9.6382   18.5971 C   0  0  0  0  0  0  0  0  0  0  0  0
    5.0545    9.0589   19.8361 C   0  0  0  0  0  0  0  0  0  0  0  0
    4.3650    8.9010   20.9053 O   0  0  0  0  0  0  0  0  0  0  0  0
    6.4140    8.6611   19.8728 N   0  0  0  0  0  0  0  0  0  0  0  0
    7.3404    8.7452   18.7867 C   0  0  0  0  0  0  0  0  0  0  0  0
    8.1875    7.5014   18.9392 C   0  0  0  0  0  0  0  0  0  0  0  0
    7.9587    7.0242   20.3525 C   0  0  0  0  0  0  0  0  0  0  0  0
    7.0912    8.0947   21.0002 C   0  0  0  0  0  0  0  0  0  0  0  0
    8.0104    9.0544   21.6939 C   0  0  0  0  0  0  0  0  0  0  0  0
    7.7464   10.2782   21.6872 O   0  0  0  0  0  0  0  0  0  0  0  0
    9.1756    8.5875   22.3555 N   0  0  0  0  0  0  0  0  0  0  0  0
    9.4059    7.5855   22.3706 H   0  0  0  0  0  0  0  0  0  0  0  0
   10.0839    9.5037   23.0352 C   0  0  0  0  0  0  0  0  0  0  0  0
   11.3210    9.5997   22.2242 C   0  0  0  0  0  0  0  0  0  0  0  0
   12.2718    8.6079   22.1796 O   0  0  0  0  0  0  0  0  0  0  0  0
   11.5338   10.6447   21.5296 O   0  0  0  0  0  0  0  0  0  0  0  0
   13.2075    8.7663   22.5392 H   0  0  0  0  0  0  0  0  0  0  0  0
   10.4199    8.9362   24.3885 C   0  0  0  0  0  0  0  0  0  0  0  0
   10.0339    7.5288   24.5367 C   0  0  0  0  0  0  0  0  0  0  0  0
    8.8264    7.2139   25.1652 O   0  0  0  0  0  0  0  0  0  0  0  0
   10.7511    6.5934   24.1189 O   0  0  0  0  0  0  0  0  0  0  0  0
    8.7452    6.3007   25.6390 H   0  0  0  0  0  0  0  0  0  0  0  0
    3.2339   10.4272   18.9972 C   0  0  0  0  0  0  0  0  0  0  0  0
    2.6872   11.2352   17.8741 C   0  0  0  0  0  0  0  0  0  0  0  0
    3.4768   11.4617   16.7520 O   0  0  0  0  0  0  0  0  0  0  0  0
    1.5359   11.7279   17.8900 O   0  0  0  0  0  0  0  0  0  0  0  0
    4.2532   12.1050   16.8629 H   0  0  0  0  0  0  0  0  0  0  0  0
    4.2806    7.2674   15.5068 C   0  0  0  0  0  0  0  0  0  0  0  0
    3.9088    5.0803   16.7491 C   0  0  0  0  0  0  0  0  0  0  0  0
    5.1484    4.9124   16.7254 O   0  0  0  0  0  0  0  0  0  0  0  0
    3.3961    6.2613   16.1505 N   0  0  0  0  0  0  0  0  0  0  0  0
    2.3904    6.4673   16.1397 H   0  0  0  0  0  0  0  0  0  0  0  0
    3.7079    2.8355   17.8552 C   0  0  0  0  0  0  0  0  0  0  0  0
    4.1103    2.1203   16.6308 C   0  0  0  0  0  0  0  0  0  0  0  0
    3.1599    2.5788   15.5564 C   0  0  0  0  0  0  0  0  0  0  0  0
    2.1723    3.5111   16.2323 C   0  0  0  0  0  0  0  0  0  0  0  0
    3.0255    4.0824   17.3755 C   0  0  0  0  0  0  0  0  0  0  0  0
    4.7481    2.4084   20.0389 C   0  0  0  0  0  0  0  0  0  0  0  0
    3.8348    1.5583   20.3040 O   0  0  0  0  0  0  0  0  0  0  0  0
    4.7631    3.1145   18.8052 N   0  0  0  0  0  0  0  0  0  0  0  0
    5.5238    3.7970   18.6350 H   0  0  0  0  0  0  0  0  0  0  0  0
    5.7055    2.6085   20.9917 O   0  0  0  0  0  0  0  0  0  0  0  0
    4.4167    4.4066   22.0346 C   0  0  0  0  0  0  0  0  0  0  0  0
    5.5887    3.4817   22.0822 C   0  0  0  0  0  0  0  0  0  0  0  0
    5.4135    2.6013   23.3255 C   0  0  0  0  0  0  0  0  0  0  0  0
    6.8654    4.2634   22.3237 C   0  0  0  0  0  0  0  0  0  0  0  0
    3.5427    7.8264   14.3259 C   0  0  0  0  0  0  0  0  0  0  0  0
    4.3582    8.2128   13.1376 C   0  0  0  0  0  0  0  0  0  0  0  0
    4.4025    7.0793   12.1172 C   0  0  0  0  0  0  0  0  0  0  0  0
    5.7652    6.9304   11.6824 N   0  0  0  0  0  0  0  0  0  0  0  0
    6.2566    6.0144   11.8738 H   0  0  0  0  0  0  0  0  0  0  0  0
    6.5216    7.9168   11.0085 C   0  0  0  0  0  0  0  0  0  0  0  0
    5.9426    8.5351    9.8602 N   0  0  0  0  0  0  0  0  0  0  0  0
    7.6788    8.2859   11.3606 N   0  0  0  0  0  0  0  0  0  0  0  0
    5.3966    9.4204    9.9519 H   0  0  0  0  0  0  0  0  0  0  0  0
    6.0773    8.0784    8.9154 H   0  0  0  0  0  0  0  0  0  0  0  0
    8.1953    7.9025   12.1839 H   0  0  0  0  0  0  0  0  0  0  0  0
 47 48  1  0  0  0
 48 49  1  0  0  0
 48 50  1  0  0  0
 48 46  1  0  0  0
 46 42  1  0  0  0
 42 43  2  0  0  0
 42 44  1  0  0  0
 44 37  1  0  0  0
 37 38  1  0  0  0
 38 39  1  0  0  0
 39 40  1  0  0  0
 40 41  1  0  0  0
 41 33  1  0  0  0
 33 34  2  0  0  0
 33 35  1  0  0  0
 35 32  1  0  0  0
 32 51  1  0  0  0
 51 52  1  0  0  0
 52 53  1  0  0  0
 53 54  1  0  0  0
 54 56  1  0  0  0
 56 57  1  0  0  0
 56 58  2  0  0  0
 32  1  1  0  0  0
  1  2  2  0  0  0
  1  3  1  0  0  0
  3  5  1  0  0  0
  5 27  1  0  0  0
 27 28  1  0  0  0
 28 29  1  0  0  0
 28 30  2  0  0  0
  5  6  1  0  0  0
  6  7  2  0  0  0
  6  8  1  0  0  0
  8  9  1  0  0  0
  9 10  1  0  0  0
 10 11  1  0  0  0
 11 12  1  0  0  0
 12 13  1  0  0  0
 13 14  2  0  0  0
 13 15  1  0  0  0
 15 17  1  0  0  0
 17 22  1  0  0  0
 22 23  1  0  0  0
 23 24  1  0  0  0
 23 25  2  0  0  0
 17 18  1  0  0  0
 18 19  1  0  0  0
 18 20  2  0  0  0
 41 37  1  0  0  0
 12  8  1  0  0  0
 44 45  1  0  0  0
 35 36  1  0  0  0
 54 55  1  0  0  0
 57 59  1  0  0  0
 57 60  1  0  0  0
 58 61  1  0  0  0
  3  4  1  0  0  0
 29 31  1  0  0  0
 15 16  1  0  0  0
 24 26  1  0  0  0
 19 21  1  0  0  0
M  END
> <minimizedAffinity>
-7.87070

> <CNNscore>
0.2462155670

> <CNNaffinity>
6.5499715805

> <CNN_VS>
1.6127049923

> <CNNaffinity_variance>
0.2292704284

$$$$
[H]N=C(N([H])[H])N([H])C([H])([H])C([H])([H])C([H])([H])[C@@]([H])(C(=O)N([H])[C@]([H])(C(=O)N1C([H])([H])C([H])([H])C([H])([H])[C@@]1([H])C(=O)N([H])[C@]([H])(C(=O)O[H])C([H])([H])C(=O)O[H])C([H])([H])C(=O)O[H])N([H])C(=O)[C@@]1([H])C([H])([H])C([H])([H])C([H])([H])[C@@]1([H])N([H])C(=O)OC(C([H])([H])[H])(C([H])([H])[H])C([H])([H])[H]


 61 62  0  0  0  0  0  0  0  0999 V2000
    4.6921    8.6102   17.6065 C   0  0  0  0  0  0  0  0  0  0  0  0
    4.0551    9.7022   17.8695 O   0  0  0  0  0  0  0  0  0  0  0  0
    5.5975    8.1762   18.5815 N   0  0  0  0  0  0  0  0  0  0  0  0
    6.1955    7.3408   18.5883 H   0  0  0  0  0  0  0  0  0  0  0  0
    5.7314    8.9922   19.8182 C   0  0  0  0  0  0  0  0  0  0  0  0
    7.2080    9.1345   20.0415 C   0  0  0  0  0  0  0  0  0  0  0  0
    8.0362    8.2943   19.5396 O   0  0  0  0  0  0  0  0  0  0  0  0
    7.7438   10.1992   20.8078 N   0  0  0  0  0  0  0  0  0  0  0  0
    6.9907   11.2388   21.4377 C   0  0  0  0  0  0  0  0  0  0  0  0
    7.8659   12.4625   21.2814 C   0  0  0  0  0  0  0  0  0  0  0  0
    9.2432   11.9385   20.9559 C   0  0  0  0  0  0  0  0  0  0  0  0
    9.1328   10.4245   21.0729 C   0  0  0  0  0  0  0  0  0  0  0  0
    9.5472   10.0533   22.4649 C   0  0  0  0  0  0  0  0  0  0  0  0
   10.1673   10.8835   23.1677 O   0  0  0  0  0  0  0  0  0  0  0  0
    9.2440    8.7707   22.9905 N   0  0  0  0  0  0  0  0  0  0  0  0
    8.7349    8.0781   22.4262 H   0  0  0  0  0  0  0  0  0  0  0  0
    9.6388    8.3885   24.3412 C   0  0  0  0  0  0  0  0  0  0  0  0
   10.2356    7.0334   24.2723 C   0  0  0  0  0  0  0  0  0  0  0  0
    9.6114    5.9093   24.7587 O   0  0  0  0  0  0  0  0  0  0  0  0
   11.3829    6.8816   23.7428 O   0  0  0  0  0  0  0  0  0  0  0  0
   10.0032    5.3920   25.5390 H   0  0  0  0  0  0  0  0  0  0  0  0
    8.4105    8.3468   25.2105 C   0  0  0  0  0  0  0  0  0  0  0  0
    7.1601    8.3378   24.4434 C   0  0  0  0  0  0  0  0  0  0  0  0
    6.2795    9.4163   24.5594 O   0  0  0  0  0  0  0  0  0  0  0  0
    6.8505    7.3934   23.6845 O   0  0  0  0  0  0  0  0  0  0  0  0
    5.2754    9.2484   24.3901 H   0  0  0  0  0  0  0  0  0  0  0  0
    5.1531    8.2390   20.9721 C   0  0  0  0  0  0  0  0  0  0  0  0
    4.9143    6.8063   20.6508 C   0  0  0  0  0  0  0  0  0  0  0  0
    3.6366    6.3947   20.2871 O   0  0  0  0  0  0  0  0  0  0  0  0
    5.8191    5.9413   20.6926 O   0  0  0  0  0  0  0  0  0  0  0  0
    2.9397    6.3662   21.0236 H   0  0  0  0  0  0  0  0  0  0  0  0
    4.3674    7.9689   16.3128 C   0  0  0  0  0  0  0  0  0  0  0  0
    3.8964    5.6176   17.1580 C   0  0  0  0  0  0  0  0  0  0  0  0
    5.1140    5.5237   17.4297 O   0  0  0  0  0  0  0  0  0  0  0  0
    3.4441    6.8378   16.5903 N   0  0  0  0  0  0  0  0  0  0  0  0
    2.4573    6.9871   16.3490 H   0  0  0  0  0  0  0  0  0  0  0  0
    3.6223    3.2533   17.9570 C   0  0  0  0  0  0  0  0  0  0  0  0
    4.4088    2.7108   16.8347 C   0  0  0  0  0  0  0  0  0  0  0  0
    3.7451    3.2221   15.5833 C   0  0  0  0  0  0  0  0  0  0  0  0
    2.5256    4.0019   16.0374 C   0  0  0  0  0  0  0  0  0  0  0  0
    2.9777    4.4970   17.4201 C   0  0  0  0  0  0  0  0  0  0  0  0
    4.4940    2.4101   20.0929 C   0  0  0  0  0  0  0  0  0  0  0  0
    3.9999    1.2622   19.8377 O   0  0  0  0  0  0  0  0  0  0  0  0
    4.3485    3.4944   19.1852 N   0  0  0  0  0  0  0  0  0  0  0  0
    4.7652    4.4092   19.4363 H   0  0  0  0  0  0  0  0  0  0  0  0
    5.1651    2.5485   21.2741 O   0  0  0  0  0  0  0  0  0  0  0  0
    3.7993    3.8847   22.8009 C   0  0  0  0  0  0  0  0  0  0  0  0
    4.5650    2.6293   22.5384 C   0  0  0  0  0  0  0  0  0  0  0  0
    3.5642    1.4700   22.6181 C   0  0  0  0  0  0  0  0  0  0  0  0
    5.5581    2.3763   23.6561 C   0  0  0  0  0  0  0  0  0  0  0  0
    3.6491    8.9253   15.4069 C   0  0  0  0  0  0  0  0  0  0  0  0
    4.4717    9.6444   14.3907 C   0  0  0  0  0  0  0  0  0  0  0  0
    5.5598    8.7339   13.8295 C   0  0  0  0  0  0  0  0  0  0  0  0
    5.2506    8.4765   12.4488 N   0  0  0  0  0  0  0  0  0  0  0  0
    4.2521    8.6016   12.1256 H   0  0  0  0  0  0  0  0  0  0  0  0
    6.1790    8.0641   11.4653 C   0  0  0  0  0  0  0  0  0  0  0  0
    6.0115    8.5598   10.1377 N   0  0  0  0  0  0  0  0  0  0  0  0
    7.1491    7.2842   11.6891 N   0  0  0  0  0  0  0  0  0  0  0  0
    6.5006    9.4293    9.8295 H   0  0  0  0  0  0  0  0  0  0  0  0
    5.3821    8.0291    9.4732 H   0  0  0  0  0  0  0  0  0  0  0  0
    7.3659    6.8647   12.6210 H   0  0  0  0  0  0  0  0  0  0  0  0
 47 48  1  0  0  0
 48 49  1  0  0  0
 48 50  1  0  0  0
 48 46  1  0  0  0
 46 42  1  0  0  0
 42 43  2  0  0  0
 42 44  1  0  0  0
 44 37  1  0  0  0
 37 38  1  0  0  0
 38 39  1  0  0  0
 39 40  1  0  0  0
 40 41  1  0  0  0
 41 33  1  0  0  0
 33 34  2  0  0  0
 33 35  1  0  0  0
 35 32  1  0  0  0
 32 51  1  0  0  0
 51 52  1  0  0  0
 52 53  1  0  0  0
 53 54  1  0  0  0
 54 56  1  0  0  0
 56 57  1  0  0  0
 56 58  2  0  0  0
 32  1  1  0  0  0
  1  2  2  0  0  0
  1  3  1  0  0  0
  3  5  1  0  0  0
  5 27  1  0  0  0
 27 28  1  0  0  0
 28 29  1  0  0  0
 28 30  2  0  0  0
  5  6  1  0  0  0
  6  7  2  0  0  0
  6  8  1  0  0  0
  8  9  1  0  0  0
  9 10  1  0  0  0
 10 11  1  0  0  0
 11 12  1  0  0  0
 12 13  1  0  0  0
 13 14  2  0  0  0
 13 15  1  0  0  0
 15 17  1  0  0  0
 17 22  1  0  0  0
 22 23  1  0  0  0
 23 24  1  0  0  0
 23 25  2  0  0  0
 17 18  1  0  0  0
 18 19  1  0  0  0
 18 20  2  0  0  0
 41 37  1  0  0  0
 12  8  1  0  0  0
 44 45  1  0  0  0
 35 36  1  0  0  0
 54 55  1  0  0  0
 57 59  1  0  0  0
 57 60  1  0  0  0
 58 61  1  0  0  0
  3  4  1  0  0  0
 29 31  1  0  0  0
 15 16  1  0  0  0
 24 26  1  0  0  0
 19 21  1  0  0  0
M  END
> <minimizedAffinity>
-8.09800

> <CNNscore>
0.1766985655

> <CNNaffinity>
6.4034280777

> <CNN_VS>
1.1314765215

> <CNNaffinity_variance>
0.3152231872

$$$$
[H]N=C(N([H])[H])N([H])C([H])([H])C([H])([H])C([H])([H])[C@@]([H])(C(=O)N([H])[C@]([H])(C(=O)N1C([H])([H])C([H])([H])C([H])([H])[C@@]1([H])C(=O)N([H])[C@]([H])(C(=O)O[H])C([H])([H])C(=O)O[H])C([H])([H])C(=O)O[H])N([H])C(=O)[C@@]1([H])C([H])([H])C([H])([H])C([H])([H])[C@@]1([H])N([H])C(=O)OC(C([H])([H])[H])(C([H])([H])[H])C([H])([H])[H]


 61 62  0  0  0  0  0  0  0  0999 V2000
    4.1779    7.9680   15.4074 C   0  0  0  0  0  0  0  0  0  0  0  0
    5.4675    7.9990   15.4670 O   0  0  0  0  0  0  0  0  0  0  0  0
    3.4999    8.7662   16.3357 N   0  0  0  0  0  0  0  0  0  0  0  0
    2.4893    8.9025   16.4612 H   0  0  0  0  0  0  0  0  0  0  0  0
    4.3137    9.5751   17.2826 C   0  0  0  0  0  0  0  0  0  0  0  0
    4.0569    8.9793   18.6352 C   0  0  0  0  0  0  0  0  0  0  0  0
    2.9206    9.1167   19.2129 O   0  0  0  0  0  0  0  0  0  0  0  0
    5.0524    8.2415   19.3226 N   0  0  0  0  0  0  0  0  0  0  0  0
    6.3721    7.9691   18.8443 C   0  0  0  0  0  0  0  0  0  0  0  0
    6.6514    6.5668   19.3380 C   0  0  0  0  0  0  0  0  0  0  0  0
    5.6392    6.3102   20.4275 C   0  0  0  0  0  0  0  0  0  0  0  0
    4.9041    7.6309   20.6093 C   0  0  0  0  0  0  0  0  0  0  0  0
    5.5932    8.3770   21.7119 C   0  0  0  0  0  0  0  0  0  0  0  0
    5.1495    9.4892   22.0775 O   0  0  0  0  0  0  0  0  0  0  0  0
    6.7429    7.8341   22.3420 N   0  0  0  0  0  0  0  0  0  0  0  0
    7.1191    6.9217   22.0536 H   0  0  0  0  0  0  0  0  0  0  0  0
    7.4292    8.5435   23.4153 C   0  0  0  0  0  0  0  0  0  0  0  0
    7.7557    9.9031   22.9233 C   0  0  0  0  0  0  0  0  0  0  0  0
    7.1328   11.0400   23.3809 O   0  0  0  0  0  0  0  0  0  0  0  0
    8.6521   10.0469   22.0314 O   0  0  0  0  0  0  0  0  0  0  0  0
    6.5566   11.6029   22.7636 H   0  0  0  0  0  0  0  0  0  0  0  0
    8.7049    7.8129   23.7394 C   0  0  0  0  0  0  0  0  0  0  0  0
    9.0470    6.7825   22.7529 C   0  0  0  0  0  0  0  0  0  0  0  0
    9.5603    7.1681   21.5120 O   0  0  0  0  0  0  0  0  0  0  0  0
    8.8945    5.5628   22.9829 O   0  0  0  0  0  0  0  0  0  0  0  0
    9.4066    6.5447   20.7039 H   0  0  0  0  0  0  0  0  0  0  0  0
    3.8121   10.9828   17.2874 C   0  0  0  0  0  0  0  0  0  0  0  0
    3.6990   11.5485   15.9161 C   0  0  0  0  0  0  0  0  0  0  0  0
    4.7450   12.3101   15.4063 O   0  0  0  0  0  0  0  0  0  0  0  0
    2.6949   11.3703   15.1891 O   0  0  0  0  0  0  0  0  0  0  0  0
    4.8684   13.2368   15.7998 H   0  0  0  0  0  0  0  0  0  0  0  0
    3.6009    7.0972   14.3590 C   0  0  0  0  0  0  0  0  0  0  0  0
    3.3336    4.9400   15.6781 C   0  0  0  0  0  0  0  0  0  0  0  0
    4.5802    4.8343   15.6645 O   0  0  0  0  0  0  0  0  0  0  0  0
    2.7651    6.0713   15.0356 N   0  0  0  0  0  0  0  0  0  0  0  0
    1.7503    6.2256   15.0141 H   0  0  0  0  0  0  0  0  0  0  0  0
    3.2531    2.8138   17.0107 C   0  0  0  0  0  0  0  0  0  0  0  0
    3.8400    2.0237   15.9134 C   0  0  0  0  0  0  0  0  0  0  0  0
    2.9555    2.2612   14.7179 C   0  0  0  0  0  0  0  0  0  0  0  0
    1.8197    3.1446   15.1985 C   0  0  0  0  0  0  0  0  0  0  0  0
    2.4986    3.9218   16.3371 C   0  0  0  0  0  0  0  0  0  0  0  0
    4.3430    2.5378   19.1944 C   0  0  0  0  0  0  0  0  0  0  0  0
    3.6941    1.4552   19.3779 O   0  0  0  0  0  0  0  0  0  0  0  0
    4.1797    3.3040   18.0082 N   0  0  0  0  0  0  0  0  0  0  0  0
    4.7266    4.1778   17.9043 H   0  0  0  0  0  0  0  0  0  0  0  0
    5.1971    2.9256   20.1868 O   0  0  0  0  0  0  0  0  0  0  0  0
    6.1038    0.8806   21.1756 C   0  0  0  0  0  0  0  0  0  0  0  0
    5.4443    2.2074   21.3651 C   0  0  0  0  0  0  0  0  0  0  0  0
    6.3991    3.0657   22.2037 C   0  0  0  0  0  0  0  0  0  0  0  0
    4.1953    2.0571   22.2117 C   0  0  0  0  0  0  0  0  0  0  0  0
    2.7028    7.8805   13.4473 C   0  0  0  0  0  0  0  0  0  0  0  0
    3.0385    7.8720   11.9934 C   0  0  0  0  0  0  0  0  0  0  0  0
    2.8197    6.4863   11.3934 C   0  0  0  0  0  0  0  0  0  0  0  0
    4.0493    6.0765   10.7701 N   0  0  0  0  0  0  0  0  0  0  0  0
    4.2223    6.3585    9.7663 H   0  0  0  0  0  0  0  0  0  0  0  0
    5.0677    5.3165   11.3904 C   0  0  0  0  0  0  0  0  0  0  0  0
    4.6925    4.4271   12.4413 N   0  0  0  0  0  0  0  0  0  0  0  0
    6.2899    5.3752   11.0711 N   0  0  0  0  0  0  0  0  0  0  0  0
    4.4638    3.4291   12.2365 H   0  0  0  0  0  0  0  0  0  0  0  0
    4.6505    4.7993   13.4307 H   0  0  0  0  0  0  0  0  0  0  0  0
    6.6741    5.9887   10.3178 H   0  0  0  0  0  0  0  0  0  0  0  0
 47 48  1  0  0  0
 48 49  1  0  0  0
 48 50  1  0  0  0
 48 46  1  0  0  0
 46 42  1  0  0  0
 42 43  2  0  0  0
 42 44  1  0  0  0
 44 37  1  0  0  0
 37 38  1  0  0  0
 38 39  1  0  0  0
 39 40  1  0  0  0
 40 41  1  0  0  0
 41 33  1  0  0  0
 33 34  2  0  0  0
 33 35  1  0  0  0
 35 32  1  0  0  0
 32 51  1  0  0  0
 51 52  1  0  0  0
 52 53  1  0  0  0
 53 54  1  0  0  0
 54 56  1  0  0  0
 56 57  1  0  0  0
 56 58  2  0  0  0
 32  1  1  0  0  0
  1  2  2  0  0  0
  1  3  1  0  0  0
  3  5  1  0  0  0
  5 27  1  0  0  0
 27 28  1  0  0  0
 28 29  1  0  0  0
 28 30  2  0  0  0
  5  6  1  0  0  0
  6  7  2  0  0  0
  6  8  1  0  0  0
  8  9  1  0  0  0
  9 10  1  0  0  0
 10 11  1  0  0  0
 11 12  1  0  0  0
 12 13  1  0  0  0
 13 14  2  0  0  0
 13 15  1  0  0  0
 15 17  1  0  0  0
 17 22  1  0  0  0
 22 23  1  0  0  0
 23 24  1  0  0  0
 23 25  2  0  0  0
 17 18  1  0  0  0
 18 19  1  0  0  0
 18 20  2  0  0  0
 41 37  1  0  0  0
 12  8  1  0  0  0
 44 45  1  0  0  0
 35 36  1  0  0  0
 54 55  1  0  0  0
 57 59  1  0  0  0
 57 60  1  0  0  0
 58 61  1  0  0  0
  3  4  1  0  0  0
 29 31  1  0  0  0
 15 16  1  0  0  0
 24 26  1  0  0  0
 19 21  1  0  0  0
M  END
> <minimizedAffinity>
-7.57558

> <CNNscore>
0.1532130986

> <CNNaffinity>
6.4813766479

> <CNN_VS>
0.9930317998

> <CNNaffinity_variance>
0.1209603772

$$$$
[H]N=C(N([H])[H])N([H])C([H])([H])C([H])([H])C([H])([H])[C@@]([H])(C(=O)N([H])[C@]([H])(C(=O)N1C([H])([H])C([H])([H])C([H])([H])[C@@]1([H])C(=O)N([H])[C@]([H])(C(=O)O[H])C([H])([H])C(=O)O[H])C([H])([H])C(=O)O[H])N([H])C(=O)[C@@]1([H])C([H])([H])C([H])([H])C([H])([H])[C@@]1([H])N([H])C(=O)OC(C([H])([H])[H])(C([H])([H])[H])C([H])([H])[H]


 61 62  0  0  0  0  0  0  0  0999 V2000
    6.0635    8.0069   17.6715 C   0  0  0  0  0  0  0  0  0  0  0  0
    7.0786    8.7928   17.5328 O   0  0  0  0  0  0  0  0  0  0  0  0
    5.4250    8.0407   18.9164 N   0  0  0  0  0  0  0  0  0  0  0  0
    4.6032    7.5161   19.2406 H   0  0  0  0  0  0  0  0  0  0  0  0
    5.9572    8.9739   19.9456 C   0  0  0  0  0  0  0  0  0  0  0  0
    6.1450    8.1397   21.1781 C   0  0  0  0  0  0  0  0  0  0  0  0
    5.1521    7.5491   21.7341 O   0  0  0  0  0  0  0  0  0  0  0  0
    7.4204    7.9683   21.7714 N   0  0  0  0  0  0  0  0  0  0  0  0
    8.6463    8.5321   21.2980 C   0  0  0  0  0  0  0  0  0  0  0  0
    9.6688    7.4517   21.5725 C   0  0  0  0  0  0  0  0  0  0  0  0
    9.0237    6.5265   22.5751 C   0  0  0  0  0  0  0  0  0  0  0  0
    7.7032    7.1907   22.9400 C   0  0  0  0  0  0  0  0  0  0  0  0
    7.9436    8.0163   24.1680 C   0  0  0  0  0  0  0  0  0  0  0  0
    7.1681    8.9611   24.4395 O   0  0  0  0  0  0  0  0  0  0  0  0
    9.0415    7.7368   25.0222 N   0  0  0  0  0  0  0  0  0  0  0  0
    9.6868    6.9640   24.8133 H   0  0  0  0  0  0  0  0  0  0  0  0
    9.2944    8.5280   26.2208 C   0  0  0  0  0  0  0  0  0  0  0  0
   10.0684    9.7261   25.8175 C   0  0  0  0  0  0  0  0  0  0  0  0
    9.4818   10.9127   25.4464 O   0  0  0  0  0  0  0  0  0  0  0  0
   11.3400    9.6741   25.8049 O   0  0  0  0  0  0  0  0  0  0  0  0
    9.5773   11.2679   24.5005 H   0  0  0  0  0  0  0  0  0  0  0  0
   10.1147    7.7059   27.1787 C   0  0  0  0  0  0  0  0  0  0  0  0
   10.4085    6.3586   26.6785 C   0  0  0  0  0  0  0  0  0  0  0  0
    9.5263    5.3146   26.9685 O   0  0  0  0  0  0  0  0  0  0  0  0
   11.4271    6.1077   25.9978 O   0  0  0  0  0  0  0  0  0  0  0  0
    9.9007    4.3536   27.0045 H   0  0  0  0  0  0  0  0  0  0  0  0
    4.9327   10.0212   20.2398 C   0  0  0  0  0  0  0  0  0  0  0  0
    3.8298   10.0310   19.2415 C   0  0  0  0  0  0  0  0  0  0  0  0
    2.8214    9.0776   19.3328 O   0  0  0  0  0  0  0  0  0  0  0  0
    3.7641   10.8665   18.3108 O   0  0  0  0  0  0  0  0  0  0  0  0
    3.0685    8.1269   19.0800 H   0  0  0  0  0  0  0  0  0  0  0  0
    5.7154    7.1872   16.4894 C   0  0  0  0  0  0  0  0  0  0  0  0
    4.7270    5.0215   17.3827 C   0  0  0  0  0  0  0  0  0  0  0  0
    5.8975    4.6057   17.5318 O   0  0  0  0  0  0  0  0  0  0  0  0
    4.5586    6.3309   16.8602 N   0  0  0  0  0  0  0  0  0  0  0  0
    3.6273    6.7391   16.7182 H   0  0  0  0  0  0  0  0  0  0  0  0
    3.9193    2.7902   18.2022 C   0  0  0  0  0  0  0  0  0  0  0  0
    4.4175    2.0930   17.0030 C   0  0  0  0  0  0  0  0  0  0  0  0
    3.7904    2.7970   15.8286 C   0  0  0  0  0  0  0  0  0  0  0  0
    2.8725    3.8562   16.4090 C   0  0  0  0  0  0  0  0  0  0  0  0
    3.5758    4.1746   17.7376 C   0  0  0  0  0  0  0  0  0  0  0  0
    4.4790    1.9443   20.4393 C   0  0  0  0  0  0  0  0  0  0  0  0
    3.4432    1.2004   20.4136 O   0  0  0  0  0  0  0  0  0  0  0  0
    4.8029    2.7960   19.3481 N   0  0  0  0  0  0  0  0  0  0  0  0
    5.6534    3.3840   19.4149 H   0  0  0  0  0  0  0  0  0  0  0  0
    5.2579    1.8858   21.5593 O   0  0  0  0  0  0  0  0  0  0  0  0
    4.1020    3.7008   22.7218 C   0  0  0  0  0  0  0  0  0  0  0  0
    5.3404    2.8860   22.5381 C   0  0  0  0  0  0  0  0  0  0  0  0
    5.6064    2.1703   23.8679 C   0  0  0  0  0  0  0  0  0  0  0  0
    6.5382    3.7914   22.3259 C   0  0  0  0  0  0  0  0  0  0  0  0
    5.2847    8.0556   15.3441 C   0  0  0  0  0  0  0  0  0  0  0  0
    3.8595    8.4972   15.3266 C   0  0  0  0  0  0  0  0  0  0  0  0
    3.5233    9.1956   14.0123 C   0  0  0  0  0  0  0  0  0  0  0  0
    4.1243   10.5017   14.0407 N   0  0  0  0  0  0  0  0  0  0  0  0
    4.7704   10.7750   13.2502 H   0  0  0  0  0  0  0  0  0  0  0  0
    3.9250   11.4726   15.0493 C   0  0  0  0  0  0  0  0  0  0  0  0
    2.5847   11.8590   15.3502 N   0  0  0  0  0  0  0  0  0  0  0  0
    4.8604   12.0189   15.7018 N   0  0  0  0  0  0  0  0  0  0  0  0
    2.0491   11.3755   16.1049 H   0  0  0  0  0  0  0  0  0  0  0  0
    2.1454   12.6440   14.7934 H   0  0  0  0  0  0  0  0  0  0  0  0
    5.8750   11.8106   15.5651 H   0  0  0  0  0  0  0  0  0  0  0  0
 47 48  1  0  0  0
 48 49  1  0  0  0
 48 50  1  0  0  0
 48 46  1  0  0  0
 46 42  1  0  0  0
 42 43  2  0  0  0
 42 44  1  0  0  0
 44 37  1  0  0  0
 37 38  1  0  0  0
 38 39  1  0  0  0
 39 40  1  0  0  0
 40 41  1  0  0  0
 41 33  1  0  0  0
 33 34  2  0  0  0
 33 35  1  0  0  0
 35 32  1  0  0  0
 32 51  1  0  0  0
 51 52  1  0  0  0
 52 53  1  0  0  0
 53 54  1  0  0  0
 54 56  1  0  0  0
 56 57  1  0  0  0
 56 58  2  0  0  0
 32  1  1  0  0  0
  1  2  2  0  0  0
  1  3  1  0  0  0
  3  5  1  0  0  0
  5 27  1  0  0  0
 27 28  1  0  0  0
 28 29  1  0  0  0
 28 30  2  0  0  0
  5  6  1  0  0  0
  6  7  2  0  0  0
  6  8  1  0  0  0
  8  9  1  0  0  0
  9 10  1  0  0  0
 10 11  1  0  0  0
 11 12  1  0  0  0
 12 13  1  0  0  0
 13 14  2  0  0  0
 13 15  1  0  0  0
 15 17  1  0  0  0
 17 22  1  0  0  0
 22 23  1  0  0  0
 23 24  1  0  0  0
 23 25  2  0  0  0
 17 18  1  0  0  0
 18 19  1  0  0  0
 18 20  2  0  0  0
 41 37  1  0  0  0
 12  8  1  0  0  0
 44 45  1  0  0  0
 35 36  1  0  0  0
 54 55  1  0  0  0
 57 59  1  0  0  0
 57 60  1  0  0  0
 58 61  1  0  0  0
  3  4  1  0  0  0
 29 31  1  0  0  0
 15 16  1  0  0  0
 24 26  1  0  0  0
 19 21  1  0  0  0
M  END
> <minimizedAffinity>
-8.09403

> <CNNscore>
0.1517347693

> <CNNaffinity>
6.4124388695

> <CNN_VS>
0.9729899168

> <CNNaffinity_variance>
0.4197095335

$$$$
[H]N=C(N([H])[H])N([H])C([H])([H])C([H])([H])C([H])([H])[C@@]([H])(C(=O)N([H])[C@]([H])(C(=O)N1C([H])([H])C([H])([H])C([H])([H])[C@@]1([H])C(=O)N([H])[C@]([H])(C(=O)O[H])C([H])([H])C(=O)O[H])C([H])([H])C(=O)O[H])N([H])C(=O)[C@@]1([H])C([H])([H])C([H])([H])C([H])([H])[C@@]1([H])N([H])C(=O)OC(C([H])([H])[H])(C([H])([H])[H])C([H])([H])[H]


 61 62  0  0  0  0  0  0  0  0999 V2000
    3.9730    7.9226   14.8212 C   0  0  0  0  0  0  0  0  0  0  0  0
    3.5050    9.0966   14.5564 O   0  0  0  0  0  0  0  0  0  0  0  0
    4.4234    7.1783   13.7249 N   0  0  0  0  0  0  0  0  0  0  0  0
    4.8384    6.2387   13.7027 H   0  0  0  0  0  0  0  0  0  0  0  0
    4.3357    7.8028   12.3774 C   0  0  0  0  0  0  0  0  0  0  0  0
    3.5021    6.8625   11.5582 C   0  0  0  0  0  0  0  0  0  0  0  0
    4.0384    5.8882   10.9205 O   0  0  0  0  0  0  0  0  0  0  0  0
    2.0961    7.0099   11.4602 N   0  0  0  0  0  0  0  0  0  0  0  0
    1.3138    8.0203   12.1021 C   0  0  0  0  0  0  0  0  0  0  0  0
    0.0371    7.3017   12.4787 C   0  0  0  0  0  0  0  0  0  0  0  0
    0.0134    6.0478   11.6391 C   0  0  0  0  0  0  0  0  0  0  0  0
    1.2151    6.1651   10.7117 C   0  0  0  0  0  0  0  0  0  0  0  0
    0.7333    6.7814    9.4329 C   0  0  0  0  0  0  0  0  0  0  0  0
    1.4151    7.6752    8.8818 O   0  0  0  0  0  0  0  0  0  0  0  0
   -0.4877    6.3615    8.8444 N   0  0  0  0  0  0  0  0  0  0  0  0
   -1.0586    5.6283    9.2844 H   0  0  0  0  0  0  0  0  0  0  0  0
   -0.9755    6.9485    7.6019 C   0  0  0  0  0  0  0  0  0  0  0  0
   -2.4019    7.3015    7.7972 C   0  0  0  0  0  0  0  0  0  0  0  0
   -2.9800    8.4274    7.2607 O   0  0  0  0  0  0  0  0  0  0  0  0
   -3.1449    6.5391    8.4948 O   0  0  0  0  0  0  0  0  0  0  0  0
   -3.3326    9.1676    7.8587 H   0  0  0  0  0  0  0  0  0  0  0  0
   -0.8631    5.9229    6.5058 C   0  0  0  0  0  0  0  0  0  0  0  0
    0.4406    5.9365    5.8334 C   0  0  0  0  0  0  0  0  0  0  0  0
    1.3031    7.0167    6.0368 O   0  0  0  0  0  0  0  0  0  0  0  0
    0.8112    5.0106    5.0789 O   0  0  0  0  0  0  0  0  0  0  0  0
    1.9814    7.2476    5.2941 H   0  0  0  0  0  0  0  0  0  0  0  0
    5.7009    7.8672   11.7730 C   0  0  0  0  0  0  0  0  0  0  0  0
    6.5901    8.8256   12.4828 C   0  0  0  0  0  0  0  0  0  0  0  0
    6.0486    9.9933   13.0097 O   0  0  0  0  0  0  0  0  0  0  0  0
    7.8182    8.6301   12.6309 O   0  0  0  0  0  0  0  0  0  0  0  0
    5.7743   10.7090   12.3454 H   0  0  0  0  0  0  0  0  0  0  0  0
    3.9732    7.5347   16.2495 C   0  0  0  0  0  0  0  0  0  0  0  0
    3.3189    5.4688   17.5795 C   0  0  0  0  0  0  0  0  0  0  0  0
    3.6969    6.0714   18.6087 O   0  0  0  0  0  0  0  0  0  0  0  0
    3.4265    6.1558   16.3416 N   0  0  0  0  0  0  0  0  0  0  0  0
    3.1288    5.7251   15.4584 H   0  0  0  0  0  0  0  0  0  0  0  0
    3.7637    3.0591   18.1255 C   0  0  0  0  0  0  0  0  0  0  0  0
    4.7284    2.9160   17.0204 C   0  0  0  0  0  0  0  0  0  0  0  0
    3.9932    3.3394   15.7762 C   0  0  0  0  0  0  0  0  0  0  0  0
    2.5724    3.6507   16.2075 C   0  0  0  0  0  0  0  0  0  0  0  0
    2.7863    4.0985   17.6618 C   0  0  0  0  0  0  0  0  0  0  0  0
    4.7096    2.2819   20.2549 C   0  0  0  0  0  0  0  0  0  0  0  0
    4.5656    1.0731   19.8739 O   0  0  0  0  0  0  0  0  0  0  0  0
    4.3239    3.3684   19.4234 N   0  0  0  0  0  0  0  0  0  0  0  0
    4.4578    4.3333   19.7762 H   0  0  0  0  0  0  0  0  0  0  0  0
    5.2478    2.4825   21.4937 O   0  0  0  0  0  0  0  0  0  0  0  0
    3.8521    3.9199   22.8964 C   0  0  0  0  0  0  0  0  0  0  0  0
    4.5147    2.5983   22.6829 C   0  0  0  0  0  0  0  0  0  0  0  0
    3.4013    1.5463   22.6099 C   0  0  0  0  0  0  0  0  0  0  0  0
    5.3399    2.2220   23.8982 C   0  0  0  0  0  0  0  0  0  0  0  0
    5.3706    7.5029   16.7951 C   0  0  0  0  0  0  0  0  0  0  0  0
    6.1500    8.7740   16.7376 C   0  0  0  0  0  0  0  0  0  0  0  0
    5.9562    9.5885   18.0131 C   0  0  0  0  0  0  0  0  0  0  0  0
    5.5472    8.6855   19.0550 N   0  0  0  0  0  0  0  0  0  0  0  0
    6.1065    7.8007   19.2015 H   0  0  0  0  0  0  0  0  0  0  0  0
    4.4439    8.8778   19.9182 C   0  0  0  0  0  0  0  0  0  0  0  0
    3.1479    8.9920   19.3320 N   0  0  0  0  0  0  0  0  0  0  0  0
    4.5340    8.9538   21.1773 N   0  0  0  0  0  0  0  0  0  0  0  0
    2.5440    8.1491   19.2095 H   0  0  0  0  0  0  0  0  0  0  0  0
    2.8124    9.9469   19.0240 H   0  0  0  0  0  0  0  0  0  0  0  0
    5.4298    8.8821   21.7101 H   0  0  0  0  0  0  0  0  0  0  0  0
 47 48  1  0  0  0
 48 49  1  0  0  0
 48 50  1  0  0  0
 48 46  1  0  0  0
 46 42  1  0  0  0
 42 43  2  0  0  0
 42 44  1  0  0  0
 44 37  1  0  0  0
 37 38  1  0  0  0
 38 39  1  0  0  0
 39 40  1  0  0  0
 40 41  1  0  0  0
 41 33  1  0  0  0
 33 34  2  0  0  0
 33 35  1  0  0  0
 35 32  1  0  0  0
 32 51  1  0  0  0
 51 52  1  0  0  0
 52 53  1  0  0  0
 53 54  1  0  0  0
 54 56  1  0  0  0
 56 57  1  0  0  0
 56 58  2  0  0  0
 32  1  1  0  0  0
  1  2  2  0  0  0
  1  3  1  0  0  0
  3  5  1  0  0  0
  5 27  1  0  0  0
 27 28  1  0  0  0
 28 29  1  0  0  0
 28 30  2  0  0  0
  5  6  1  0  0  0
  6  7  2  0  0  0
  6  8  1  0  0  0
  8  9  1  0  0  0
  9 10  1  0  0  0
 10 11  1  0  0  0
 11 12  1  0  0  0
 12 13  1  0  0  0
 13 14  2  0  0  0
 13 15  1  0  0  0
 15 17  1  0  0  0
 17 22  1  0  0  0
 22 23  1  0  0  0
 23 24  1  0  0  0
 23 25  2  0  0  0
 17 18  1  0  0  0
 18 19  1  0  0  0
 18 20  2  0  0  0
 41 37  1  0  0  0
 12  8  1  0  0  0
 44 45  1  0  0  0
 35 36  1  0  0  0
 54 55  1  0  0  0
 57 59  1  0  0  0
 57 60  1  0  0  0
 58 61  1  0  0  0
  3  4  1  0  0  0
 29 31  1  0  0  0
 15 16  1  0  0  0
 24 26  1  0  0  0
 19 21  1  0  0  0
M  END
> <minimizedAffinity>
-7.53671

> <CNNscore>
0.1452976614

> <CNNaffinity>
6.0298480988

> <CNN_VS>
0.8761228323

> <CNNaffinity_variance>
0.4545888901

$$$$
[H]N=C(N([H])[H])N([H])C([H])([H])C([H])([H])C([H])([H])[C@@]([H])(C(=O)N([H])[C@]([H])(C(=O)N1C([H])([H])C([H])([H])C([H])([H])[C@@]1([H])C(=O)N([H])[C@]([H])(C(=O)O[H])C([H])([H])C(=O)O[H])C([H])([H])C(=O)O[H])N([H])C(=O)[C@@]1([H])C([H])([H])C([H])([H])C([H])([H])[C@@]1([H])N([H])C(=O)OC(C([H])([H])[H])(C([H])([H])[H])C([H])([H])[H]


 61 62  0  0  0  0  0  0  0  0999 V2000
    3.7986    4.1830   14.8322 C   0  0  0  0  0  0  0  0  0  0  0  0
    3.7729    5.4411   14.5423 O   0  0  0  0  0  0  0  0  0  0  0  0
    3.2612    3.3192   13.8711 N   0  0  0  0  0  0  0  0  0  0  0  0
    3.1882    2.2945   13.8855 H   0  0  0  0  0  0  0  0  0  0  0  0
    2.7299    3.9185   12.6173 C   0  0  0  0  0  0  0  0  0  0  0  0
    1.2376    3.8166   12.7305 C   0  0  0  0  0  0  0  0  0  0  0  0
    0.6817    2.7692   13.2180 O   0  0  0  0  0  0  0  0  0  0  0  0
    0.3875    4.8694   12.3096 N   0  0  0  0  0  0  0  0  0  0  0  0
    0.8121    6.1163   11.7530 C   0  0  0  0  0  0  0  0  0  0  0  0
   -0.1725    7.1162   12.3175 C   0  0  0  0  0  0  0  0  0  0  0  0
   -1.3438    6.3008   12.8084 C   0  0  0  0  0  0  0  0  0  0  0  0
   -1.0426    4.8710   12.3809 C   0  0  0  0  0  0  0  0  0  0  0  0
   -1.7108    4.6511   11.0571 C   0  0  0  0  0  0  0  0  0  0  0  0
   -1.3107    3.7314   10.3076 O   0  0  0  0  0  0  0  0  0  0  0  0
   -2.7899    5.4763   10.6473 N   0  0  0  0  0  0  0  0  0  0  0  0
   -3.1305    6.2352   11.2517 H   0  0  0  0  0  0  0  0  0  0  0  0
   -3.4531    5.2806    9.3635 C   0  0  0  0  0  0  0  0  0  0  0  0
   -3.2661    6.5150    8.5644 C   0  0  0  0  0  0  0  0  0  0  0  0
   -2.0323    6.9862    8.1830 O   0  0  0  0  0  0  0  0  0  0  0  0
   -4.2849    7.1880    8.2054 O   0  0  0  0  0  0  0  0  0  0  0  0
   -1.6824    7.8727    8.5318 H   0  0  0  0  0  0  0  0  0  0  0  0
   -4.9229    5.0641    9.6065 C   0  0  0  0  0  0  0  0  0  0  0  0
   -5.3096    5.2482   11.0095 C   0  0  0  0  0  0  0  0  0  0  0  0
   -5.6434    6.5264   11.4643 O   0  0  0  0  0  0  0  0  0  0  0  0
   -5.3513    4.2966   11.8198 O   0  0  0  0  0  0  0  0  0  0  0  0
   -5.5018    6.7426   12.4635 H   0  0  0  0  0  0  0  0  0  0  0  0
    3.1692    3.0939   11.4510 C   0  0  0  0  0  0  0  0  0  0  0  0
    3.3935    3.9138   10.2301 C   0  0  0  0  0  0  0  0  0  0  0  0
    3.0497    3.3917    8.9877 O   0  0  0  0  0  0  0  0  0  0  0  0
    3.8832    5.0658   10.2666 O   0  0  0  0  0  0  0  0  0  0  0  0
    3.6414    2.6524    8.6241 H   0  0  0  0  0  0  0  0  0  0  0  0
    4.4008    3.8336   16.1383 C   0  0  0  0  0  0  0  0  0  0  0  0
    5.3206    5.5258   17.7981 C   0  0  0  0  0  0  0  0  0  0  0  0
    6.4314    4.9615   17.6837 O   0  0  0  0  0  0  0  0  0  0  0  0
    4.2407    5.0071   17.0362 N   0  0  0  0  0  0  0  0  0  0  0  0
    3.3036    5.4246   17.0755 H   0  0  0  0  0  0  0  0  0  0  0  0
    5.2989    6.3845   20.1572 C   0  0  0  0  0  0  0  0  0  0  0  0
    4.1118    5.5850   20.5096 C   0  0  0  0  0  0  0  0  0  0  0  0
    3.0532    5.9572   19.5052 C   0  0  0  0  0  0  0  0  0  0  0  0
    3.6587    7.0391   18.6309 C   0  0  0  0  0  0  0  0  0  0  0  0
    5.1520    6.6821   18.6942 C   0  0  0  0  0  0  0  0  0  0  0  0
    7.0686    5.9401   21.8014 C   0  0  0  0  0  0  0  0  0  0  0  0
    6.4017    6.5730   22.6855 O   0  0  0  0  0  0  0  0  0  0  0  0
    6.5812    5.7937   20.4741 N   0  0  0  0  0  0  0  0  0  0  0  0
    7.1589    5.2731   19.7895 H   0  0  0  0  0  0  0  0  0  0  0  0
    8.2679    5.4135   22.1874 O   0  0  0  0  0  0  0  0  0  0  0  0
    9.4446    7.5128   21.7513 C   0  0  0  0  0  0  0  0  0  0  0  0
    9.4565    6.1406   22.3415 C   0  0  0  0  0  0  0  0  0  0  0  0
    9.6716    6.3047   23.8509 C   0  0  0  0  0  0  0  0  0  0  0  0
   10.6639    5.3671   21.8483 C   0  0  0  0  0  0  0  0  0  0  0  0
    3.6772    2.6808   16.7698 C   0  0  0  0  0  0  0  0  0  0  0  0
    4.4621    1.8126   17.6954 C   0  0  0  0  0  0  0  0  0  0  0  0
    4.2520    2.2357   19.1462 C   0  0  0  0  0  0  0  0  0  0  0  0
    4.4042    1.0684   19.9723 N   0  0  0  0  0  0  0  0  0  0  0  0
    5.3642    0.6342   20.0569 H   0  0  0  0  0  0  0  0  0  0  0  0
    3.3665    0.4371   20.6962 C   0  0  0  0  0  0  0  0  0  0  0  0
    2.7179   -0.6832   20.0957 N   0  0  0  0  0  0  0  0  0  0  0  0
    2.9783    0.8026   21.8429 N   0  0  0  0  0  0  0  0  0  0  0  0
    3.0540   -1.6541   20.2812 H   0  0  0  0  0  0  0  0  0  0  0  0
    1.8908   -0.5098   19.4591 H   0  0  0  0  0  0  0  0  0  0  0  0
    3.3824    1.6063   22.3741 H   0  0  0  0  0  0  0  0  0  0  0  0
 47 48  1  0  0  0
 48 49  1  0  0  0
 48 50  1  0  0  0
 48 46  1  0  0  0
 46 42  1  0  0  0
 42 43  2  0  0  0
 42 44  1  0  0  0
 44 37  1  0  0  0
 37 38  1  0  0  0
 38 39  1  0  0  0
 39 40  1  0  0  0
 40 41  1  0  0  0
 41 33  1  0  0  0
 33 34  2  0  0  0
 33 35  1  0  0  0
 35 32  1  0  0  0
 32 51  1  0  0  0
 51 52  1  0  0  0
 52 53  1  0  0  0
 53 54  1  0  0  0
 54 56  1  0  0  0
 56 57  1  0  0  0
 56 58  2  0  0  0
 32  1  1  0  0  0
  1  2  2  0  0  0
  1  3  1  0  0  0
  3  5  1  0  0  0
  5 27  1  0  0  0
 27 28  1  0  0  0
 28 29  1  0  0  0
 28 30  2  0  0  0
  5  6  1  0  0  0
  6  7  2  0  0  0
  6  8  1  0  0  0
  8  9  1  0  0  0
  9 10  1  0  0  0
 10 11  1  0  0  0
 11 12  1  0  0  0
 12 13  1  0  0  0
 13 14  2  0  0  0
 13 15  1  0  0  0
 15 17  1  0  0  0
 17 22  1  0  0  0
 22 23  1  0  0  0
 23 24  1  0  0  0
 23 25  2  0  0  0
 17 18  1  0  0  0
 18 19  1  0  0  0
 18 20  2  0  0  0
 41 37  1  0  0  0
 12  8  1  0  0  0
 44 45  1  0  0  0
 35 36  1  0  0  0
 54 55  1  0  0  0
 57 59  1  0  0  0
 57 60  1  0  0  0
 58 61  1  0  0  0
  3  4  1  0  0  0
 29 31  1  0  0  0
 15 16  1  0  0  0
 24 26  1  0  0  0
 19 21  1  0  0  0
M  END
> <minimizedAffinity>
-7.18713

> <CNNscore>
0.1300538033

> <CNNaffinity>
6.0236368179

> <CNN_VS>
0.7833968997

> <CNNaffinity_variance>
0.5213068724

$$$$
[H]N=C(N([H])[H])N([H])C([H])([H])C([H])([H])C([H])([H])[C@@]([H])(C(=O)N([H])[C@]([H])(C(=O)N1C([H])([H])C([H])([H])C([H])([H])[C@@]1([H])C(=O)N([H])[C@]([H])(C(=O)O[H])C([H])([H])C(=O)O[H])C([H])([H])C(=O)O[H])N([H])C(=O)[C@@]1([H])C([H])([H])C([H])([H])C([H])([H])[C@@]1([H])N([H])C(=O)OC(C([H])([H])[H])(C([H])([H])[H])C([H])([H])[H]


 61 62  0  0  0  0  0  0  0  0999 V2000
    2.6791    5.2350   15.7179 C   0  0  0  0  0  0  0  0  0  0  0  0
    1.8203    4.9707   16.6453 O   0  0  0  0  0  0  0  0  0  0  0  0
    4.0221    5.0105   16.0411 N   0  0  0  0  0  0  0  0  0  0  0  0
    4.8610    5.1395   15.4621 H   0  0  0  0  0  0  0  0  0  0  0  0
    4.3320    4.4834   17.3974 C   0  0  0  0  0  0  0  0  0  0  0  0
    5.3923    5.3933   17.9436 C   0  0  0  0  0  0  0  0  0  0  0  0
    6.6329    5.1868   17.6947 O   0  0  0  0  0  0  0  0  0  0  0  0
    5.0669    6.5134   18.7483 N   0  0  0  0  0  0  0  0  0  0  0  0
    3.7484    6.9170   19.1272 C   0  0  0  0  0  0  0  0  0  0  0  0
    3.8140    8.4280   19.1036 C   0  0  0  0  0  0  0  0  0  0  0  0
    5.2832    8.7718   19.1330 C   0  0  0  0  0  0  0  0  0  0  0  0
    6.0015    7.4412   19.3104 C   0  0  0  0  0  0  0  0  0  0  0  0
    6.2294    7.2496   20.7796 C   0  0  0  0  0  0  0  0  0  0  0  0
    5.7479    6.2470   21.3545 O   0  0  0  0  0  0  0  0  0  0  0  0
    6.9837    8.1944   21.5223 N   0  0  0  0  0  0  0  0  0  0  0  0
    7.3862    9.0225   21.0646 H   0  0  0  0  0  0  0  0  0  0  0  0
    7.2163    8.0282   22.9522 C   0  0  0  0  0  0  0  0  0  0  0  0
    6.8175    9.2872   23.6253 C   0  0  0  0  0  0  0  0  0  0  0  0
    6.5569   10.4544   22.9474 O   0  0  0  0  0  0  0  0  0  0  0  0
    6.7077    9.3110   24.8930 O   0  0  0  0  0  0  0  0  0  0  0  0
    7.1439   11.2726   23.0735 H   0  0  0  0  0  0  0  0  0  0  0  0
    8.6850    7.7875   23.1785 C   0  0  0  0  0  0  0  0  0  0  0  0
    9.0462    6.3658   23.1643 C   0  0  0  0  0  0  0  0  0  0  0  0
    8.0454    5.4083   22.9813 O   0  0  0  0  0  0  0  0  0  0  0  0
   10.2254    5.9762   23.3118 O   0  0  0  0  0  0  0  0  0  0  0  0
    8.1918    4.4660   23.3761 H   0  0  0  0  0  0  0  0  0  0  0  0
    4.9101    3.1109   17.2738 C   0  0  0  0  0  0  0  0  0  0  0  0
    3.8825    2.0470   17.4330 C   0  0  0  0  0  0  0  0  0  0  0  0
    2.7774    2.0371   16.5888 O   0  0  0  0  0  0  0  0  0  0  0  0
    3.9649    1.1484   18.3015 O   0  0  0  0  0  0  0  0  0  0  0  0
    2.0816    2.7595   16.7400 H   0  0  0  0  0  0  0  0  0  0  0  0
    2.1184    5.7312   14.4412 C   0  0  0  0  0  0  0  0  0  0  0  0
    2.7995    8.1207   13.9018 C   0  0  0  0  0  0  0  0  0  0  0  0
    1.7180    8.4921   14.4097 O   0  0  0  0  0  0  0  0  0  0  0  0
    3.0722    6.7274   13.8876 N   0  0  0  0  0  0  0  0  0  0  0  0
    3.9429    6.3525   13.4932 H   0  0  0  0  0  0  0  0  0  0  0  0
    5.1943    8.7377   13.4690 C   0  0  0  0  0  0  0  0  0  0  0  0
    5.4959    8.8521   14.9072 C   0  0  0  0  0  0  0  0  0  0  0  0
    4.4964    9.8339   15.4595 C   0  0  0  0  0  0  0  0  0  0  0  0
    3.6790   10.3186   14.2770 C   0  0  0  0  0  0  0  0  0  0  0  0
    3.7444    9.1013   13.3415 C   0  0  0  0  0  0  0  0  0  0  0  0
    6.1854    7.4770   11.6086 C   0  0  0  0  0  0  0  0  0  0  0  0
    6.5191    8.5730   11.0479 O   0  0  0  0  0  0  0  0  0  0  0  0
    5.4999    7.4641   12.8539 N   0  0  0  0  0  0  0  0  0  0  0  0
    5.2473    6.5496   13.2702 H   0  0  0  0  0  0  0  0  0  0  0  0
    6.5147    6.3219   10.9591 O   0  0  0  0  0  0  0  0  0  0  0  0
    4.2266    5.9199   10.1944 C   0  0  0  0  0  0  0  0  0  0  0  0
    5.6872    5.6399   10.0561 C   0  0  0  0  0  0  0  0  0  0  0  0
    6.1008    6.1036    8.6540 C   0  0  0  0  0  0  0  0  0  0  0  0
    5.9393    4.1447   10.0721 C   0  0  0  0  0  0  0  0  0  0  0  0
    1.9977    4.6187   13.4416 C   0  0  0  0  0  0  0  0  0  0  0  0
    0.6257    4.2882   12.9572 C   0  0  0  0  0  0  0  0  0  0  0  0
   -0.0680    5.5287   12.4021 C   0  0  0  0  0  0  0  0  0  0  0  0
   -1.3689    5.6151   13.0090 N   0  0  0  0  0  0  0  0  0  0  0  0
   -2.0950    4.8933   12.7464 H   0  0  0  0  0  0  0  0  0  0  0  0
   -1.7724    6.5964   13.9437 C   0  0  0  0  0  0  0  0  0  0  0  0
   -3.0860    7.1396   13.8182 N   0  0  0  0  0  0  0  0  0  0  0  0
   -1.0422    7.0219   14.8844 N   0  0  0  0  0  0  0  0  0  0  0  0
   -3.8869    6.7194   14.3400 H   0  0  0  0  0  0  0  0  0  0  0  0
   -3.2316    7.9753   13.1860 H   0  0  0  0  0  0  0  0  0  0  0  0
   -0.0678    6.6937   15.0695 H   0  0  0  0  0  0  0  0  0  0  0  0
 47 48  1  0  0  0
 48 49  1  0  0  0
 48 50  1  0  0  0
 48 46  1  0  0  0
 46 42  1  0  0  0
 42 43  2  0  0  0
 42 44  1  0  0  0
 44 37  1  0  0  0
 37 38  1  0  0  0
 38 39  1  0  0  0
 39 40  1  0  0  0
 40 41  1  0  0  0
 41 33  1  0  0  0
 33 34  2  0  0  0
 33 35  1  0  0  0
 35 32  1  0  0  0
 32 51  1  0  0  0
 51 52  1  0  0  0
 52 53  1  0  0  0
 53 54  1  0  0  0
 54 56  1  0  0  0
 56 57  1  0  0  0
 56 58  2  0  0  0
 32  1  1  0  0  0
  1  2  2  0  0  0
  1  3  1  0  0  0
  3  5  1  0  0  0
  5 27  1  0  0  0
 27 28  1  0  0  0
 28 29  1  0  0  0
 28 30  2  0  0  0
  5  6  1  0  0  0
  6  7  2  0  0  0
  6  8  1  0  0  0
  8  9  1  0  0  0
  9 10  1  0  0  0
 10 11  1  0  0  0
 11 12  1  0  0  0
 12 13  1  0  0  0
 13 14  2  0  0  0
 13 15  1  0  0  0
 15 17  1  0  0  0
 17 22  1  0  0  0
 22 23  1  0  0  0
 23 24  1  0  0  0
 23 25  2  0  0  0
 17 18  1  0  0  0
 18 19  1  0  0  0
 18 20  2  0  0  0
 41 37  1  0  0  0
 12  8  1  0  0  0
 44 45  1  0  0  0
 35 36  1  0  0  0
 54 55  1  0  0  0
 57 59  1  0  0  0
 57 60  1  0  0  0
 58 61  1  0  0  0
  3  4  1  0  0  0
 29 31  1  0  0  0
 15 16  1  0  0  0
 24 26  1  0  0  0
 19 21  1  0  0  0
M  END
> <minimizedAffinity>
-7.66941

> <CNNscore>
0.1275380254

> <CNNaffinity>
5.7967815399

> <CNN_VS>
0.7393100858

> <CNNaffinity_variance>
0.8544675708

$$$$
[H]C1=C([H])[C@@]2(C([H])([H])[H])C(=C([H])C1=O)C([H])([H])C([H])([H])[C@]1([H])[C@]2([H])C([H])([H])C([H])([H])[C@]2(C([H])([H])[H])C(=O)C([H])([H])C([H])([H])[C@]21[H]


 21 24  0  0  0  0  0  0  0  0999 V2000
    6.2153    3.0738   21.7780 C   0  0  0  0  0  0  0  0  0  0  0  0
    4.7350    2.7821   21.8103 C   0  0  0  0  0  0  0  0  0  0  0  0
    4.3984    1.6534   20.9060 C   0  0  0  0  0  0  0  0  0  0  0  0
    4.8180    2.0396   19.5023 C   0  0  0  0  0  0  0  0  0  0  0  0
    4.0994    3.2664   19.0563 C   0  0  0  0  0  0  0  0  0  0  0  0
    4.2770    4.4519   19.9989 C   0  0  0  0  0  0  0  0  0  0  0  0
    3.2633    5.5214   19.6192 C   0  0  0  0  0  0  0  0  0  0  0  0
    3.3034    5.8979   18.1815 C   0  0  0  0  0  0  0  0  0  0  0  0
    3.3524    4.6987   17.2933 C   0  0  0  0  0  0  0  0  0  0  0  0
    2.5261    4.5665   16.2753 C   0  0  0  0  0  0  0  0  0  0  0  0
    2.5980    3.3983   15.4366 C   0  0  0  0  0  0  0  0  0  0  0  0
    1.7898    3.2964   14.4622 O   0  0  0  0  0  0  0  0  0  0  0  0
    3.5720    2.3744   15.7093 C   0  0  0  0  0  0  0  0  0  0  0  0
    4.3865    2.5363   16.7386 C   0  0  0  0  0  0  0  0  0  0  0  0
    4.3924    3.6795   17.6456 C   0  0  0  0  0  0  0  0  0  0  0  0
    5.7440    4.3750   17.5218 C   0  0  0  0  0  0  0  0  0  0  0  0
    3.9100    3.9717   21.3531 C   0  0  0  0  0  0  0  0  0  0  0  0
    4.0703    4.9314   22.4637 C   0  0  0  0  0  0  0  0  0  0  0  0
    4.0412    4.0178   23.6967 C   0  0  0  0  0  0  0  0  0  0  0  0
    4.2309    2.6468   23.1891 C   0  0  0  0  0  0  0  0  0  0  0  0
    4.0205    1.6200   23.7722 O   0  0  0  0  0  0  0  0  0  0  0  0
  2  1  1  0  0  0
  2  3  1  0  0  0
  3  4  1  0  0  0
  4  5  1  0  0  0
  5  6  1  0  0  0
  6  7  1  0  0  0
  7  8  1  0  0  0
  8  9  1  0  0  0
  9 10  2  0  0  0
 10 11  1  0  0  0
 11 12  2  0  0  0
 11 13  1  0  0  0
 13 14  2  0  0  0
 14 15  1  0  0  0
 15 16  1  0  0  0
  6 17  1  0  0  0
 17 18  1  0  0  0
 18 19  1  0  0  0
 19 20  1  0  0  0
 20 21  2  0  0  0
 17  2  1  0  0  0
 20  2  1  0  0  0
 15  5  1  0  0  0
 15  9  1  0  0  0
M  END
> <minimizedAffinity>
-9.10280

> <CNNscore>
0.5171865225

> <CNNaffinity>
5.8359088898

> <CNN_VS>
3.0182533264

> <CNNaffinity_variance>
0.1367911100

$$$$
[H]C1=C([H])[C@@]2(C([H])([H])[H])C(=C([H])C1=O)C([H])([H])C([H])([H])[C@]1([H])[C@]2([H])C([H])([H])C([H])([H])[C@]2(C([H])([H])[H])C(=O)C([H])([H])C([H])([H])[C@]21[H]


 21 24  0  0  0  0  0  0  0  0999 V2000
    4.9286    1.1705   17.2847 C   0  0  0  0  0  0  0  0  0  0  0  0
    3.6415    1.6019   17.9442 C   0  0  0  0  0  0  0  0  0  0  0  0
    2.9135    2.5785   17.0950 C   0  0  0  0  0  0  0  0  0  0  0  0
    3.8146    3.7785   16.8872 C   0  0  0  0  0  0  0  0  0  0  0  0
    4.1581    4.4117   18.1916 C   0  0  0  0  0  0  0  0  0  0  0  0
    4.7942    3.4474   19.1870 C   0  0  0  0  0  0  0  0  0  0  0  0
    4.8043    4.1107   20.5565 C   0  0  0  0  0  0  0  0  0  0  0  0
    5.4266    5.4609   20.5609 C   0  0  0  0  0  0  0  0  0  0  0  0
    4.9364    6.3034   19.4299 C   0  0  0  0  0  0  0  0  0  0  0  0
    4.4950    7.5288   19.6303 C   0  0  0  0  0  0  0  0  0  0  0  0
    4.0287    8.3169   18.5190 C   0  0  0  0  0  0  0  0  0  0  0  0
    3.6088    9.4948   18.7403 O   0  0  0  0  0  0  0  0  0  0  0  0
    4.0442    7.7670   17.1890 C   0  0  0  0  0  0  0  0  0  0  0  0
    4.4926    6.5342   17.0210 C   0  0  0  0  0  0  0  0  0  0  0  0
    4.9840    5.6574   18.0790 C   0  0  0  0  0  0  0  0  0  0  0  0
    6.4502    5.3484   17.7949 C   0  0  0  0  0  0  0  0  0  0  0  0
    3.8857    2.2790   19.2807 C   0  0  0  0  0  0  0  0  0  0  0  0
    4.3264    1.1629   20.1411 C   0  0  0  0  0  0  0  0  0  0  0  0
    3.4283    0.0099   19.6724 C   0  0  0  0  0  0  0  0  0  0  0  0
    2.8404    0.4488   18.3937 C   0  0  0  0  0  0  0  0  0  0  0  0
    1.8991   -0.0289   17.8243 O   0  0  0  0  0  0  0  0  0  0  0  0
  2  1  1  0  0  0
  2  3  1  0  0  0
  3  4  1  0  0  0
  4  5  1  0  0  0
  5  6  1  0  0  0
  6  7  1  0  0  0
  7  8  1  0  0  0
  8  9  1  0  0  0
  9 10  2  0  0  0
 10 11  1  0  0  0
 11 12  2  0  0  0
 11 13  1  0  0  0
 13 14  2  0  0  0
 14 15  1  0  0  0
 15 16  1  0  0  0
  6 17  1  0  0  0
 17 18  1  0  0  0
 18 19  1  0  0  0
 19 20  1  0  0  0
 20 21  2  0  0  0
 17  2  1  0  0  0
 20  2  1  0  0  0
 15  5  1  0  0  0
 15  9  1  0  0  0
M  END
> <minimizedAffinity>
-7.21263

> <CNNscore>
0.4925401509

> <CNNaffinity>
5.8364496231

> <CNN_VS>
2.8746857643

> <CNNaffinity_variance>
0.1906248629

$$$$
[H]C1=C([H])[C@@]2(C([H])([H])[H])C(=C([H])C1=O)C([H])([H])C([H])([H])[C@]1([H])[C@]2([H])C([H])([H])C([H])([H])[C@]2(C([H])([H])[H])C(=O)C([H])([H])C([H])([H])[C@]21[H]


 21 24  0  0  0  0  0  0  0  0999 V2000
    6.6386    5.5190   21.8974 C   0  0  0  0  0  0  0  0  0  0  0  0
    5.3390    5.8957   21.2292 C   0  0  0  0  0  0  0  0  0  0  0  0
    4.1877    5.2513   21.9104 C   0  0  0  0  0  0  0  0  0  0  0  0
    4.3866    3.7508   21.8436 C   0  0  0  0  0  0  0  0  0  0  0  0
    4.4490    3.2902   20.4278 C   0  0  0  0  0  0  0  0  0  0  0  0
    5.5215    3.9960   19.6052 C   0  0  0  0  0  0  0  0  0  0  0  0
    5.2813    3.6827   18.1356 C   0  0  0  0  0  0  0  0  0  0  0  0
    5.1749    2.2285   17.8453 C   0  0  0  0  0  0  0  0  0  0  0  0
    4.2817    1.5308   18.8171 C   0  0  0  0  0  0  0  0  0  0  0  0
    3.3153    0.7336   18.4084 C   0  0  0  0  0  0  0  0  0  0  0  0
    2.4702    0.0746   19.3702 C   0  0  0  0  0  0  0  0  0  0  0  0
    1.5465   -0.6884   18.9488 O   0  0  0  0  0  0  0  0  0  0  0  0
    2.6803    0.2860   20.7782 C   0  0  0  0  0  0  0  0  0  0  0  0
    3.6581    1.0922   21.1564 C   0  0  0  0  0  0  0  0  0  0  0  0
    4.5651    1.8050   20.2625 C   0  0  0  0  0  0  0  0  0  0  0  0
    5.9817    1.3081   20.5309 C   0  0  0  0  0  0  0  0  0  0  0  0
    5.2950    5.4514   19.7782 C   0  0  0  0  0  0  0  0  0  0  0  0
    6.2629    6.3559   19.1261 C   0  0  0  0  0  0  0  0  0  0  0  0
    6.0090    7.6868   19.8472 C   0  0  0  0  0  0  0  0  0  0  0  0
    5.2173    7.3534   21.0453 C   0  0  0  0  0  0  0  0  0  0  0  0
    4.5949    8.1085   21.7388 O   0  0  0  0  0  0  0  0  0  0  0  0
  2  1  1  0  0  0
  2  3  1  0  0  0
  3  4  1  0  0  0
  4  5  1  0  0  0
  5  6  1  0  0  0
  6  7  1  0  0  0
  7  8  1  0  0  0
  8  9  1  0  0  0
  9 10  2  0  0  0
 10 11  1  0  0  0
 11 12  2  0  0  0
 11 13  1  0  0  0
 13 14  2  0  0  0
 14 15  1  0  0  0
 15 16  1  0  0  0
  6 17  1  0  0  0
 17 18  1  0  0  0
 18 19  1  0  0  0
 19 20  1  0  0  0
 20 21  2  0  0  0
 17  2  1  0  0  0
 20  2  1  0  0  0
 15  5  1  0  0  0
 15  9  1  0  0  0
M  END
> <minimizedAffinity>
-8.52225

> <CNNscore>
0.4896599948

> <CNNaffinity>
5.8707151413

> <CNN_VS>
2.8746542931

> <CNNaffinity_variance>
0.1876850426

$$$$
[H]C1=C([H])[C@@]2(C([H])([H])[H])C(=C([H])C1=O)C([H])([H])C([H])([H])[C@]1([H])[C@]2([H])C([H])([H])C([H])([H])[C@]2(C([H])([H])[H])C(=O)C([H])([H])C([H])([H])[C@]21[H]


 21 24  0  0  0  0  0  0  0  0999 V2000
   -0.0415    4.5069   12.5572 C   0  0  0  0  0  0  0  0  0  0  0  0
   -0.4188    5.9675   12.6015 C   0  0  0  0  0  0  0  0  0  0  0  0
   -1.7895    6.1761   12.0699 C   0  0  0  0  0  0  0  0  0  0  0  0
   -1.8152    5.6794   10.6388 C   0  0  0  0  0  0  0  0  0  0  0  0
   -0.8371    6.4307    9.8027 C   0  0  0  0  0  0  0  0  0  0  0  0
    0.5874    6.3863   10.3450 C   0  0  0  0  0  0  0  0  0  0  0  0
    1.4142    7.4276    9.6049 C   0  0  0  0  0  0  0  0  0  0  0  0
    1.3408    7.3059    8.1250 C   0  0  0  0  0  0  0  0  0  0  0  0
   -0.0635    7.1278    7.6501 C   0  0  0  0  0  0  0  0  0  0  0  0
   -0.5577    7.8708    6.6805 C   0  0  0  0  0  0  0  0  0  0  0  0
   -1.9160    7.6751    6.2443 C   0  0  0  0  0  0  0  0  0  0  0  0
   -2.3669    8.4049    5.3078 O   0  0  0  0  0  0  0  0  0  0  0  0
   -2.7346    6.6682    6.8668 C   0  0  0  0  0  0  0  0  0  0  0  0
   -2.2095    5.9393    7.8374 C   0  0  0  0  0  0  0  0  0  0  0  0
   -0.8487    6.0610    8.3502 C   0  0  0  0  0  0  0  0  0  0  0  0
   -0.1248    4.7443    8.0888 C   0  0  0  0  0  0  0  0  0  0  0  0
    0.5127    6.8219   11.7606 C   0  0  0  0  0  0  0  0  0  0  0  0
    1.7721    6.7943   12.5309 C   0  0  0  0  0  0  0  0  0  0  0  0
    1.2739    6.8610   13.9812 C   0  0  0  0  0  0  0  0  0  0  0  0
   -0.1684    6.5603   13.9279 C   0  0  0  0  0  0  0  0  0  0  0  0
   -0.9838    6.7551   14.7856 O   0  0  0  0  0  0  0  0  0  0  0  0
  2  1  1  0  0  0
  2  3  1  0  0  0
  3  4  1  0  0  0
  4  5  1  0  0  0
  5  6  1  0  0  0
  6  7  1  0  0  0
  7  8  1  0  0  0
  8  9  1  0  0  0
  9 10  2  0  0  0
 10 11  1  0  0  0
 11 12  2  0  0  0
 11 13  1  0  0  0
 13 14  2  0  0  0
 14 15  1  0  0  0
 15 16  1  0  0  0
  6 17  1  0  0  0
 17 18  1  0  0  0
 18 19  1  0  0  0
 19 20  1  0  0  0
 20 21  2  0  0  0
 17  2  1  0  0  0
 20  2  1  0  0  0
 15  5  1  0  0  0
 15  9  1  0  0  0
M  END
> <minimizedAffinity>
-5.02746

> <CNNscore>
0.4642972350

> <CNNaffinity>
4.8581380844

> <CNN_VS>
2.2556200027

> <CNNaffinity_variance>
0.1012336761

$$$$
[H]C1=C([H])[C@@]2(C([H])([H])[H])C(=C([H])C1=O)C([H])([H])C([H])([H])[C@]1([H])[C@]2([H])C([H])([H])C([H])([H])[C@]2(C([H])([H])[H])C(=O)C([H])([H])C([H])([H])[C@]21[H]


 21 24  0  0  0  0  0  0  0  0999 V2000
    5.8905    4.0553   17.2812 C   0  0  0  0  0  0  0  0  0  0  0  0
    4.5343    4.3668   17.8653 C   0  0  0  0  0  0  0  0  0  0  0  0
    4.6676    5.0670   19.1680 C   0  0  0  0  0  0  0  0  0  0  0  0
    5.4387    4.1620   20.1070 C   0  0  0  0  0  0  0  0  0  0  0  0
    4.7185    2.8728   20.3060 C   0  0  0  0  0  0  0  0  0  0  0  0
    4.4156    2.1380   19.0046 C   0  0  0  0  0  0  0  0  0  0  0  0
    3.4213    1.0254   19.3032 C   0  0  0  0  0  0  0  0  0  0  0  0
    3.8481    0.1239   20.4057 C   0  0  0  0  0  0  0  0  0  0  0  0
    4.3490    0.8876   21.5869 C   0  0  0  0  0  0  0  0  0  0  0  0
    3.9085    0.6344   22.8027 C   0  0  0  0  0  0  0  0  0  0  0  0
    4.4109    1.3882   23.9221 C   0  0  0  0  0  0  0  0  0  0  0  0
    3.9693    1.1234   25.0831 O   0  0  0  0  0  0  0  0  0  0  0  0
    5.3942    2.4183   23.7139 C   0  0  0  0  0  0  0  0  0  0  0  0
    5.8157    2.6486   22.4816 C   0  0  0  0  0  0  0  0  0  0  0  0
    5.3690    1.9427   21.2851 C   0  0  0  0  0  0  0  0  0  0  0  0
    6.5721    1.2260   20.6813 C   0  0  0  0  0  0  0  0  0  0  0  0
    3.7233    3.1098   18.1239 C   0  0  0  0  0  0  0  0  0  0  0  0
    3.3859    2.6483   16.7625 C   0  0  0  0  0  0  0  0  0  0  0  0
    3.1132    3.9665   16.0249 C   0  0  0  0  0  0  0  0  0  0  0  0
    3.6540    5.0324   16.8879 C   0  0  0  0  0  0  0  0  0  0  0  0
    3.4295    6.2085   16.8178 O   0  0  0  0  0  0  0  0  0  0  0  0
  2  1  1  0  0  0
  2  3  1  0  0  0
  3  4  1  0  0  0
  4  5  1  0  0  0
  5  6  1  0  0  0
  6  7  1  0  0  0
  7  8  1  0  0  0
  8  9  1  0  0  0
  9 10  2  0  0  0
 10 11  1  0  0  0
 11 12  2  0  0  0
 11 13  1  0  0  0
 13 14  2  0  0  0
 14 15  1  0  0  0
 15 16  1  0  0  0
  6 17  1  0  0  0
 17 18  1  0  0  0
 18 19  1  0  0  0
 19 20  1  0  0  0
 20 21  2  0  0  0
 17  2  1  0  0  0
 20  2  1  0  0  0
 15  5  1  0  0  0
 15  9  1  0  0  0
M  END
> <minimizedAffinity>
-7.20570

> <CNNscore>
0.4604036808

> <CNNaffinity>
6.1791229248

> <CNN_VS>
2.8448908329

> <CNNaffinity_variance>
0.1427781135

$$$$
[H]C1=C([H])[C@@]2(C([H])([H])[H])C(=C([H])C1=O)C([H])([H])C([H])([H])[C@]1([H])[C@]2([H])C([H])([H])C([H])([H])[C@]2(C([H])([H])[H])C(=O)C([H])([H])C([H])([H])[C@]21[H]


 21 24  0  0  0  0  0  0  0  0999 V2000
    4.3974    4.4527   15.5360 C   0  0  0  0  0  0  0  0  0  0  0  0
    3.1248    3.8541   16.0834 C   0  0  0  0  0  0  0  0  0  0  0  0
    2.4276    4.8167   16.9734 C   0  0  0  0  0  0  0  0  0  0  0  0
    3.3660    5.1638   18.1111 C   0  0  0  0  0  0  0  0  0  0  0  0
    3.7297    3.9435   18.8850 C   0  0  0  0  0  0  0  0  0  0  0  0
    4.3355    2.8376   18.0277 C   0  0  0  0  0  0  0  0  0  0  0  0
    4.3671    1.5574   18.8498 C   0  0  0  0  0  0  0  0  0  0  0  0
    5.0316    1.7128   20.1706 C   0  0  0  0  0  0  0  0  0  0  0  0
    4.5677    2.9383   20.8864 C   0  0  0  0  0  0  0  0  0  0  0  0
    4.1652    2.8878   22.1401 C   0  0  0  0  0  0  0  0  0  0  0  0
    3.7235    4.0871   22.8034 C   0  0  0  0  0  0  0  0  0  0  0  0
    3.3410    4.0100   24.0121 O   0  0  0  0  0  0  0  0  0  0  0  0
    3.7212    5.3415   22.0979 C   0  0  0  0  0  0  0  0  0  0  0  0
    4.1305    5.3590   20.8403 C   0  0  0  0  0  0  0  0  0  0  0  0
    4.5944    4.2018   20.0818 C   0  0  0  0  0  0  0  0  0  0  0  0
    6.0500    4.4418   19.6952 C   0  0  0  0  0  0  0  0  0  0  0  0
    3.3907    2.6075   16.9080 C   0  0  0  0  0  0  0  0  0  0  0  0
    3.7964    1.6181   15.8899 C   0  0  0  0  0  0  0  0  0  0  0  0
    2.8622    1.9482   14.7176 C   0  0  0  0  0  0  0  0  0  0  0  0
    2.2880    3.2723   15.0183 C   0  0  0  0  0  0  0  0  0  0  0  0
    1.3318    3.7835   14.5054 O   0  0  0  0  0  0  0  0  0  0  0  0
  2  1  1  0  0  0
  2  3  1  0  0  0
  3  4  1  0  0  0
  4  5  1  0  0  0
  5  6  1  0  0  0
  6  7  1  0  0  0
  7  8  1  0  0  0
  8  9  1  0  0  0
  9 10  2  0  0  0
 10 11  1  0  0  0
 11 12  2  0  0  0
 11 13  1  0  0  0
 13 14  2  0  0  0
 14 15  1  0  0  0
 15 16  1  0  0  0
  6 17  1  0  0  0
 17 18  1  0  0  0
 18 19  1  0  0  0
 19 20  1  0  0  0
 20 21  2  0  0  0
 17  2  1  0  0  0
 20  2  1  0  0  0
 15  5  1  0  0  0
 15  9  1  0  0  0
M  END
> <minimizedAffinity>
-7.93373

> <CNNscore>
0.4335182607

> <CNNaffinity>
5.7326593399

> <CNN_VS>
2.4852125645

> <CNNaffinity_variance>
0.2656864226

$$$$
[H]C1=C([H])[C@@]2(C([H])([H])[H])C(=C([H])C1=O)C([H])([H])C([H])([H])[C@]1([H])[C@]2([H])C([H])([H])C([H])([H])[C@]2(C([H])([H])[H])C(=O)C([H])([H])C([H])([H])[C@]21[H]


 21 24  0  0  0  0  0  0  0  0999 V2000
    6.5747    6.3545   19.2837 C   0  0  0  0  0  0  0  0  0  0  0  0
    5.3167    7.1739   19.1305 C   0  0  0  0  0  0  0  0  0  0  0  0
    4.1095    6.3288   19.3125 C   0  0  0  0  0  0  0  0  0  0  0  0
    4.1438    5.2348   18.2650 C   0  0  0  0  0  0  0  0  0  0  0  0
    4.1412    5.8181   16.8938 C   0  0  0  0  0  0  0  0  0  0  0  0
    5.2753    6.8082   16.6518 C   0  0  0  0  0  0  0  0  0  0  0  0
    4.9872    7.5599   15.3604 C   0  0  0  0  0  0  0  0  0  0  0  0
    4.7208    6.6706   14.1992 C   0  0  0  0  0  0  0  0  0  0  0  0
    3.7673    5.5748   14.5445 C   0  0  0  0  0  0  0  0  0  0  0  0
    2.7160    5.3196   13.7922 C   0  0  0  0  0  0  0  0  0  0  0  0
    1.8145    4.2558   14.1515 C   0  0  0  0  0  0  0  0  0  0  0  0
    0.8091    4.0314   13.4086 O   0  0  0  0  0  0  0  0  0  0  0  0
    2.0608    3.4707   15.3323 C   0  0  0  0  0  0  0  0  0  0  0  0
    3.1242    3.7519   16.0667 C   0  0  0  0  0  0  0  0  0  0  0  0
    4.0938    4.8066   15.7887 C   0  0  0  0  0  0  0  0  0  0  0  0
    5.4509    4.1519   15.5533 C   0  0  0  0  0  0  0  0  0  0  0  0
    5.2098    7.8006   17.7519 C   0  0  0  0  0  0  0  0  0  0  0  0
    6.2632    8.8349   17.7763 C   0  0  0  0  0  0  0  0  0  0  0  0
    6.1626    9.3751   19.2095 C   0  0  0  0  0  0  0  0  0  0  0  0
    5.3520    8.3953   19.9553 C   0  0  0  0  0  0  0  0  0  0  0  0
    4.8224    8.5502   21.0202 O   0  0  0  0  0  0  0  0  0  0  0  0
  2  1  1  0  0  0
  2  3  1  0  0  0
  3  4  1  0  0  0
  4  5  1  0  0  0
  5  6  1  0  0  0
  6  7  1  0  0  0
  7  8  1  0  0  0
  8  9  1  0  0  0
  9 10  2  0  0  0
 10 11  1  0  0  0
 11 12  2  0  0  0
 11 13  1  0  0  0
 13 14  2  0  0  0
 14 15  1  0  0  0
 15 16  1  0  0  0
  6 17  1  0  0  0
 17 18  1  0  0  0
 18 19  1  0  0  0
 19 20  1  0  0  0
 20 21  2  0  0  0
 17  2  1  0  0  0
 20  2  1  0  0  0
 15  5  1  0  0  0
 15  9  1  0  0  0
M  END
> <minimizedAffinity>
-1.69719

> <CNNscore>
0.4316805601

> <CNNaffinity>
5.2095098495

> <CNN_VS>
2.2488441467

> <CNNaffinity_variance>
0.6083475351

$$$$
[H]C1=C([H])[C@@]2(C([H])([H])[H])C(=C([H])C1=O)C([H])([H])C([H])([H])[C@]1([H])[C@]2([H])C([H])([H])C([H])([H])[C@]2(C([H])([H])[H])C(=O)C([H])([H])C([H])([H])[C@]21[H]


 21 24  0  0  0  0  0  0  0  0999 V2000
    6.6124    5.5665   22.5670 C   0  0  0  0  0  0  0  0  0  0  0  0
    6.3570    6.8650   21.8415 C   0  0  0  0  0  0  0  0  0  0  0  0
    4.9012    7.0874   21.6518 C   0  0  0  0  0  0  0  0  0  0  0  0
    4.3538    5.9284   20.8441 C   0  0  0  0  0  0  0  0  0  0  0  0
    5.0229    5.8499   19.5150 C   0  0  0  0  0  0  0  0  0  0  0  0
    6.5421    5.7529   19.6036 C   0  0  0  0  0  0  0  0  0  0  0  0
    7.1192    5.9976   18.2169 C   0  0  0  0  0  0  0  0  0  0  0  0
    6.5315    5.1277   17.1642 C   0  0  0  0  0  0  0  0  0  0  0  0
    5.0420    5.0756   17.2527 C   0  0  0  0  0  0  0  0  0  0  0  0
    4.2856    5.2813   16.1934 C   0  0  0  0  0  0  0  0  0  0  0  0
    2.8516    5.2243   16.3106 C   0  0  0  0  0  0  0  0  0  0  0  0
    2.1465    5.4264   15.2737 O   0  0  0  0  0  0  0  0  0  0  0  0
    2.2434    4.9428   17.5842 C   0  0  0  0  0  0  0  0  0  0  0  0
    3.0298    4.7414   18.6284 C   0  0  0  0  0  0  0  0  0  0  0  0
    4.4885    4.7787   18.6129 C   0  0  0  0  0  0  0  0  0  0  0  0
    5.0016    3.3957   19.0000 C   0  0  0  0  0  0  0  0  0  0  0  0
    6.9866    6.8789   20.4602 C   0  0  0  0  0  0  0  0  0  0  0  0
    8.4311    6.9576   20.7562 C   0  0  0  0  0  0  0  0  0  0  0  0
    8.4701    7.9077   21.9611 C   0  0  0  0  0  0  0  0  0  0  0  0
    7.0840    7.9907   22.4561 C   0  0  0  0  0  0  0  0  0  0  0  0
    6.6281    8.8063   23.2081 O   0  0  0  0  0  0  0  0  0  0  0  0
  2  1  1  0  0  0
  2  3  1  0  0  0
  3  4  1  0  0  0
  4  5  1  0  0  0
  5  6  1  0  0  0
  6  7  1  0  0  0
  7  8  1  0  0  0
  8  9  1  0  0  0
  9 10  2  0  0  0
 10 11  1  0  0  0
 11 12  2  0  0  0
 11 13  1  0  0  0
 13 14  2  0  0  0
 14 15  1  0  0  0
 15 16  1  0  0  0
  6 17  1  0  0  0
 17 18  1  0  0  0
 18 19  1  0  0  0
 19 20  1  0  0  0
 20 21  2  0  0  0
 17  2  1  0  0  0
 20  2  1  0  0  0
 15  5  1  0  0  0
 15  9  1  0  0  0
M  END
> <minimizedAffinity>
-5.95355

> <CNNscore>
0.3947918415

> <CNNaffinity>
5.4663248062

> <CNN_VS>
2.1580605507

> <CNNaffinity_variance>
0.4549740255

$$$$
[H]C1=C([H])[C@@]2(C([H])([H])[H])C(=C([H])C1=O)C([H])([H])C([H])([H])[C@]1([H])[C@]2([H])C([H])([H])C([H])([H])[C@]2(C([H])([H])[H])C(=O)C([H])([H])C([H])([H])[C@]21[H]


 21 24  0  0  0  0  0  0  0  0999 V2000
    5.0987    1.3085   17.2243 C   0  0  0  0  0  0  0  0  0  0  0  0
    3.7289    1.5818   17.7957 C   0  0  0  0  0  0  0  0  0  0  0  0
    2.6747    0.9315   16.9767 C   0  0  0  0  0  0  0  0  0  0  0  0
    2.7678    1.4872   15.5703 C   0  0  0  0  0  0  0  0  0  0  0  0
    2.5580    2.9624   15.5718 C   0  0  0  0  0  0  0  0  0  0  0  0
    3.5141    3.7119   16.4934 C   0  0  0  0  0  0  0  0  0  0  0  0
    3.0064    5.1375   16.6530 C   0  0  0  0  0  0  0  0  0  0  0  0
    2.7637    5.8324   15.3613 C   0  0  0  0  0  0  0  0  0  0  0  0
    2.0100    4.9737   14.4002 C   0  0  0  0  0  0  0  0  0  0  0  0
    0.9412    5.4226   13.7737 C   0  0  0  0  0  0  0  0  0  0  0  0
    0.2355    4.5702   12.8523 C   0  0  0  0  0  0  0  0  0  0  0  0
   -0.7915    5.0282   12.2620 O   0  0  0  0  0  0  0  0  0  0  0  0
    0.6967    3.2276   12.6151 C   0  0  0  0  0  0  0  0  0  0  0  0
    1.7721    2.8066   13.2598 C   0  0  0  0  0  0  0  0  0  0  0  0
    2.5536    3.5904   14.2108 C   0  0  0  0  0  0  0  0  0  0  0  0
    3.9625    3.7488   13.6489 C   0  0  0  0  0  0  0  0  0  0  0  0
    3.4094    3.0656   17.8241 C   0  0  0  0  0  0  0  0  0  0  0  0
    4.3040    3.5761   18.8821 C   0  0  0  0  0  0  0  0  0  0  0  0
    4.2590    2.4504   19.9244 C   0  0  0  0  0  0  0  0  0  0  0  0
    3.6662    1.2876   19.2390 C   0  0  0  0  0  0  0  0  0  0  0  0
    3.2192    0.2959   19.7442 O   0  0  0  0  0  0  0  0  0  0  0  0
  2  1  1  0  0  0
  2  3  1  0  0  0
  3  4  1  0  0  0
  4  5  1  0  0  0
  5  6  1  0  0  0
  6  7  1  0  0  0
  7  8  1  0  0  0
  8  9  1  0  0  0
  9 10  2  0  0  0
 10 11  1  0  0  0
 11 12  2  0  0  0
 11 13  1  0  0  0
 13 14  2  0  0  0
 14 15  1  0  0  0
 15 16  1  0  0  0
  6 17  1  0  0  0
 17 18  1  0  0  0
 18 19  1  0  0  0
 19 20  1  0  0  0
 20 21  2  0  0  0
 17  2  1  0  0  0
 20  2  1  0  0  0
 15  5  1  0  0  0
 15  9  1  0  0  0
M  END
> <minimizedAffinity>
-6.79479

> <CNNscore>
0.3802582324

> <CNNaffinity>
5.4025664330

> <CNN_VS>
2.0543704033

> <CNNaffinity_variance>
0.1664116085

$$$$
[H]OC([H])([H])[C@@]1([H])N(S(=O)(=O)c2c([H])c([H])c(OC([H])([H])[H])c([H])c2[H])C([H])([H])[C@]([H])(O[H])[C@@]([H])(O[H])[C@@]1([H])O[H]


 26 27  0  0  0  0  0  0  0  0999 V2000
    5.6554    4.0315   22.1399 N   0  0  0  0  0  0  0  0  0  0  0  0
    6.9263    4.6517   22.1687 C   0  0  0  0  0  0  0  0  0  0  0  0
    6.9863    6.0454   21.6522 C   0  0  0  0  0  0  0  0  0  0  0  0
    8.1408    6.6523   22.1870 O   0  0  0  0  0  0  0  0  0  0  0  0
    5.8178    6.8984   22.0847 C   0  0  0  0  0  0  0  0  0  0  0  0
    5.7767    8.0524   21.3158 O   0  0  0  0  0  0  0  0  0  0  0  0
    4.5084    6.1997   21.9868 C   0  0  0  0  0  0  0  0  0  0  0  0
    4.0005    6.1207   20.7075 O   0  0  0  0  0  0  0  0  0  0  0  0
    4.6218    4.8219   22.6473 C   0  0  0  0  0  0  0  0  0  0  0  0
    8.1025    7.6348   22.0878 H   0  0  0  0  0  0  0  0  0  0  0  0
    6.3030    7.9366   20.4955 H   0  0  0  0  0  0  0  0  0  0  0  0
    4.4455    5.4361   20.1449 H   0  0  0  0  0  0  0  0  0  0  0  0
    5.6068    2.3765   22.1578 S   0  0  0  0  0  0  0  0  0  0  0  0
    6.9301    1.6749   22.1641 O   0  0  0  0  0  0  0  0  0  0  0  0
    4.9277    1.9433   23.4580 O   0  0  0  0  0  0  0  0  0  0  0  0
    3.0850    0.4467   18.8726 C   0  0  0  0  0  0  0  0  0  0  0  0
    3.9461    1.4673   18.5694 C   0  0  0  0  0  0  0  0  0  0  0  0
    4.7264    2.0707   19.5594 C   0  0  0  0  0  0  0  0  0  0  0  0
    4.6567    1.6601   20.8743 C   0  0  0  0  0  0  0  0  0  0  0  0
    3.7682    0.6199   21.1367 C   0  0  0  0  0  0  0  0  0  0  0  0
    3.0095    0.0325   20.1772 C   0  0  0  0  0  0  0  0  0  0  0  0
    2.4238    0.1196   16.5311 C   0  0  0  0  0  0  0  0  0  0  0  0
    2.2925   -0.1730   17.8946 O   0  0  0  0  0  0  0  0  0  0  0  0
    3.2822    4.1703   22.7843 C   0  0  0  0  0  0  0  0  0  0  0  0
    3.0308    4.0600   24.1721 O   0  0  0  0  0  0  0  0  0  0  0  0
    2.0394    4.1191   24.3279 H   0  0  0  0  0  0  0  0  0  0  0  0
 22 23  1  0  0  0
 23 16  1  0  0  0
 16 17  2  0  0  0
 17 18  1  0  0  0
 18 19  2  0  0  0
 19 20  1  0  0  0
 20 21  2  0  0  0
 19 13  1  0  0  0
 13 14  2  0  0  0
 13 15  2  0  0  0
 13  1  1  0  0  0
  1  2  1  0  0  0
  2  3  1  0  0  0
  3  4  1  0  0  0
  3  5  1  0  0  0
  5  6  1  0  0  0
  5  7  1  0  0  0
  7  8  1  0  0  0
  7  9  1  0  0  0
  9 24  1  0  0  0
 24 25  1  0  0  0
 21 16  1  0  0  0
  9  1  1  0  0  0
  4 10  1  0  0  0
  6 11  1  0  0  0
  8 12  1  0  0  0
 25 26  1  0  0  0
M  END
> <minimizedAffinity>
-7.16957

> <CNNscore>
0.8278434277

> <CNNaffinity>
4.9961457253

> <CNN_VS>
4.1360263824

> <CNNaffinity_variance>
0.2915823460

$$$$
[H]OC([H])([H])[C@@]1([H])N(S(=O)(=O)c2c([H])c([H])c(OC([H])([H])[H])c([H])c2[H])C([H])([H])[C@]([H])(O[H])[C@@]([H])(O[H])[C@@]1([H])O[H]


 26 27  0  0  0  0  0  0  0  0999 V2000
    3.6304    3.2434   17.8983 N   0  0  0  0  0  0  0  0  0  0  0  0
    3.5077    4.3639   18.7527 C   0  0  0  0  0  0  0  0  0  0  0  0
    3.6597    5.6968   18.1099 C   0  0  0  0  0  0  0  0  0  0  0  0
    3.0457    6.6501   18.9475 O   0  0  0  0  0  0  0  0  0  0  0  0
    2.9712    5.8010   16.7701 C   0  0  0  0  0  0  0  0  0  0  0  0
    3.4226    6.9309   16.1036 O   0  0  0  0  0  0  0  0  0  0  0  0
    3.1785    4.6088   15.9053 C   0  0  0  0  0  0  0  0  0  0  0  0
    4.4108    4.5611   15.2887 O   0  0  0  0  0  0  0  0  0  0  0  0
    2.8916    3.3414   16.7171 C   0  0  0  0  0  0  0  0  0  0  0  0
    2.8928    7.4989   18.4651 H   0  0  0  0  0  0  0  0  0  0  0  0
    4.2699    7.2409   16.4898 H   0  0  0  0  0  0  0  0  0  0  0  0
    5.1480    4.2913   15.8944 H   0  0  0  0  0  0  0  0  0  0  0  0
    4.0266    1.7908   18.5872 S   0  0  0  0  0  0  0  0  0  0  0  0
    3.0626    0.6666   18.3636 O   0  0  0  0  0  0  0  0  0  0  0  0
    5.3357    1.3157   17.9548 O   0  0  0  0  0  0  0  0  0  0  0  0
    4.7547    1.9266   23.0958 C   0  0  0  0  0  0  0  0  0  0  0  0
    5.6923    2.4259   22.2318 C   0  0  0  0  0  0  0  0  0  0  0  0
    5.4888    2.3942   20.8496 C   0  0  0  0  0  0  0  0  0  0  0  0
    4.3383    1.8598   20.3081 C   0  0  0  0  0  0  0  0  0  0  0  0
    3.4129    1.3639   21.2234 C   0  0  0  0  0  0  0  0  0  0  0  0
    3.6082    1.3935   22.5659 C   0  0  0  0  0  0  0  0  0  0  0  0
    6.1501    1.5800   25.0858 C   0  0  0  0  0  0  0  0  0  0  0  0
    4.9387    1.9482   24.4866 O   0  0  0  0  0  0  0  0  0  0  0  0
    2.8586    2.1284   15.8420 C   0  0  0  0  0  0  0  0  0  0  0  0
    2.3888    2.5588   14.5790 O   0  0  0  0  0  0  0  0  0  0  0  0
    2.7995    1.9811   13.8660 H   0  0  0  0  0  0  0  0  0  0  0  0
 22 23  1  0  0  0
 23 16  1  0  0  0
 16 17  2  0  0  0
 17 18  1  0  0  0
 18 19  2  0  0  0
 19 20  1  0  0  0
 20 21  2  0  0  0
 19 13  1  0  0  0
 13 14  2  0  0  0
 13 15  2  0  0  0
 13  1  1  0  0  0
  1  2  1  0  0  0
  2  3  1  0  0  0
  3  4  1  0  0  0
  3  5  1  0  0  0
  5  6  1  0  0  0
  5  7  1  0  0  0
  7  8  1  0  0  0
  7  9  1  0  0  0
  9 24  1  0  0  0
 24 25  1  0  0  0
 21 16  1  0  0  0
  9  1  1  0  0  0
  4 10  1  0  0  0
  6 11  1  0  0  0
  8 12  1  0  0  0
 25 26  1  0  0  0
M  END
> <minimizedAffinity>
-6.36375

> <CNNscore>
0.6437870264

> <CNNaffinity>
4.7604165077

> <CNN_VS>
3.0646944046

> <CNNaffinity_variance>
0.1261423528

$$$$
[H]OC([H])([H])[C@@]1([H])N(S(=O)(=O)c2c([H])c([H])c(OC([H])([H])[H])c([H])c2[H])C([H])([H])[C@]([H])(O[H])[C@@]([H])(O[H])[C@@]1([H])O[H]


 26 27  0  0  0  0  0  0  0  0999 V2000
    4.6904    5.7721   19.6462 N   0  0  0  0  0  0  0  0  0  0  0  0
    4.0672    6.4319   18.5613 C   0  0  0  0  0  0  0  0  0  0  0  0
    3.6978    7.8553   18.7859 C   0  0  0  0  0  0  0  0  0  0  0  0
    3.5604    8.4676   17.5237 O   0  0  0  0  0  0  0  0  0  0  0  0
    4.7526    8.6410   19.5276 C   0  0  0  0  0  0  0  0  0  0  0  0
    4.2105    9.8370   19.9753 O   0  0  0  0  0  0  0  0  0  0  0  0
    5.3335    7.9057   20.6827 C   0  0  0  0  0  0  0  0  0  0  0  0
    4.5330    7.8863   21.8050 O   0  0  0  0  0  0  0  0  0  0  0  0
    5.7304    6.4954   20.2342 C   0  0  0  0  0  0  0  0  0  0  0  0
    3.5655    9.4524   17.6055 H   0  0  0  0  0  0  0  0  0  0  0  0
    3.2302    9.7882   19.9803 H   0  0  0  0  0  0  0  0  0  0  0  0
    3.7736    7.2521   21.7405 H   0  0  0  0  0  0  0  0  0  0  0  0
    4.6182    4.1183   19.6844 S   0  0  0  0  0  0  0  0  0  0  0  0
    3.4341    3.4912   19.0152 O   0  0  0  0  0  0  0  0  0  0  0  0
    5.8296    3.5803   18.9211 O   0  0  0  0  0  0  0  0  0  0  0  0
    4.9760    2.2356   23.8320 C   0  0  0  0  0  0  0  0  0  0  0  0
    4.0681    3.2353   23.6059 C   0  0  0  0  0  0  0  0  0  0  0  0
    3.9427    3.8241   22.3447 C   0  0  0  0  0  0  0  0  0  0  0  0
    4.7279    3.4195   21.2853 C   0  0  0  0  0  0  0  0  0  0  0  0
    5.6369    2.4007   21.5607 C   0  0  0  0  0  0  0  0  0  0  0  0
    5.7605    1.8275   22.7844 C   0  0  0  0  0  0  0  0  0  0  0  0
    6.3662    1.2453   25.5966 C   0  0  0  0  0  0  0  0  0  0  0  0
    5.1185    1.6309   25.0901 O   0  0  0  0  0  0  0  0  0  0  0  0
    6.5276    5.7920   21.2867 C   0  0  0  0  0  0  0  0  0  0  0  0
    7.1603    6.8007   22.0505 O   0  0  0  0  0  0  0  0  0  0  0  0
    7.2689    6.4727   22.9946 H   0  0  0  0  0  0  0  0  0  0  0  0
 22 23  1  0  0  0
 23 16  1  0  0  0
 16 17  2  0  0  0
 17 18  1  0  0  0
 18 19  2  0  0  0
 19 20  1  0  0  0
 20 21  2  0  0  0
 19 13  1  0  0  0
 13 14  2  0  0  0
 13 15  2  0  0  0
 13  1  1  0  0  0
  1  2  1  0  0  0
  2  3  1  0  0  0
  3  4  1  0  0  0
  3  5  1  0  0  0
  5  6  1  0  0  0
  5  7  1  0  0  0
  7  8  1  0  0  0
  7  9  1  0  0  0
  9 24  1  0  0  0
 24 25  1  0  0  0
 21 16  1  0  0  0
  9  1  1  0  0  0
  4 10  1  0  0  0
  6 11  1  0  0  0
  8 12  1  0  0  0
 25 26  1  0  0  0
M  END
> <minimizedAffinity>
-6.75636

> <CNNscore>
0.5407965779

> <CNNaffinity>
4.6239061356

> <CNN_VS>
2.5005927086

> <CNNaffinity_variance>
0.0760823339

$$$$
[H]OC([H])([H])[C@@]1([H])N(S(=O)(=O)c2c([H])c([H])c(OC([H])([H])[H])c([H])c2[H])C([H])([H])[C@]([H])(O[H])[C@@]([H])(O[H])[C@@]1([H])O[H]


 26 27  0  0  0  0  0  0  0  0999 V2000
    5.6964    6.8839   19.6817 N   0  0  0  0  0  0  0  0  0  0  0  0
    6.3282    6.3858   20.8450 C   0  0  0  0  0  0  0  0  0  0  0  0
    6.5444    7.3658   21.9430 C   0  0  0  0  0  0  0  0  0  0  0  0
    6.7107    6.6400   23.1400 O   0  0  0  0  0  0  0  0  0  0  0  0
    5.3710    8.2897   22.1649 C   0  0  0  0  0  0  0  0  0  0  0  0
    5.7649    9.3568   22.9592 O   0  0  0  0  0  0  0  0  0  0  0  0
    4.7834    8.8119   20.9022 C   0  0  0  0  0  0  0  0  0  0  0  0
    5.5022    9.8350   20.3211 O   0  0  0  0  0  0  0  0  0  0  0  0
    4.5541    7.6471   19.9336 C   0  0  0  0  0  0  0  0  0  0  0  0
    6.6065    7.2276   23.9276 H   0  0  0  0  0  0  0  0  0  0  0  0
    6.7426    9.4425   22.9577 H   0  0  0  0  0  0  0  0  0  0  0  0
    6.3209    9.5292   19.8528 H   0  0  0  0  0  0  0  0  0  0  0  0
    5.9221    6.0521   18.2679 S   0  0  0  0  0  0  0  0  0  0  0  0
    5.4963    6.7503   17.0132 O   0  0  0  0  0  0  0  0  0  0  0  0
    7.4243    5.8210   18.0969 O   0  0  0  0  0  0  0  0  0  0  0  0
    4.0215    1.9012   18.0849 C   0  0  0  0  0  0  0  0  0  0  0  0
    4.4600    2.4053   19.2800 C   0  0  0  0  0  0  0  0  0  0  0  0
    5.0438    3.6727   19.3575 C   0  0  0  0  0  0  0  0  0  0  0  0
    5.1984    4.4588   18.2348 C   0  0  0  0  0  0  0  0  0  0  0  0
    4.7385    3.9063   17.0417 C   0  0  0  0  0  0  0  0  0  0  0  0
    4.1714    2.6760   16.9639 C   0  0  0  0  0  0  0  0  0  0  0  0
    2.7521    0.2127   16.8340 C   0  0  0  0  0  0  0  0  0  0  0  0
    3.4327    0.6316   17.9844 O   0  0  0  0  0  0  0  0  0  0  0  0
    3.7559    8.0760   18.7432 C   0  0  0  0  0  0  0  0  0  0  0  0
    2.9046    9.1156   19.1856 O   0  0  0  0  0  0  0  0  0  0  0  0
    2.7414    9.7485   18.4218 H   0  0  0  0  0  0  0  0  0  0  0  0
 22 23  1  0  0  0
 23 16  1  0  0  0
 16 17  2  0  0  0
 17 18  1  0  0  0
 18 19  2  0  0  0
 19 20  1  0  0  0
 20 21  2  0  0  0
 19 13  1  0  0  0
 13 14  2  0  0  0
 13 15  2  0  0  0
 13  1  1  0  0  0
  1  2  1  0  0  0
  2  3  1  0  0  0
  3  4  1  0  0  0
  3  5  1  0  0  0
  5  6  1  0  0  0
  5  7  1  0  0  0
  7  8  1  0  0  0
  7  9  1  0  0  0
  9 24  1  0  0  0
 24 25  1  0  0  0
 21 16  1  0  0  0
  9  1  1  0  0  0
  4 10  1  0  0  0
  6 11  1  0  0  0
  8 12  1  0  0  0
 25 26  1  0  0  0
M  END
> <minimizedAffinity>
-7.21422

> <CNNscore>
0.4203575253

> <CNNaffinity>
4.3966522217

> <CNN_VS>
1.8481658697

> <CNNaffinity_variance>
0.1205573231

$$$$
[H]OC([H])([H])[C@@]1([H])N(S(=O)(=O)c2c([H])c([H])c(OC([H])([H])[H])c([H])c2[H])C([H])([H])[C@]([H])(O[H])[C@@]([H])(O[H])[C@@]1([H])O[H]


 26 27  0  0  0  0  0  0  0  0999 V2000
    4.7696    3.8150   20.8066 N   0  0  0  0  0  0  0  0  0  0  0  0
    4.1097    4.7106   19.9329 C   0  0  0  0  0  0  0  0  0  0  0  0
    3.7900    6.0523   20.4901 C   0  0  0  0  0  0  0  0  0  0  0  0
    3.6048    6.9344   19.4063 O   0  0  0  0  0  0  0  0  0  0  0  0
    4.9014    6.6361   21.3291 C   0  0  0  0  0  0  0  0  0  0  0  0
    4.4144    7.7085   22.0622 O   0  0  0  0  0  0  0  0  0  0  0  0
    5.5206    5.6518   22.2566 C   0  0  0  0  0  0  0  0  0  0  0  0
    4.7779    5.3923   23.3887 O   0  0  0  0  0  0  0  0  0  0  0  0
    5.8568    4.3728   21.4829 C   0  0  0  0  0  0  0  0  0  0  0  0
    3.6401    7.8755   19.7058 H   0  0  0  0  0  0  0  0  0  0  0  0
    3.4348    7.6739   22.1104 H   0  0  0  0  0  0  0  0  0  0  0  0
    3.9997    4.7997   23.2262 H   0  0  0  0  0  0  0  0  0  0  0  0
    4.6558    2.1962   20.4780 S   0  0  0  0  0  0  0  0  0  0  0  0
    5.9042    1.3916   20.6715 O   0  0  0  0  0  0  0  0  0  0  0  0
    3.6451    1.5915   21.4538 O   0  0  0  0  0  0  0  0  0  0  0  0
    3.1167    1.2806   16.2746 C   0  0  0  0  0  0  0  0  0  0  0  0
    2.7628    0.4792   17.3269 C   0  0  0  0  0  0  0  0  0  0  0  0
    3.2224    0.7421   18.6202 C   0  0  0  0  0  0  0  0  0  0  0  0
    4.0474    1.8162   18.8815 C   0  0  0  0  0  0  0  0  0  0  0  0
    4.3815    2.6036   17.7822 C   0  0  0  0  0  0  0  0  0  0  0  0
    3.9365    2.3504   16.5256 C   0  0  0  0  0  0  0  0  0  0  0  0
    2.7446    2.0013   13.9574 C   0  0  0  0  0  0  0  0  0  0  0  0
    2.6668    1.0350   14.9685 O   0  0  0  0  0  0  0  0  0  0  0  0
    6.6876    3.4396   22.3057 C   0  0  0  0  0  0  0  0  0  0  0  0
    5.8414    2.9432   23.3249 O   0  0  0  0  0  0  0  0  0  0  0  0
    6.1351    2.0125   23.5659 H   0  0  0  0  0  0  0  0  0  0  0  0
 22 23  1  0  0  0
 23 16  1  0  0  0
 16 17  2  0  0  0
 17 18  1  0  0  0
 18 19  2  0  0  0
 19 20  1  0  0  0
 20 21  2  0  0  0
 19 13  1  0  0  0
 13 14  2  0  0  0
 13 15  2  0  0  0
 13  1  1  0  0  0
  1  2  1  0  0  0
  2  3  1  0  0  0
  3  4  1  0  0  0
  3  5  1  0  0  0
  5  6  1  0  0  0
  5  7  1  0  0  0
  7  8  1  0  0  0
  7  9  1  0  0  0
  9 24  1  0  0  0
 24 25  1  0  0  0
 21 16  1  0  0  0
  9  1  1  0  0  0
  4 10  1  0  0  0
  6 11  1  0  0  0
  8 12  1  0  0  0
 25 26  1  0  0  0
M  END
> <minimizedAffinity>
-8.13330

> <CNNscore>
0.4110999405

> <CNNaffinity>
4.6238985062

> <CNN_VS>
1.9008843899

> <CNNaffinity_variance>
0.1661763191

$$$$
[H]OC([H])([H])[C@@]1([H])N(S(=O)(=O)c2c([H])c([H])c(OC([H])([H])[H])c([H])c2[H])C([H])([H])[C@]([H])(O[H])[C@@]([H])(O[H])[C@@]1([H])O[H]


 26 27  0  0  0  0  0  0  0  0999 V2000
    5.0378    5.6918   21.0571 N   0  0  0  0  0  0  0  0  0  0  0  0
    4.2512    5.6350   19.8828 C   0  0  0  0  0  0  0  0  0  0  0  0
    3.5981    6.9064   19.4705 C   0  0  0  0  0  0  0  0  0  0  0  0
    3.2898    6.8057   18.0987 O   0  0  0  0  0  0  0  0  0  0  0  0
    4.4890    8.1164   19.6189 C   0  0  0  0  0  0  0  0  0  0  0  0
    3.7230    9.2697   19.5301 O   0  0  0  0  0  0  0  0  0  0  0  0
    5.2527    8.1347   20.8951 C   0  0  0  0  0  0  0  0  0  0  0  0
    4.5146    8.5209   21.9937 O   0  0  0  0  0  0  0  0  0  0  0  0
    5.9220    6.7720   21.1014 C   0  0  0  0  0  0  0  0  0  0  0  0
    3.0900    7.6940   17.7146 H   0  0  0  0  0  0  0  0  0  0  0  0
    2.7759    9.0649   19.6861 H   0  0  0  0  0  0  0  0  0  0  0  0
    3.9044    7.8157   22.3303 H   0  0  0  0  0  0  0  0  0  0  0  0
    5.3176    4.2735   21.8644 S   0  0  0  0  0  0  0  0  0  0  0  0
    6.7523    3.9315   22.1251 O   0  0  0  0  0  0  0  0  0  0  0  0
    4.6852    4.3934   23.2519 O   0  0  0  0  0  0  0  0  0  0  0  0
    3.4373    0.6124   19.8803 C   0  0  0  0  0  0  0  0  0  0  0  0
    3.2340    0.8537   21.2126 C   0  0  0  0  0  0  0  0  0  0  0  0
    3.7998    1.9678   21.8384 C   0  0  0  0  0  0  0  0  0  0  0  0
    4.5816    2.8619   21.1370 C   0  0  0  0  0  0  0  0  0  0  0  0
    4.7615    2.5772   19.7854 C   0  0  0  0  0  0  0  0  0  0  0  0
    4.2132    1.4961   19.1756 C   0  0  0  0  0  0  0  0  0  0  0  0
    2.4983   -0.4659   17.8846 C   0  0  0  0  0  0  0  0  0  0  0  0
    2.8789   -0.4998   19.2322 O   0  0  0  0  0  0  0  0  0  0  0  0
    6.8865    6.8050   22.2445 C   0  0  0  0  0  0  0  0  0  0  0  0
    6.1073    6.8420   23.4247 O   0  0  0  0  0  0  0  0  0  0  0  0
    6.6105    6.3770   24.1603 H   0  0  0  0  0  0  0  0  0  0  0  0
 22 23  1  0  0  0
 23 16  1  0  0  0
 16 17  2  0  0  0
 17 18  1  0  0  0
 18 19  2  0  0  0
 19 20  1  0  0  0
 20 21  2  0  0  0
 19 13  1  0  0  0
 13 14  2  0  0  0
 13 15  2  0  0  0
 13  1  1  0  0  0
  1  2  1  0  0  0
  2  3  1  0  0  0
  3  4  1  0  0  0
  3  5  1  0  0  0
  5  6  1  0  0  0
  5  7  1  0  0  0
  7  8  1  0  0  0
  7  9  1  0  0  0
  9 24  1  0  0  0
 24 25  1  0  0  0
 21 16  1  0  0  0
  9  1  1  0  0  0
  4 10  1  0  0  0
  6 11  1  0  0  0
  8 12  1  0  0  0
 25 26  1  0  0  0
M  END
> <minimizedAffinity>
-8.19450

> <CNNscore>
0.3650043309

> <CNNaffinity>
4.5313582420

> <CNN_VS>
1.6539653540

> <CNNaffinity_variance>
0.1935490668

$$$$
[H]OC([H])([H])[C@@]1([H])N(S(=O)(=O)c2c([H])c([H])c(OC([H])([H])[H])c([H])c2[H])C([H])([H])[C@]([H])(O[H])[C@@]([H])(O[H])[C@@]1([H])O[H]


 26 27  0  0  0  0  0  0  0  0999 V2000
    4.7417    5.0391   18.8644 N   0  0  0  0  0  0  0  0  0  0  0  0
    3.9289    4.8959   20.0131 C   0  0  0  0  0  0  0  0  0  0  0  0
    4.4086    5.5803   21.2437 C   0  0  0  0  0  0  0  0  0  0  0  0
    3.3019    5.7498   22.1001 O   0  0  0  0  0  0  0  0  0  0  0  0
    4.9638    6.9608   20.9872 C   0  0  0  0  0  0  0  0  0  0  0  0
    5.6723    7.3897   22.1002 O   0  0  0  0  0  0  0  0  0  0  0  0
    5.8452    7.0300   19.7910 C   0  0  0  0  0  0  0  0  0  0  0  0
    7.1167    6.5365   19.9924 O   0  0  0  0  0  0  0  0  0  0  0  0
    5.1449    6.3517   18.6091 C   0  0  0  0  0  0  0  0  0  0  0  0
    3.5000    6.4101   22.8081 H   0  0  0  0  0  0  0  0  0  0  0  0
    5.9081    6.6270   22.6711 H   0  0  0  0  0  0  0  0  0  0  0  0
    7.1605    5.5461   20.0086 H   0  0  0  0  0  0  0  0  0  0  0  0
    4.5933    3.9012   17.6708 S   0  0  0  0  0  0  0  0  0  0  0  0
    5.8709    3.3259   17.1414 O   0  0  0  0  0  0  0  0  0  0  0  0
    3.8387    2.7063   18.2559 O   0  0  0  0  0  0  0  0  0  0  0  0
    2.0756    5.2817   14.1168 C   0  0  0  0  0  0  0  0  0  0  0  0
    3.2310    4.5768   13.9093 C   0  0  0  0  0  0  0  0  0  0  0  0
    4.0151    4.1451   14.9826 C   0  0  0  0  0  0  0  0  0  0  0  0
    3.6533    4.4137   16.2862 C   0  0  0  0  0  0  0  0  0  0  0  0
    2.4717    5.1328   16.4500 C   0  0  0  0  0  0  0  0  0  0  0  0
    1.7087    5.5530   15.4095 C   0  0  0  0  0  0  0  0  0  0  0  0
    1.0544    7.0845   12.7999 C   0  0  0  0  0  0  0  0  0  0  0  0
    1.2736    5.7246   13.0540 O   0  0  0  0  0  0  0  0  0  0  0  0
    5.8791    6.5926   17.3281 C   0  0  0  0  0  0  0  0  0  0  0  0
    6.4523    7.8817   17.4316 O   0  0  0  0  0  0  0  0  0  0  0  0
    7.3060    7.9008   16.9012 H   0  0  0  0  0  0  0  0  0  0  0  0
 22 23  1  0  0  0
 23 16  1  0  0  0
 16 17  2  0  0  0
 17 18  1  0  0  0
 18 19  2  0  0  0
 19 20  1  0  0  0
 20 21  2  0  0  0
 19 13  1  0  0  0
 13 14  2  0  0  0
 13 15  2  0  0  0
 13  1  1  0  0  0
  1  2  1  0  0  0
  2  3  1  0  0  0
  3  4  1  0  0  0
  3  5  1  0  0  0
  5  6  1  0  0  0
  5  7  1  0  0  0
  7  8  1  0  0  0
  7  9  1  0  0  0
  9 24  1  0  0  0
 24 25  1  0  0  0
 21 16  1  0  0  0
  9  1  1  0  0  0
  4 10  1  0  0  0
  6 11  1  0  0  0
  8 12  1  0  0  0
 25 26  1  0  0  0
M  END
> <minimizedAffinity>
-5.68587

> <CNNscore>
0.3574329317

> <CNNaffinity>
4.1370587349

> <CNN_VS>
1.4787210226

> <CNNaffinity_variance>
0.1828597337

$$$$
[H]OC([H])([H])[C@@]1([H])N(S(=O)(=O)c2c([H])c([H])c(OC([H])([H])[H])c([H])c2[H])C([H])([H])[C@]([H])(O[H])[C@@]([H])(O[H])[C@@]1([H])O[H]


 26 27  0  0  0  0  0  0  0  0999 V2000
    4.2691    3.2635   20.0114 N   0  0  0  0  0  0  0  0  0  0  0  0
    4.0592    4.6294   20.3127 C   0  0  0  0  0  0  0  0  0  0  0  0
    3.6157    4.9331   21.6998 C   0  0  0  0  0  0  0  0  0  0  0  0
    3.9236    6.2832   21.9633 O   0  0  0  0  0  0  0  0  0  0  0  0
    4.3311    4.1200   22.7520 C   0  0  0  0  0  0  0  0  0  0  0  0
    3.6502    4.2192   23.9567 O   0  0  0  0  0  0  0  0  0  0  0  0
    4.4776    2.6846   22.3908 C   0  0  0  0  0  0  0  0  0  0  0  0
    3.3334    1.9352   22.5639 O   0  0  0  0  0  0  0  0  0  0  0  0
    5.0256    2.5774   20.9641 C   0  0  0  0  0  0  0  0  0  0  0  0
    3.8865    6.4720   22.9326 H   0  0  0  0  0  0  0  0  0  0  0  0
    2.7318    4.5310   23.8066 H   0  0  0  0  0  0  0  0  0  0  0  0
    2.6539    2.0783   21.8562 H   0  0  0  0  0  0  0  0  0  0  0  0
    4.2100    2.8091   18.4203 S   0  0  0  0  0  0  0  0  0  0  0  0
    5.4439    2.1631   17.8695 O   0  0  0  0  0  0  0  0  0  0  0  0
    3.1162    1.7496   18.2775 O   0  0  0  0  0  0  0  0  0  0  0  0
    3.1453    6.1833   15.5294 C   0  0  0  0  0  0  0  0  0  0  0  0
    2.1956    5.2692   15.9000 C   0  0  0  0  0  0  0  0  0  0  0  0
    2.5007    4.2299   16.7832 C   0  0  0  0  0  0  0  0  0  0  0  0
    3.7670    4.0889   17.3115 C   0  0  0  0  0  0  0  0  0  0  0  0
    4.7004    5.0405   16.9073 C   0  0  0  0  0  0  0  0  0  0  0  0
    4.4065    6.0504   16.0499 C   0  0  0  0  0  0  0  0  0  0  0  0
    3.8675    8.0205   14.0699 C   0  0  0  0  0  0  0  0  0  0  0  0
    2.8606    7.2341   14.6442 O   0  0  0  0  0  0  0  0  0  0  0  0
    5.4102    1.1705   20.6313 C   0  0  0  0  0  0  0  0  0  0  0  0
    4.2020    0.4498   20.4826 O   0  0  0  0  0  0  0  0  0  0  0  0
    4.3429   -0.2845   19.8106 H   0  0  0  0  0  0  0  0  0  0  0  0
 22 23  1  0  0  0
 23 16  1  0  0  0
 16 17  2  0  0  0
 17 18  1  0  0  0
 18 19  2  0  0  0
 19 20  1  0  0  0
 20 21  2  0  0  0
 19 13  1  0  0  0
 13 14  2  0  0  0
 13 15  2  0  0  0
 13  1  1  0  0  0
  1  2  1  0  0  0
  2  3  1  0  0  0
  3  4  1  0  0  0
  3  5  1  0  0  0
  5  6  1  0  0  0
  5  7  1  0  0  0
  7  8  1  0  0  0
  7  9  1  0  0  0
  9 24  1  0  0  0
 24 25  1  0  0  0
 21 16  1  0  0  0
  9  1  1  0  0  0
  4 10  1  0  0  0
  6 11  1  0  0  0
  8 12  1  0  0  0
 25 26  1  0  0  0
M  END
> <minimizedAffinity>
-6.12416

> <CNNscore>
0.3568009734

> <CNNaffinity>
4.3115200996

> <CNN_VS>
1.5383545160

> <CNNaffinity_variance>
0.2723173797

$$$$
[H]OC([H])([H])[C@@]1([H])N(S(=O)(=O)c2c([H])c([H])c(OC([H])([H])[H])c([H])c2[H])C([H])([H])[C@]([H])(O[H])[C@@]([H])(O[H])[C@@]1([H])O[H]


 26 27  0  0  0  0  0  0  0  0999 V2000
    5.7332    4.4316   21.2757 N   0  0  0  0  0  0  0  0  0  0  0  0
    6.8137    4.5677   22.1783 C   0  0  0  0  0  0  0  0  0  0  0  0
    7.5584    5.8541   22.1185 C   0  0  0  0  0  0  0  0  0  0  0  0
    8.2339    6.0167   23.3451 O   0  0  0  0  0  0  0  0  0  0  0  0
    6.6641    7.0605   21.9618 C   0  0  0  0  0  0  0  0  0  0  0  0
    7.4275    8.1586   21.5928 O   0  0  0  0  0  0  0  0  0  0  0  0
    5.5773    6.8647   20.9654 C   0  0  0  0  0  0  0  0  0  0  0  0
    5.9836    6.9727   19.6524 O   0  0  0  0  0  0  0  0  0  0  0  0
    4.8738    5.5321   21.2425 C   0  0  0  0  0  0  0  0  0  0  0  0
    8.5343    6.9508   23.4626 H   0  0  0  0  0  0  0  0  0  0  0  0
    8.2940    7.8687   21.2345 H   0  0  0  0  0  0  0  0  0  0  0  0
    6.4753    6.1777   19.3219 H   0  0  0  0  0  0  0  0  0  0  0  0
    5.2377    2.8983   20.8951 S   0  0  0  0  0  0  0  0  0  0  0  0
    6.1869    1.7913   21.2368 O   0  0  0  0  0  0  0  0  0  0  0  0
    3.9779    2.5991   21.7094 O   0  0  0  0  0  0  0  0  0  0  0  0
    3.9809    2.2345   16.5528 C   0  0  0  0  0  0  0  0  0  0  0  0
    4.7574    3.3114   16.8876 C   0  0  0  0  0  0  0  0  0  0  0  0
    5.1528    3.5322   18.2097 C   0  0  0  0  0  0  0  0  0  0  0  0
    4.7754    2.6746   19.2219 C   0  0  0  0  0  0  0  0  0  0  0  0
    3.9865    1.5935   18.8358 C   0  0  0  0  0  0  0  0  0  0  0  0
    3.6013    1.3770   17.5528 C   0  0  0  0  0  0  0  0  0  0  0  0
    3.3021    3.0331   14.3328 C   0  0  0  0  0  0  0  0  0  0  0  0
    3.5727    1.9939   15.2321 O   0  0  0  0  0  0  0  0  0  0  0  0
    3.6309    5.3900   20.4222 C   0  0  0  0  0  0  0  0  0  0  0  0
    3.3103    6.6857   19.9536 O   0  0  0  0  0  0  0  0  0  0  0  0
    2.8535    6.6044   19.0618 H   0  0  0  0  0  0  0  0  0  0  0  0
 22 23  1  0  0  0
 23 16  1  0  0  0
 16 17  2  0  0  0
 17 18  1  0  0  0
 18 19  2  0  0  0
 19 20  1  0  0  0
 20 21  2  0  0  0
 19 13  1  0  0  0
 13 14  2  0  0  0
 13 15  2  0  0  0
 13  1  1  0  0  0
  1  2  1  0  0  0
  2  3  1  0  0  0
  3  4  1  0  0  0
  3  5  1  0  0  0
  5  6  1  0  0  0
  5  7  1  0  0  0
  7  8  1  0  0  0
  7  9  1  0  0  0
  9 24  1  0  0  0
 24 25  1  0  0  0
 21 16  1  0  0  0
  9  1  1  0  0  0
  4 10  1  0  0  0
  6 11  1  0  0  0
  8 12  1  0  0  0
 25 26  1  0  0  0
M  END
> <minimizedAffinity>
-7.37278

> <CNNscore>
0.3552660942

> <CNNaffinity>
4.3662548065

> <CNN_VS>
1.5511822701

> <CNNaffinity_variance>
0.2366168797

$$$$
[H]OC(=O)C([H])([H])[C@@]([H])(C(=O)N([H])[C@]([H])(C(=O)O[H])C([H])([H])c1c([H])c([H])c([H])c([H])c1[H])N([H])C(=O)[C@@]([H])(N([H])C(=O)[C@@]([H])(N([H])C(=O)[C@@]([H])(N([H])C(=O)[C@@]([H])(N([H])C(=O)OC([H])([H])c1c([H])c([H])c([H])c([H])c1[H])C([H])([H])c1c([H])c([H])c([H])c([H])c1[H])[C@@]([H])(C([H])([H])[H])C([H])([H])C([H])([H])[H])C([H])([H])c1c([H])c([H])c([H])c([H])c1[H])C([H])([H])c1c([H])c([H])c([H])c([H])c1[H]


 79 83  0  0  0  0  0  0  0  0999 V2000
    2.1710    5.7315   13.6310 C   0  0  0  0  0  0  0  0  0  0  0  0
    2.5795    5.4888   15.0477 C   0  0  0  0  0  0  0  0  0  0  0  0
    1.6996    5.2090   15.8819 O   0  0  0  0  0  0  0  0  0  0  0  0
    3.9175    5.5544   15.5089 N   0  0  0  0  0  0  0  0  0  0  0  0
    4.6688    5.7990   14.8869 H   0  0  0  0  0  0  0  0  0  0  0  0
    4.2006    5.2755   16.9255 C   0  0  0  0  0  0  0  0  0  0  0  0
    4.7592    6.5119   17.5391 C   0  0  0  0  0  0  0  0  0  0  0  0
    5.9748    6.7929   17.4245 O   0  0  0  0  0  0  0  0  0  0  0  0
    3.9236    7.4010   18.2652 N   0  0  0  0  0  0  0  0  0  0  0  0
    2.9210    7.1730   18.3561 H   0  0  0  0  0  0  0  0  0  0  0  0
    4.4654    8.5964   18.8691 C   0  0  0  0  0  0  0  0  0  0  0  0
    4.9955    8.3670   20.2354 C   0  0  0  0  0  0  0  0  0  0  0  0
    4.6160    9.1506   21.1549 O   0  0  0  0  0  0  0  0  0  0  0  0
    5.8880    7.3204   20.5299 N   0  0  0  0  0  0  0  0  0  0  0  0
    6.1694    6.6932   19.7278 H   0  0  0  0  0  0  0  0  0  0  0  0
    6.4423    7.0414   21.8170 C   0  0  0  0  0  0  0  0  0  0  0  0
    7.4339    8.0038   22.3001 C   0  0  0  0  0  0  0  0  0  0  0  0
    8.6184    8.1852   21.6343 O   0  0  0  0  0  0  0  0  0  0  0  0
    7.2068    8.6715   23.3310 O   0  0  0  0  0  0  0  0  0  0  0  0
    9.3257    8.8389   21.9316 H   0  0  0  0  0  0  0  0  0  0  0  0
    6.9494    5.5978   21.8806 C   0  0  0  0  0  0  0  0  0  0  0  0
    5.9061    4.6394   22.2615 C   0  0  0  0  0  0  0  0  0  0  0  0
    4.7031    5.0079   22.7960 C   0  0  0  0  0  0  0  0  0  0  0  0
    3.7342    4.0631   23.1311 C   0  0  0  0  0  0  0  0  0  0  0  0
    3.9559    2.7323   22.9354 C   0  0  0  0  0  0  0  0  0  0  0  0
    5.1663    2.3338   22.3971 C   0  0  0  0  0  0  0  0  0  0  0  0
    6.1241    3.2656   22.0661 C   0  0  0  0  0  0  0  0  0  0  0  0
    3.3903    9.6824   18.9308 C   0  0  0  0  0  0  0  0  0  0  0  0
    3.3337   10.5020   17.7063 C   0  0  0  0  0  0  0  0  0  0  0  0
    3.6296   11.8589   17.8212 O   0  0  0  0  0  0  0  0  0  0  0  0
    3.0387   10.0763   16.5635 O   0  0  0  0  0  0  0  0  0  0  0  0
    4.2351   12.2666   17.1056 H   0  0  0  0  0  0  0  0  0  0  0  0
    5.1389    4.1057   17.0649 C   0  0  0  0  0  0  0  0  0  0  0  0
    4.4913    2.8393   17.4205 C   0  0  0  0  0  0  0  0  0  0  0  0
    3.8243    2.0683   16.5019 C   0  0  0  0  0  0  0  0  0  0  0  0
    3.2105    0.8665   16.8594 C   0  0  0  0  0  0  0  0  0  0  0  0
    3.2646    0.4354   18.1447 C   0  0  0  0  0  0  0  0  0  0  0  0
    3.9282    1.1961   19.0785 C   0  0  0  0  0  0  0  0  0  0  0  0
    4.5280    2.3771   18.7132 C   0  0  0  0  0  0  0  0  0  0  0  0
    3.7592    7.3351   12.5237 C   0  0  0  0  0  0  0  0  0  0  0  0
    2.9351    8.2374   12.7448 O   0  0  0  0  0  0  0  0  0  0  0  0
    3.4323    6.0252   12.9358 N   0  0  0  0  0  0  0  0  0  0  0  0
    4.0151    5.1783   12.7857 H   0  0  0  0  0  0  0  0  0  0  0  0
    5.0403    7.6246   11.8590 C   0  0  0  0  0  0  0  0  0  0  0  0
    4.6591    8.1653   10.5320 N   0  0  0  0  0  0  0  0  0  0  0  0
    4.1632    7.3430    9.4954 C   0  0  0  0  0  0  0  0  0  0  0  0
    4.0404    6.1250    9.7063 O   0  0  0  0  0  0  0  0  0  0  0  0
    4.7803    9.2152   10.3946 H   0  0  0  0  0  0  0  0  0  0  0  0
    3.8101    7.9120    8.1965 C   0  0  0  0  0  0  0  0  0  0  0  0
    4.8380    7.7648    7.1737 N   0  0  0  0  0  0  0  0  0  0  0  0
    5.6552    8.8413    6.7947 C   0  0  0  0  0  0  0  0  0  0  0  0
    5.5046    9.9940    7.3451 O   0  0  0  0  0  0  0  0  0  0  0  0
    4.9565    6.8410    6.7275 H   0  0  0  0  0  0  0  0  0  0  0  0
    6.6392    8.7766    5.8562 O   0  0  0  0  0  0  0  0  0  0  0  0
    6.9704    9.8703    5.0084 C   0  0  0  0  0  0  0  0  0  0  0  0
    7.6099    9.3375    3.7892 C   0  0  0  0  0  0  0  0  0  0  0  0
    8.8920    8.7988    3.8289 C   0  0  0  0  0  0  0  0  0  0  0  0
    9.4275    8.3230    2.6663 C   0  0  0  0  0  0  0  0  0  0  0  0
    8.7225    8.3672    1.4636 C   0  0  0  0  0  0  0  0  0  0  0  0
    7.4480    8.9002    1.4129 C   0  0  0  0  0  0  0  0  0  0  0  0
    6.9261    9.3750    2.5927 C   0  0  0  0  0  0  0  0  0  0  0  0
    2.5108    7.3929    7.6347 C   0  0  0  0  0  0  0  0  0  0  0  0
    1.5984    8.4185    7.1394 C   0  0  0  0  0  0  0  0  0  0  0  0
    1.9287    9.7480    7.1196 C   0  0  0  0  0  0  0  0  0  0  0  0
    1.0499   10.6869    6.6562 C   0  0  0  0  0  0  0  0  0  0  0  0
   -0.1900   10.3348    6.1970 C   0  0  0  0  0  0  0  0  0  0  0  0
   -0.5368    8.9867    6.2127 C   0  0  0  0  0  0  0  0  0  0  0  0
    0.3521    8.0359    6.6804 C   0  0  0  0  0  0  0  0  0  0  0  0
    5.7700    8.7738   12.6079 C   0  0  0  0  0  0  0  0  0  0  0  0
    6.0547    8.3981   14.0479 C   0  0  0  0  0  0  0  0  0  0  0  0
    7.8190    7.6555   11.7212 C   0  0  0  0  0  0  0  0  0  0  0  0
    7.1603    8.9785   11.9912 C   0  0  0  0  0  0  0  0  0  0  0  0
    1.4016    4.6067   13.0672 C   0  0  0  0  0  0  0  0  0  0  0  0
    0.3586    5.0410   12.1028 C   0  0  0  0  0  0  0  0  0  0  0  0
   -0.9618    5.0820   12.4879 C   0  0  0  0  0  0  0  0  0  0  0  0
   -1.9419    5.4889   11.6094 C   0  0  0  0  0  0  0  0  0  0  0  0
   -1.5799    5.8568   10.3325 C   0  0  0  0  0  0  0  0  0  0  0  0
   -0.2454    5.8130    9.9521 C   0  0  0  0  0  0  0  0  0  0  0  0
    0.7519    5.4051   10.8267 C   0  0  0  0  0  0  0  0  0  0  0  0
 71 72  1  0  0  0
 72 69  1  0  0  0
 69 70  1  0  0  0
 69 44  1  0  0  0
 44 45  1  0  0  0
 45 46  1  0  0  0
 46 47  2  0  0  0
 46 49  1  0  0  0
 49 62  1  0  0  0
 62 63  1  0  0  0
 63 64  2  0  0  0
 64 65  1  0  0  0
 65 66  2  0  0  0
 66 67  1  0  0  0
 67 68  2  0  0  0
 49 50  1  0  0  0
 50 51  1  0  0  0
 51 52  2  0  0  0
 51 54  1  0  0  0
 54 55  1  0  0  0
 55 56  1  0  0  0
 56 57  2  0  0  0
 57 58  1  0  0  0
 58 59  2  0  0  0
 59 60  1  0  0  0
 60 61  2  0  0  0
 44 40  1  0  0  0
 40 41  2  0  0  0
 40 42  1  0  0  0
 42  1  1  0  0  0
  1 73  1  0  0  0
 73 74  1  0  0  0
 74 75  2  0  0  0
 75 76  1  0  0  0
 76 77  2  0  0  0
 77 78  1  0  0  0
 78 79  2  0  0  0
  1  2  1  0  0  0
  2  3  2  0  0  0
  2  4  1  0  0  0
  4  6  1  0  0  0
  6 33  1  0  0  0
 33 34  1  0  0  0
 34 35  2  0  0  0
 35 36  1  0  0  0
 36 37  2  0  0  0
 37 38  1  0  0  0
 38 39  2  0  0  0
  6  7  1  0  0  0
  7  8  2  0  0  0
  7  9  1  0  0  0
  9 11  1  0  0  0
 11 28  1  0  0  0
 28 29  1  0  0  0
 29 30  1  0  0  0
 29 31  2  0  0  0
 11 12  1  0  0  0
 12 13  2  0  0  0
 12 14  1  0  0  0
 14 16  1  0  0  0
 16 21  1  0  0  0
 21 22  1  0  0  0
 22 23  2  0  0  0
 23 24  1  0  0  0
 24 25  2  0  0  0
 25 26  1  0  0  0
 26 27  2  0  0  0
 16 17  1  0  0  0
 17 18  1  0  0  0
 17 19  2  0  0  0
 68 63  1  0  0  0
 61 56  1  0  0  0
 79 74  1  0  0  0
 39 34  1  0  0  0
 27 22  1  0  0  0
 45 48  1  0  0  0
 50 53  1  0  0  0
 42 43  1  0  0  0
  4  5  1  0  0  0
  9 10  1  0  0  0
 30 32  1  0  0  0
 14 15  1  0  0  0
 18 20  1  0  0  0
M  END
> <minimizedAffinity>
-9.43938

> <CNNscore>
0.2319195122

> <CNNaffinity>
7.1751580238

> <CNN_VS>
1.6640591621

> <CNNaffinity_variance>
0.7176567912

$$$$
[H]OC(=O)C([H])([H])[C@@]([H])(C(=O)N([H])[C@]([H])(C(=O)O[H])C([H])([H])c1c([H])c([H])c([H])c([H])c1[H])N([H])C(=O)[C@@]([H])(N([H])C(=O)[C@@]([H])(N([H])C(=O)[C@@]([H])(N([H])C(=O)[C@@]([H])(N([H])C(=O)OC([H])([H])c1c([H])c([H])c([H])c([H])c1[H])C([H])([H])c1c([H])c([H])c([H])c([H])c1[H])[C@@]([H])(C([H])([H])[H])C([H])([H])C([H])([H])[H])C([H])([H])c1c([H])c([H])c([H])c([H])c1[H])C([H])([H])c1c([H])c([H])c([H])c([H])c1[H]


 79 83  0  0  0  0  0  0  0  0999 V2000
    4.1940    4.7819   18.5062 C   0  0  0  0  0  0  0  0  0  0  0  0
    4.6132    4.9808   19.9266 C   0  0  0  0  0  0  0  0  0  0  0  0
    3.8400    5.5768   20.6982 O   0  0  0  0  0  0  0  0  0  0  0  0
    5.8456    4.5287   20.4597 N   0  0  0  0  0  0  0  0  0  0  0  0
    6.5213    4.0619   19.8795 H   0  0  0  0  0  0  0  0  0  0  0  0
    6.1400    4.7655   21.8817 C   0  0  0  0  0  0  0  0  0  0  0  0
    7.3467    5.6339   21.9671 C   0  0  0  0  0  0  0  0  0  0  0  0
    7.6637    6.3877   21.0179 O   0  0  0  0  0  0  0  0  0  0  0  0
    8.1624    5.6276   23.1292 N   0  0  0  0  0  0  0  0  0  0  0  0
    7.8994    5.0105   23.9138 H   0  0  0  0  0  0  0  0  0  0  0  0
    9.3387    6.4625   23.2103 C   0  0  0  0  0  0  0  0  0  0  0  0
    9.1034    7.8449   22.7267 C   0  0  0  0  0  0  0  0  0  0  0  0
    9.9442    8.3386   21.9187 O   0  0  0  0  0  0  0  0  0  0  0  0
    7.9909    8.6042   23.1319 N   0  0  0  0  0  0  0  0  0  0  0  0
    7.3179    8.1439   23.8036 H   0  0  0  0  0  0  0  0  0  0  0  0
    7.7017    9.9394   22.7129 C   0  0  0  0  0  0  0  0  0  0  0  0
    7.7126   10.9503   23.7717 C   0  0  0  0  0  0  0  0  0  0  0  0
    7.3698   12.2504   23.5044 O   0  0  0  0  0  0  0  0  0  0  0  0
    8.0376   10.6335   24.9353 O   0  0  0  0  0  0  0  0  0  0  0  0
    7.3616   12.9755   24.2044 H   0  0  0  0  0  0  0  0  0  0  0  0
    6.4141    9.9741   21.8847 C   0  0  0  0  0  0  0  0  0  0  0  0
    6.5654   10.6999   20.6189 C   0  0  0  0  0  0  0  0  0  0  0  0
    5.8797   11.8439   20.3195 C   0  0  0  0  0  0  0  0  0  0  0  0
    6.0649   12.5092   19.1084 C   0  0  0  0  0  0  0  0  0  0  0  0
    6.9417   12.0378   18.1770 C   0  0  0  0  0  0  0  0  0  0  0  0
    7.6468   10.8807   18.4556 C   0  0  0  0  0  0  0  0  0  0  0  0
    7.4646   10.2226   19.6509 C   0  0  0  0  0  0  0  0  0  0  0  0
   10.4761    5.8407   22.3987 C   0  0  0  0  0  0  0  0  0  0  0  0
   11.7565    5.8205   23.1299 C   0  0  0  0  0  0  0  0  0  0  0  0
   12.5197    6.9864   23.1311 O   0  0  0  0  0  0  0  0  0  0  0  0
   12.2182    4.8347   23.7538 O   0  0  0  0  0  0  0  0  0  0  0  0
   12.9348    7.2715   24.0207 H   0  0  0  0  0  0  0  0  0  0  0  0
    6.3316    3.4636   22.6140 C   0  0  0  0  0  0  0  0  0  0  0  0
    5.4119    2.3941   22.2140 C   0  0  0  0  0  0  0  0  0  0  0  0
    5.7630    1.4161   21.3176 C   0  0  0  0  0  0  0  0  0  0  0  0
    4.8728    0.4071   20.9458 C   0  0  0  0  0  0  0  0  0  0  0  0
    3.6236    0.3785   21.4744 C   0  0  0  0  0  0  0  0  0  0  0  0
    3.2547    1.3513   22.3736 C   0  0  0  0  0  0  0  0  0  0  0  0
    4.1408    2.3389   22.7309 C   0  0  0  0  0  0  0  0  0  0  0  0
    5.4313    6.8207   17.7111 C   0  0  0  0  0  0  0  0  0  0  0  0
    6.4869    6.2579   18.0448 O   0  0  0  0  0  0  0  0  0  0  0  0
    4.2178    6.1334   17.9290 N   0  0  0  0  0  0  0  0  0  0  0  0
    3.2673    6.5002   17.7252 H   0  0  0  0  0  0  0  0  0  0  0  0
    5.4465    8.1600   17.1004 C   0  0  0  0  0  0  0  0  0  0  0  0
    5.4870    7.9046   15.6403 N   0  0  0  0  0  0  0  0  0  0  0  0
    6.4052    8.5542   14.7851 C   0  0  0  0  0  0  0  0  0  0  0  0
    7.2077    9.3654   15.2761 O   0  0  0  0  0  0  0  0  0  0  0  0
    4.7814    7.2013   15.2618 H   0  0  0  0  0  0  0  0  0  0  0  0
    6.4054    8.2848   13.3487 C   0  0  0  0  0  0  0  0  0  0  0  0
    5.1055    8.4342   12.7066 N   0  0  0  0  0  0  0  0  0  0  0  0
    4.6647    7.5334   11.7244 C   0  0  0  0  0  0  0  0  0  0  0  0
    5.4129    6.5515   11.3634 O   0  0  0  0  0  0  0  0  0  0  0  0
    4.5060    9.2252   12.9921 H   0  0  0  0  0  0  0  0  0  0  0  0
    3.4627    7.6041   11.0891 O   0  0  0  0  0  0  0  0  0  0  0  0
    2.5979    6.4833   10.9467 C   0  0  0  0  0  0  0  0  0  0  0  0
    1.6057    6.5188   12.0392 C   0  0  0  0  0  0  0  0  0  0  0  0
    0.3587    7.1080   11.8565 C   0  0  0  0  0  0  0  0  0  0  0  0
   -0.5140    7.1085   12.9068 C   0  0  0  0  0  0  0  0  0  0  0  0
   -0.1814    6.5380   14.1353 C   0  0  0  0  0  0  0  0  0  0  0  0
    1.0548    5.9498   14.3276 C   0  0  0  0  0  0  0  0  0  0  0  0
    1.9201    5.9597   13.2596 C   0  0  0  0  0  0  0  0  0  0  0  0
    7.4086    9.1014   12.5739 C   0  0  0  0  0  0  0  0  0  0  0  0
    8.7192    8.4798   12.4139 C   0  0  0  0  0  0  0  0  0  0  0  0
    9.8287    8.9217   13.0853 C   0  0  0  0  0  0  0  0  0  0  0  0
   11.0452    8.3236   12.9094 C   0  0  0  0  0  0  0  0  0  0  0  0
   11.2000    7.2644   12.0571 C   0  0  0  0  0  0  0  0  0  0  0  0
   10.0795    6.8069   11.3691 C   0  0  0  0  0  0  0  0  0  0  0  0
    8.8481    7.4108   11.5473 C   0  0  0  0  0  0  0  0  0  0  0  0
    4.0984    8.8788   17.3828 C   0  0  0  0  0  0  0  0  0  0  0  0
    3.8526    9.0218   18.8711 C   0  0  0  0  0  0  0  0  0  0  0  0
    2.9064   11.0635   17.1797 C   0  0  0  0  0  0  0  0  0  0  0  0
    4.1785   10.3247   16.8748 C   0  0  0  0  0  0  0  0  0  0  0  0
    5.0359    3.7950   17.8045 C   0  0  0  0  0  0  0  0  0  0  0  0
    4.2481    2.8236   17.0031 C   0  0  0  0  0  0  0  0  0  0  0  0
    3.8505    3.1460   15.7259 C   0  0  0  0  0  0  0  0  0  0  0  0
    3.1256    2.2550   14.9653 C   0  0  0  0  0  0  0  0  0  0  0  0
    2.8023    1.0294   15.5039 C   0  0  0  0  0  0  0  0  0  0  0  0
    3.2077    0.7118   16.7933 C   0  0  0  0  0  0  0  0  0  0  0  0
    3.9382    1.5997   17.5703 C   0  0  0  0  0  0  0  0  0  0  0  0
 71 72  1  0  0  0
 72 69  1  0  0  0
 69 70  1  0  0  0
 69 44  1  0  0  0
 44 45  1  0  0  0
 45 46  1  0  0  0
 46 47  2  0  0  0
 46 49  1  0  0  0
 49 62  1  0  0  0
 62 63  1  0  0  0
 63 64  2  0  0  0
 64 65  1  0  0  0
 65 66  2  0  0  0
 66 67  1  0  0  0
 67 68  2  0  0  0
 49 50  1  0  0  0
 50 51  1  0  0  0
 51 52  2  0  0  0
 51 54  1  0  0  0
 54 55  1  0  0  0
 55 56  1  0  0  0
 56 57  2  0  0  0
 57 58  1  0  0  0
 58 59  2  0  0  0
 59 60  1  0  0  0
 60 61  2  0  0  0
 44 40  1  0  0  0
 40 41  2  0  0  0
 40 42  1  0  0  0
 42  1  1  0  0  0
  1 73  1  0  0  0
 73 74  1  0  0  0
 74 75  2  0  0  0
 75 76  1  0  0  0
 76 77  2  0  0  0
 77 78  1  0  0  0
 78 79  2  0  0  0
  1  2  1  0  0  0
  2  3  2  0  0  0
  2  4  1  0  0  0
  4  6  1  0  0  0
  6 33  1  0  0  0
 33 34  1  0  0  0
 34 35  2  0  0  0
 35 36  1  0  0  0
 36 37  2  0  0  0
 37 38  1  0  0  0
 38 39  2  0  0  0
  6  7  1  0  0  0
  7  8  2  0  0  0
  7  9  1  0  0  0
  9 11  1  0  0  0
 11 28  1  0  0  0
 28 29  1  0  0  0
 29 30  1  0  0  0
 29 31  2  0  0  0
 11 12  1  0  0  0
 12 13  2  0  0  0
 12 14  1  0  0  0
 14 16  1  0  0  0
 16 21  1  0  0  0
 21 22  1  0  0  0
 22 23  2  0  0  0
 23 24  1  0  0  0
 24 25  2  0  0  0
 25 26  1  0  0  0
 26 27  2  0  0  0
 16 17  1  0  0  0
 17 18  1  0  0  0
 17 19  2  0  0  0
 68 63  1  0  0  0
 61 56  1  0  0  0
 79 74  1  0  0  0
 39 34  1  0  0  0
 27 22  1  0  0  0
 45 48  1  0  0  0
 50 53  1  0  0  0
 42 43  1  0  0  0
  4  5  1  0  0  0
  9 10  1  0  0  0
 30 32  1  0  0  0
 14 15  1  0  0  0
 18 20  1  0  0  0
M  END
> <minimizedAffinity>
-10.05959

> <CNNscore>
0.1980642825

> <CNNaffinity>
7.7907609940

> <CNN_VS>
1.5430715084

> <CNNaffinity_variance>
1.1730577946

$$$$
[H]OC(=O)C([H])([H])[C@@]([H])(C(=O)N([H])[C@]([H])(C(=O)O[H])C([H])([H])c1c([H])c([H])c([H])c([H])c1[H])N([H])C(=O)[C@@]([H])(N([H])C(=O)[C@@]([H])(N([H])C(=O)[C@@]([H])(N([H])C(=O)[C@@]([H])(N([H])C(=O)OC([H])([H])c1c([H])c([H])c([H])c([H])c1[H])C([H])([H])c1c([H])c([H])c([H])c([H])c1[H])[C@@]([H])(C([H])([H])[H])C([H])([H])C([H])([H])[H])C([H])([H])c1c([H])c([H])c([H])c([H])c1[H])C([H])([H])c1c([H])c([H])c([H])c([H])c1[H]


 79 83  0  0  0  0  0  0  0  0999 V2000
    4.3120    7.5074   19.0386 C   0  0  0  0  0  0  0  0  0  0  0  0
    4.8314    6.9716   20.3332 C   0  0  0  0  0  0  0  0  0  0  0  0
    4.5605    7.5831   21.3826 O   0  0  0  0  0  0  0  0  0  0  0  0
    5.6187    5.7992   20.4468 N   0  0  0  0  0  0  0  0  0  0  0  0
    5.8897    5.2759   19.6320 H   0  0  0  0  0  0  0  0  0  0  0  0
    6.0563    5.3575   21.7802 C   0  0  0  0  0  0  0  0  0  0  0  0
    7.0023    6.3738   22.3182 C   0  0  0  0  0  0  0  0  0  0  0  0
    8.0282    6.6992   21.6768 O   0  0  0  0  0  0  0  0  0  0  0  0
    6.7590    6.9984   23.5698 N   0  0  0  0  0  0  0  0  0  0  0  0
    5.9115    6.7347   24.0969 H   0  0  0  0  0  0  0  0  0  0  0  0
    7.6804    7.9780   24.0979 C   0  0  0  0  0  0  0  0  0  0  0  0
    7.4769    9.3322   23.5278 C   0  0  0  0  0  0  0  0  0  0  0  0
    6.4573    9.9831   23.9023 O   0  0  0  0  0  0  0  0  0  0  0  0
    8.3715    9.9012   22.6034 N   0  0  0  0  0  0  0  0  0  0  0  0
    9.2081    9.3180   22.3277 H   0  0  0  0  0  0  0  0  0  0  0  0
    8.2389   11.1943   22.0099 C   0  0  0  0  0  0  0  0  0  0  0  0
    8.2373   12.3212   22.9443 C   0  0  0  0  0  0  0  0  0  0  0  0
    7.0902   13.0325   23.1842 O   0  0  0  0  0  0  0  0  0  0  0  0
    9.2894   12.6462   23.5338 O   0  0  0  0  0  0  0  0  0  0  0  0
    7.0458   13.8122   23.8214 H   0  0  0  0  0  0  0  0  0  0  0  0
    7.0425   11.2254   21.0545 C   0  0  0  0  0  0  0  0  0  0  0  0
    7.3643   10.7202   19.7154 C   0  0  0  0  0  0  0  0  0  0  0  0
    7.7175   11.5274   18.6702 C   0  0  0  0  0  0  0  0  0  0  0  0
    8.0288   11.0027   17.4166 C   0  0  0  0  0  0  0  0  0  0  0  0
    7.9911    9.6588   17.1905 C   0  0  0  0  0  0  0  0  0  0  0  0
    7.6349    8.8208   18.2319 C   0  0  0  0  0  0  0  0  0  0  0  0
    7.3270    9.3376   19.4701 C   0  0  0  0  0  0  0  0  0  0  0  0
    9.1200    7.5381   23.8278 C   0  0  0  0  0  0  0  0  0  0  0  0
    9.6520    6.6465   24.8749 C   0  0  0  0  0  0  0  0  0  0  0  0
    9.2686    6.8934   26.1916 O   0  0  0  0  0  0  0  0  0  0  0  0
   10.4262    5.6791   24.6770 O   0  0  0  0  0  0  0  0  0  0  0  0
    9.0061    6.0856   26.7605 H   0  0  0  0  0  0  0  0  0  0  0  0
    6.6804    3.9885   21.7138 C   0  0  0  0  0  0  0  0  0  0  0  0
    5.7245    2.8770   21.7392 C   0  0  0  0  0  0  0  0  0  0  0  0
    4.4767    2.9898   22.2991 C   0  0  0  0  0  0  0  0  0  0  0  0
    3.5806    1.9195   22.3172 C   0  0  0  0  0  0  0  0  0  0  0  0
    3.9372    0.7294   21.7718 C   0  0  0  0  0  0  0  0  0  0  0  0
    5.1842    0.5986   21.2071 C   0  0  0  0  0  0  0  0  0  0  0  0
    6.0565    1.6601   21.1961 C   0  0  0  0  0  0  0  0  0  0  0  0
    4.1481    5.7219   17.2765 C   0  0  0  0  0  0  0  0  0  0  0  0
    5.1970    6.1701   16.7854 O   0  0  0  0  0  0  0  0  0  0  0  0
    3.6275    6.3624   18.4215 N   0  0  0  0  0  0  0  0  0  0  0  0
    2.7465    6.1096   18.9109 H   0  0  0  0  0  0  0  0  0  0  0  0
    3.4731    4.5543   16.6866 C   0  0  0  0  0  0  0  0  0  0  0  0
    3.3506    4.8819   15.2456 N   0  0  0  0  0  0  0  0  0  0  0  0
    2.1709    5.4294   14.6932 C   0  0  0  0  0  0  0  0  0  0  0  0
    1.2047    5.6457   15.4434 O   0  0  0  0  0  0  0  0  0  0  0  0
    4.2033    4.6806   14.6390 H   0  0  0  0  0  0  0  0  0  0  0  0
    2.0847    5.7271   13.2650 C   0  0  0  0  0  0  0  0  0  0  0  0
    0.8133    6.3023   12.8442 N   0  0  0  0  0  0  0  0  0  0  0  0
   -0.1073    5.5674   12.0808 C   0  0  0  0  0  0  0  0  0  0  0  0
    0.1613    4.3601   11.7280 O   0  0  0  0  0  0  0  0  0  0  0  0
    0.5987    7.2733   13.1227 H   0  0  0  0  0  0  0  0  0  0  0  0
   -1.3150    6.0341   11.6600 O   0  0  0  0  0  0  0  0  0  0  0  0
   -2.4351    6.1688   12.5270 C   0  0  0  0  0  0  0  0  0  0  0  0
   -3.6075    5.5560   11.8719 C   0  0  0  0  0  0  0  0  0  0  0  0
   -4.8182    6.2362   11.7864 C   0  0  0  0  0  0  0  0  0  0  0  0
   -5.8648    5.6139   11.1682 C   0  0  0  0  0  0  0  0  0  0  0  0
   -5.7410    4.3326   10.6313 C   0  0  0  0  0  0  0  0  0  0  0  0
   -4.5428    3.6479   10.7107 C   0  0  0  0  0  0  0  0  0  0  0  0
   -3.5011    4.2898   11.3372 C   0  0  0  0  0  0  0  0  0  0  0  0
    3.1928    6.6150   12.7579 C   0  0  0  0  0  0  0  0  0  0  0  0
    4.1933    5.9446   11.9338 C   0  0  0  0  0  0  0  0  0  0  0  0
    5.3316    6.5737   11.5033 C   0  0  0  0  0  0  0  0  0  0  0  0
    6.2477    5.9216   10.7260 C   0  0  0  0  0  0  0  0  0  0  0  0
    6.0616    4.6196   10.3487 C   0  0  0  0  0  0  0  0  0  0  0  0
    4.9081    3.9702   10.7800 C   0  0  0  0  0  0  0  0  0  0  0  0
    3.9812    4.6289   11.5673 C   0  0  0  0  0  0  0  0  0  0  0  0
    4.4024    3.3124   16.7766 C   0  0  0  0  0  0  0  0  0  0  0  0
    4.4524    2.7642   18.1883 C   0  0  0  0  0  0  0  0  0  0  0  0
    2.7329    1.4561   16.7319 C   0  0  0  0  0  0  0  0  0  0  0  0
    3.8006    2.1678   15.9504 C   0  0  0  0  0  0  0  0  0  0  0  0
    3.4709    8.7048   19.2227 C   0  0  0  0  0  0  0  0  0  0  0  0
    3.8478    9.8244   18.3222 C   0  0  0  0  0  0  0  0  0  0  0  0
    3.8529   11.1168   18.7945 C   0  0  0  0  0  0  0  0  0  0  0  0
    4.2067   12.1669   17.9759 C   0  0  0  0  0  0  0  0  0  0  0  0
    4.5575   11.9041   16.6704 C   0  0  0  0  0  0  0  0  0  0  0  0
    4.5502   10.5971   16.2019 C   0  0  0  0  0  0  0  0  0  0  0  0
    4.1961    9.5300   17.0154 C   0  0  0  0  0  0  0  0  0  0  0  0
 71 72  1  0  0  0
 72 69  1  0  0  0
 69 70  1  0  0  0
 69 44  1  0  0  0
 44 45  1  0  0  0
 45 46  1  0  0  0
 46 47  2  0  0  0
 46 49  1  0  0  0
 49 62  1  0  0  0
 62 63  1  0  0  0
 63 64  2  0  0  0
 64 65  1  0  0  0
 65 66  2  0  0  0
 66 67  1  0  0  0
 67 68  2  0  0  0
 49 50  1  0  0  0
 50 51  1  0  0  0
 51 52  2  0  0  0
 51 54  1  0  0  0
 54 55  1  0  0  0
 55 56  1  0  0  0
 56 57  2  0  0  0
 57 58  1  0  0  0
 58 59  2  0  0  0
 59 60  1  0  0  0
 60 61  2  0  0  0
 44 40  1  0  0  0
 40 41  2  0  0  0
 40 42  1  0  0  0
 42  1  1  0  0  0
  1 73  1  0  0  0
 73 74  1  0  0  0
 74 75  2  0  0  0
 75 76  1  0  0  0
 76 77  2  0  0  0
 77 78  1  0  0  0
 78 79  2  0  0  0
  1  2  1  0  0  0
  2  3  2  0  0  0
  2  4  1  0  0  0
  4  6  1  0  0  0
  6 33  1  0  0  0
 33 34  1  0  0  0
 34 35  2  0  0  0
 35 36  1  0  0  0
 36 37  2  0  0  0
 37 38  1  0  0  0
 38 39  2  0  0  0
  6  7  1  0  0  0
  7  8  2  0  0  0
  7  9  1  0  0  0
  9 11  1  0  0  0
 11 28  1  0  0  0
 28 29  1  0  0  0
 29 30  1  0  0  0
 29 31  2  0  0  0
 11 12  1  0  0  0
 12 13  2  0  0  0
 12 14  1  0  0  0
 14 16  1  0  0  0
 16 21  1  0  0  0
 21 22  1  0  0  0
 22 23  2  0  0  0
 23 24  1  0  0  0
 24 25  2  0  0  0
 25 26  1  0  0  0
 26 27  2  0  0  0
 16 17  1  0  0  0
 17 18  1  0  0  0
 17 19  2  0  0  0
 68 63  1  0  0  0
 61 56  1  0  0  0
 79 74  1  0  0  0
 39 34  1  0  0  0
 27 22  1  0  0  0
 45 48  1  0  0  0
 50 53  1  0  0  0
 42 43  1  0  0  0
  4  5  1  0  0  0
  9 10  1  0  0  0
 30 32  1  0  0  0
 14 15  1  0  0  0
 18 20  1  0  0  0
M  END
> <minimizedAffinity>
-9.18635

> <CNNscore>
0.1944870800

> <CNNaffinity>
7.7319855690

> <CNN_VS>
1.5037713051

> <CNNaffinity_variance>
0.7066292763

$$$$
[H]OC(=O)C([H])([H])[C@@]([H])(C(=O)N([H])[C@]([H])(C(=O)O[H])C([H])([H])c1c([H])c([H])c([H])c([H])c1[H])N([H])C(=O)[C@@]([H])(N([H])C(=O)[C@@]([H])(N([H])C(=O)[C@@]([H])(N([H])C(=O)[C@@]([H])(N([H])C(=O)OC([H])([H])c1c([H])c([H])c([H])c([H])c1[H])C([H])([H])c1c([H])c([H])c([H])c([H])c1[H])[C@@]([H])(C([H])([H])[H])C([H])([H])C([H])([H])[H])C([H])([H])c1c([H])c([H])c([H])c([H])c1[H])C([H])([H])c1c([H])c([H])c([H])c([H])c1[H]


 79 83  0  0  0  0  0  0  0  0999 V2000
    2.6871    6.4577   13.6526 C   0  0  0  0  0  0  0  0  0  0  0  0
    3.0018    5.9355   15.0167 C   0  0  0  0  0  0  0  0  0  0  0  0
    2.0809    5.4425   15.6931 O   0  0  0  0  0  0  0  0  0  0  0  0
    4.2941    5.9625   15.5969 N   0  0  0  0  0  0  0  0  0  0  0  0
    5.0731    6.3696   15.1085 H   0  0  0  0  0  0  0  0  0  0  0  0
    4.4864    5.3991   16.9424 C   0  0  0  0  0  0  0  0  0  0  0  0
    5.1388    6.4351   17.7901 C   0  0  0  0  0  0  0  0  0  0  0  0
    6.3871    6.5273   17.8444 O   0  0  0  0  0  0  0  0  0  0  0  0
    4.3582    7.3431   18.5530 N   0  0  0  0  0  0  0  0  0  0  0  0
    3.3296    7.2711   18.5052 H   0  0  0  0  0  0  0  0  0  0  0  0
    4.9894    8.3429   19.3833 C   0  0  0  0  0  0  0  0  0  0  0  0
    5.2860    7.8566   20.7528 C   0  0  0  0  0  0  0  0  0  0  0  0
    4.7819    8.4904   21.7263 O   0  0  0  0  0  0  0  0  0  0  0  0
    6.0938    6.7302   20.9924 N   0  0  0  0  0  0  0  0  0  0  0  0
    6.4859    6.2352   20.1455 H   0  0  0  0  0  0  0  0  0  0  0  0
    6.4259    6.2072   22.2801 C   0  0  0  0  0  0  0  0  0  0  0  0
    7.2566    7.0731   23.1186 C   0  0  0  0  0  0  0  0  0  0  0  0
    6.7010    7.8144   24.1290 O   0  0  0  0  0  0  0  0  0  0  0  0
    8.4874    7.1440   22.9177 O   0  0  0  0  0  0  0  0  0  0  0  0
    7.2374    8.4199   24.7304 H   0  0  0  0  0  0  0  0  0  0  0  0
    6.9986    4.7927   22.1526 C   0  0  0  0  0  0  0  0  0  0  0  0
    5.9752    3.7474   22.2605 C   0  0  0  0  0  0  0  0  0  0  0  0
    4.7591    3.9417   22.8538 C   0  0  0  0  0  0  0  0  0  0  0  0
    3.8100    2.9227   22.9220 C   0  0  0  0  0  0  0  0  0  0  0  0
    4.0650    1.6913   22.3956 C   0  0  0  0  0  0  0  0  0  0  0  0
    5.2892    1.4690   21.7911 C   0  0  0  0  0  0  0  0  0  0  0  0
    6.2274    2.4741   21.7234 C   0  0  0  0  0  0  0  0  0  0  0  0
    4.0956    9.5801   19.4797 C   0  0  0  0  0  0  0  0  0  0  0  0
    3.5588   10.0017   18.1726 C   0  0  0  0  0  0  0  0  0  0  0  0
    2.2357   10.4368   18.1261 O   0  0  0  0  0  0  0  0  0  0  0  0
    4.1981   10.0003   17.0931 O   0  0  0  0  0  0  0  0  0  0  0  0
    2.0398   11.2769   17.5776 H   0  0  0  0  0  0  0  0  0  0  0  0
    5.2960    4.1307   16.8823 C   0  0  0  0  0  0  0  0  0  0  0  0
    4.5111    2.8968   16.9880 C   0  0  0  0  0  0  0  0  0  0  0  0
    3.7979    2.3835   15.9340 C   0  0  0  0  0  0  0  0  0  0  0  0
    3.0533    1.2088   16.0540 C   0  0  0  0  0  0  0  0  0  0  0  0
    3.0224    0.5453   17.2371 C   0  0  0  0  0  0  0  0  0  0  0  0
    3.7308    1.0460   18.3041 C   0  0  0  0  0  0  0  0  0  0  0  0
    4.4596    2.2034   18.1723 C   0  0  0  0  0  0  0  0  0  0  0  0
    2.7940    4.9683   11.6302 C   0  0  0  0  0  0  0  0  0  0  0  0
    3.6288    5.7523   11.1498 O   0  0  0  0  0  0  0  0  0  0  0  0
    2.2576    5.2702   12.9004 N   0  0  0  0  0  0  0  0  0  0  0  0
    1.5332    4.7182   13.4004 H   0  0  0  0  0  0  0  0  0  0  0  0
    2.3828    3.7579   10.9003 C   0  0  0  0  0  0  0  0  0  0  0  0
    1.9662    4.2502    9.5650 N   0  0  0  0  0  0  0  0  0  0  0  0
    0.6208    4.2187    9.1344 C   0  0  0  0  0  0  0  0  0  0  0  0
   -0.2422    3.7649    9.9040 O   0  0  0  0  0  0  0  0  0  0  0  0
    2.7387    4.6312    8.9375 H   0  0  0  0  0  0  0  0  0  0  0  0
    0.2518    4.7018    7.8053 C   0  0  0  0  0  0  0  0  0  0  0  0
    1.2196    5.6102    7.2033 N   0  0  0  0  0  0  0  0  0  0  0  0
    1.1489    6.9973    7.4070 C   0  0  0  0  0  0  0  0  0  0  0  0
    0.2122    7.4986    8.1319 O   0  0  0  0  0  0  0  0  0  0  0  0
    1.9692    5.2093    6.6170 H   0  0  0  0  0  0  0  0  0  0  0  0
    2.0203    7.9042    6.8858 O   0  0  0  0  0  0  0  0  0  0  0  0
    2.7413    7.6772    5.6804 C   0  0  0  0  0  0  0  0  0  0  0  0
    3.9862    8.4692    5.7262 C   0  0  0  0  0  0  0  0  0  0  0  0
    4.9002    8.4297    4.6779 C   0  0  0  0  0  0  0  0  0  0  0  0
    6.0329    9.1853    4.7817 C   0  0  0  0  0  0  0  0  0  0  0  0
    6.2825    9.9808    5.8998 C   0  0  0  0  0  0  0  0  0  0  0  0
    5.3811   10.0275    6.9469 C   0  0  0  0  0  0  0  0  0  0  0  0
    4.2474    9.2597    6.8251 C   0  0  0  0  0  0  0  0  0  0  0  0
   -0.0401    3.6029    6.8150 C   0  0  0  0  0  0  0  0  0  0  0  0
    0.9143    2.4989    6.8183 C   0  0  0  0  0  0  0  0  0  0  0  0
    0.7166    1.3592    7.5523 C   0  0  0  0  0  0  0  0  0  0  0  0
    1.6325    0.3444    7.5409 C   0  0  0  0  0  0  0  0  0  0  0  0
    2.7788    0.4296    6.7986 C   0  0  0  0  0  0  0  0  0  0  0  0
    2.9905    1.5834    6.0490 C   0  0  0  0  0  0  0  0  0  0  0  0
    2.0640    2.6102    6.0591 C   0  0  0  0  0  0  0  0  0  0  0  0
    3.6171    2.8441   10.6655 C   0  0  0  0  0  0  0  0  0  0  0  0
    3.2236    1.3809   10.6531 C   0  0  0  0  0  0  0  0  0  0  0  0
    5.3048    2.1524    8.9602 C   0  0  0  0  0  0  0  0  0  0  0  0
    4.1736    3.0953    9.2576 C   0  0  0  0  0  0  0  0  0  0  0  0
    1.7053    7.5578   13.6845 C   0  0  0  0  0  0  0  0  0  0  0  0
    0.3466    7.1374   13.2556 C   0  0  0  0  0  0  0  0  0  0  0  0
    0.0572    7.0035   11.9171 C   0  0  0  0  0  0  0  0  0  0  0  0
   -1.1951    6.6078   11.5010 C   0  0  0  0  0  0  0  0  0  0  0  0
   -2.1594    6.3460   12.4488 C   0  0  0  0  0  0  0  0  0  0  0  0
   -1.8589    6.4832   13.7974 C   0  0  0  0  0  0  0  0  0  0  0  0
   -0.6019    6.8809   14.2304 C   0  0  0  0  0  0  0  0  0  0  0  0
 71 72  1  0  0  0
 72 69  1  0  0  0
 69 70  1  0  0  0
 69 44  1  0  0  0
 44 45  1  0  0  0
 45 46  1  0  0  0
 46 47  2  0  0  0
 46 49  1  0  0  0
 49 62  1  0  0  0
 62 63  1  0  0  0
 63 64  2  0  0  0
 64 65  1  0  0  0
 65 66  2  0  0  0
 66 67  1  0  0  0
 67 68  2  0  0  0
 49 50  1  0  0  0
 50 51  1  0  0  0
 51 52  2  0  0  0
 51 54  1  0  0  0
 54 55  1  0  0  0
 55 56  1  0  0  0
 56 57  2  0  0  0
 57 58  1  0  0  0
 58 59  2  0  0  0
 59 60  1  0  0  0
 60 61  2  0  0  0
 44 40  1  0  0  0
 40 41  2  0  0  0
 40 42  1  0  0  0
 42  1  1  0  0  0
  1 73  1  0  0  0
 73 74  1  0  0  0
 74 75  2  0  0  0
 75 76  1  0  0  0
 76 77  2  0  0  0
 77 78  1  0  0  0
 78 79  2  0  0  0
  1  2  1  0  0  0
  2  3  2  0  0  0
  2  4  1  0  0  0
  4  6  1  0  0  0
  6 33  1  0  0  0
 33 34  1  0  0  0
 34 35  2  0  0  0
 35 36  1  0  0  0
 36 37  2  0  0  0
 37 38  1  0  0  0
 38 39  2  0  0  0
  6  7  1  0  0  0
  7  8  2  0  0  0
  7  9  1  0  0  0
  9 11  1  0  0  0
 11 28  1  0  0  0
 28 29  1  0  0  0
 29 30  1  0  0  0
 29 31  2  0  0  0
 11 12  1  0  0  0
 12 13  2  0  0  0
 12 14  1  0  0  0
 14 16  1  0  0  0
 16 21  1  0  0  0
 21 22  1  0  0  0
 22 23  2  0  0  0
 23 24  1  0  0  0
 24 25  2  0  0  0
 25 26  1  0  0  0
 26 27  2  0  0  0
 16 17  1  0  0  0
 17 18  1  0  0  0
 17 19  2  0  0  0
 68 63  1  0  0  0
 61 56  1  0  0  0
 79 74  1  0  0  0
 39 34  1  0  0  0
 27 22  1  0  0  0
 45 48  1  0  0  0
 50 53  1  0  0  0
 42 43  1  0  0  0
  4  5  1  0  0  0
  9 10  1  0  0  0
 30 32  1  0  0  0
 14 15  1  0  0  0
 18 20  1  0  0  0
M  END
> <minimizedAffinity>
-8.76530

> <CNNscore>
0.1917046010

> <CNNaffinity>
7.3004059792

> <CNN_VS>
1.3995214701

> <CNNaffinity_variance>
0.9230160713

$$$$
[H]OC(=O)C([H])([H])[C@@]([H])(C(=O)N([H])[C@]([H])(C(=O)O[H])C([H])([H])c1c([H])c([H])c([H])c([H])c1[H])N([H])C(=O)[C@@]([H])(N([H])C(=O)[C@@]([H])(N([H])C(=O)[C@@]([H])(N([H])C(=O)[C@@]([H])(N([H])C(=O)OC([H])([H])c1c([H])c([H])c([H])c([H])c1[H])C([H])([H])c1c([H])c([H])c([H])c([H])c1[H])[C@@]([H])(C([H])([H])[H])C([H])([H])C([H])([H])[H])C([H])([H])c1c([H])c([H])c([H])c([H])c1[H])C([H])([H])c1c([H])c([H])c([H])c([H])c1[H]


 79 83  0  0  0  0  0  0  0  0999 V2000
    4.5889    5.0783   21.2242 C   0  0  0  0  0  0  0  0  0  0  0  0
    5.4851    6.2404   20.9432 C   0  0  0  0  0  0  0  0  0  0  0  0
    6.3316    6.1346   20.0373 O   0  0  0  0  0  0  0  0  0  0  0  0
    5.4331    7.4694   21.6462 N   0  0  0  0  0  0  0  0  0  0  0  0
    4.7864    7.6061   22.4040 H   0  0  0  0  0  0  0  0  0  0  0  0
    6.3550    8.5511   21.2658 C   0  0  0  0  0  0  0  0  0  0  0  0
    7.5062    8.5328   22.2102 C   0  0  0  0  0  0  0  0  0  0  0  0
    8.5967    9.0681   21.9035 O   0  0  0  0  0  0  0  0  0  0  0  0
    7.3904    7.9101   23.4809 N   0  0  0  0  0  0  0  0  0  0  0  0
    6.4910    7.4731   23.7365 H   0  0  0  0  0  0  0  0  0  0  0  0
    8.5091    7.8833   24.3948 C   0  0  0  0  0  0  0  0  0  0  0  0
    9.0572    9.2317   24.6805 C   0  0  0  0  0  0  0  0  0  0  0  0
   10.3105    9.3410   24.8247 O   0  0  0  0  0  0  0  0  0  0  0  0
    8.2370   10.3692   24.7898 N   0  0  0  0  0  0  0  0  0  0  0  0
    7.1992   10.2239   24.6567 H   0  0  0  0  0  0  0  0  0  0  0  0
    8.6917   11.6953   25.0667 C   0  0  0  0  0  0  0  0  0  0  0  0
    8.0987   12.3338   26.2430 C   0  0  0  0  0  0  0  0  0  0  0  0
    7.8818   11.6214   27.3939 O   0  0  0  0  0  0  0  0  0  0  0  0
    7.7829   13.5417   26.2063 O   0  0  0  0  0  0  0  0  0  0  0  0
    7.4791   12.0234   28.2259 H   0  0  0  0  0  0  0  0  0  0  0  0
    8.5899   12.5694   23.8134 C   0  0  0  0  0  0  0  0  0  0  0  0
    9.7617   12.4564   22.9382 C   0  0  0  0  0  0  0  0  0  0  0  0
    9.6797   12.3699   21.5764 C   0  0  0  0  0  0  0  0  0  0  0  0
   10.8214   12.2776   20.7816 C   0  0  0  0  0  0  0  0  0  0  0  0
   12.0650   12.2706   21.3400 C   0  0  0  0  0  0  0  0  0  0  0  0
   12.1746   12.3555   22.7163 C   0  0  0  0  0  0  0  0  0  0  0  0
   11.0481   12.4464   23.5023 C   0  0  0  0  0  0  0  0  0  0  0  0
    9.6251    7.0052   23.8270 C   0  0  0  0  0  0  0  0  0  0  0  0
   10.2474    6.1401   24.8461 C   0  0  0  0  0  0  0  0  0  0  0  0
    9.4586    5.7363   25.9216 O   0  0  0  0  0  0  0  0  0  0  0  0
   11.4351    5.7360   24.8251 O   0  0  0  0  0  0  0  0  0  0  0  0
    9.5222    4.7562   26.2049 H   0  0  0  0  0  0  0  0  0  0  0  0
    5.6498    9.8817   21.2651 C   0  0  0  0  0  0  0  0  0  0  0  0
    6.2336   10.8845   20.3688 C   0  0  0  0  0  0  0  0  0  0  0  0
    6.1820   12.2299   20.6337 C   0  0  0  0  0  0  0  0  0  0  0  0
    6.7407   13.1709   19.7669 C   0  0  0  0  0  0  0  0  0  0  0  0
    7.3536   12.7614   18.6279 C   0  0  0  0  0  0  0  0  0  0  0  0
    7.4137   11.4167   18.3463 C   0  0  0  0  0  0  0  0  0  0  0  0
    6.8596   10.5011   19.2081 C   0  0  0  0  0  0  0  0  0  0  0  0
    3.3807    4.8832   19.0283 C   0  0  0  0  0  0  0  0  0  0  0  0
    2.6397    5.8069   19.4025 O   0  0  0  0  0  0  0  0  0  0  0  0
    4.3918    4.4473   19.9115 N   0  0  0  0  0  0  0  0  0  0  0  0
    5.0565    3.6681   19.7363 H   0  0  0  0  0  0  0  0  0  0  0  0
    3.2140    4.2676   17.7016 C   0  0  0  0  0  0  0  0  0  0  0  0
    3.5115    5.3590   16.7430 N   0  0  0  0  0  0  0  0  0  0  0  0
    2.5936    5.7602   15.7465 C   0  0  0  0  0  0  0  0  0  0  0  0
    1.4983    5.1786   15.6745 O   0  0  0  0  0  0  0  0  0  0  0  0
    4.4622    5.8306   16.8409 H   0  0  0  0  0  0  0  0  0  0  0  0
    2.9291    6.8323   14.8117 C   0  0  0  0  0  0  0  0  0  0  0  0
    3.2966    8.0923   15.4455 N   0  0  0  0  0  0  0  0  0  0  0  0
    2.9203    9.3275   14.8949 C   0  0  0  0  0  0  0  0  0  0  0  0
    2.2419    9.3702   13.8030 O   0  0  0  0  0  0  0  0  0  0  0  0
    3.8456    8.0594   16.3196 H   0  0  0  0  0  0  0  0  0  0  0  0
    3.2189   10.5414   15.4340 O   0  0  0  0  0  0  0  0  0  0  0  0
    4.2324   10.7214   16.4163 C   0  0  0  0  0  0  0  0  0  0  0  0
    3.8923   11.9092   17.2242 C   0  0  0  0  0  0  0  0  0  0  0  0
    3.1949   11.7861   18.4218 C   0  0  0  0  0  0  0  0  0  0  0  0
    2.9107   12.9235   19.1219 C   0  0  0  0  0  0  0  0  0  0  0  0
    3.3017   14.1818   18.6644 C   0  0  0  0  0  0  0  0  0  0  0  0
    3.9951   14.3154   17.4760 C   0  0  0  0  0  0  0  0  0  0  0  0
    4.2712   13.1597   16.7848 C   0  0  0  0  0  0  0  0  0  0  0  0
    4.0116    6.4683   13.8274 C   0  0  0  0  0  0  0  0  0  0  0  0
    3.5827    5.6120   12.7263 C   0  0  0  0  0  0  0  0  0  0  0  0
    4.2344    4.4516   12.4013 C   0  0  0  0  0  0  0  0  0  0  0  0
    3.8133    3.6734   11.3593 C   0  0  0  0  0  0  0  0  0  0  0  0
    2.7283    4.0244   10.6030 C   0  0  0  0  0  0  0  0  0  0  0  0
    2.0584    5.2018   10.9238 C   0  0  0  0  0  0  0  0  0  0  0  0
    2.4832    5.9893   11.9785 C   0  0  0  0  0  0  0  0  0  0  0  0
    4.3070    3.1847   17.4865 C   0  0  0  0  0  0  0  0  0  0  0  0
    3.8790    1.8495   18.0612 C   0  0  0  0  0  0  0  0  0  0  0  0
    3.3245    2.0768   15.4759 C   0  0  0  0  0  0  0  0  0  0  0  0
    4.4639    2.9138   15.9841 C   0  0  0  0  0  0  0  0  0  0  0  0
    5.1349    4.1857   22.2636 C   0  0  0  0  0  0  0  0  0  0  0  0
    4.9825    2.7457   21.9322 C   0  0  0  0  0  0  0  0  0  0  0  0
    3.7743    2.1174   22.1292 C   0  0  0  0  0  0  0  0  0  0  0  0
    3.6124    0.7845   21.8209 C   0  0  0  0  0  0  0  0  0  0  0  0
    4.6828    0.0849   21.3094 C   0  0  0  0  0  0  0  0  0  0  0  0
    5.8984    0.7266   21.1133 C   0  0  0  0  0  0  0  0  0  0  0  0
    6.0754    2.0685   21.4195 C   0  0  0  0  0  0  0  0  0  0  0  0
 71 72  1  0  0  0
 72 69  1  0  0  0
 69 70  1  0  0  0
 69 44  1  0  0  0
 44 45  1  0  0  0
 45 46  1  0  0  0
 46 47  2  0  0  0
 46 49  1  0  0  0
 49 62  1  0  0  0
 62 63  1  0  0  0
 63 64  2  0  0  0
 64 65  1  0  0  0
 65 66  2  0  0  0
 66 67  1  0  0  0
 67 68  2  0  0  0
 49 50  1  0  0  0
 50 51  1  0  0  0
 51 52  2  0  0  0
 51 54  1  0  0  0
 54 55  1  0  0  0
 55 56  1  0  0  0
 56 57  2  0  0  0
 57 58  1  0  0  0
 58 59  2  0  0  0
 59 60  1  0  0  0
 60 61  2  0  0  0
 44 40  1  0  0  0
 40 41  2  0  0  0
 40 42  1  0  0  0
 42  1  1  0  0  0
  1 73  1  0  0  0
 73 74  1  0  0  0
 74 75  2  0  0  0
 75 76  1  0  0  0
 76 77  2  0  0  0
 77 78  1  0  0  0
 78 79  2  0  0  0
  1  2  1  0  0  0
  2  3  2  0  0  0
  2  4  1  0  0  0
  4  6  1  0  0  0
  6 33  1  0  0  0
 33 34  1  0  0  0
 34 35  2  0  0  0
 35 36  1  0  0  0
 36 37  2  0  0  0
 37 38  1  0  0  0
 38 39  2  0  0  0
  6  7  1  0  0  0
  7  8  2  0  0  0
  7  9  1  0  0  0
  9 11  1  0  0  0
 11 28  1  0  0  0
 28 29  1  0  0  0
 29 30  1  0  0  0
 29 31  2  0  0  0
 11 12  1  0  0  0
 12 13  2  0  0  0
 12 14  1  0  0  0
 14 16  1  0  0  0
 16 21  1  0  0  0
 21 22  1  0  0  0
 22 23  2  0  0  0
 23 24  1  0  0  0
 24 25  2  0  0  0
 25 26  1  0  0  0
 26 27  2  0  0  0
 16 17  1  0  0  0
 17 18  1  0  0  0
 17 19  2  0  0  0
 68 63  1  0  0  0
 61 56  1  0  0  0
 79 74  1  0  0  0
 39 34  1  0  0  0
 27 22  1  0  0  0
 45 48  1  0  0  0
 50 53  1  0  0  0
 42 43  1  0  0  0
  4  5  1  0  0  0
  9 10  1  0  0  0
 30 32  1  0  0  0
 14 15  1  0  0  0
 18 20  1  0  0  0
M  END
> <minimizedAffinity>
-8.60986

> <CNNscore>
0.1723810583

> <CNNaffinity>
7.4663977623

> <CNN_VS>
1.2870655060

> <CNNaffinity_variance>
0.8629285693

$$$$
[H]OC(=O)C([H])([H])[C@@]([H])(C(=O)N([H])[C@]([H])(C(=O)O[H])C([H])([H])c1c([H])c([H])c([H])c([H])c1[H])N([H])C(=O)[C@@]([H])(N([H])C(=O)[C@@]([H])(N([H])C(=O)[C@@]([H])(N([H])C(=O)[C@@]([H])(N([H])C(=O)OC([H])([H])c1c([H])c([H])c([H])c([H])c1[H])C([H])([H])c1c([H])c([H])c([H])c([H])c1[H])[C@@]([H])(C([H])([H])[H])C([H])([H])C([H])([H])[H])C([H])([H])c1c([H])c([H])c([H])c([H])c1[H])C([H])([H])c1c([H])c([H])c([H])c([H])c1[H]


 79 83  0  0  0  0  0  0  0  0999 V2000
    2.6239    5.5534   13.7357 C   0  0  0  0  0  0  0  0  0  0  0  0
    2.9415    5.2297   15.1595 C   0  0  0  0  0  0  0  0  0  0  0  0
    2.0406    5.3396   16.0108 O   0  0  0  0  0  0  0  0  0  0  0  0
    4.2141    4.7988   15.6092 N   0  0  0  0  0  0  0  0  0  0  0  0
    4.9875    4.7138   14.9722 H   0  0  0  0  0  0  0  0  0  0  0  0
    4.4021    4.4894   17.0352 C   0  0  0  0  0  0  0  0  0  0  0  0
    5.1566    5.6120   17.6579 C   0  0  0  0  0  0  0  0  0  0  0  0
    6.4005    5.6967   17.5333 O   0  0  0  0  0  0  0  0  0  0  0  0
    4.4805    6.6129   18.4041 N   0  0  0  0  0  0  0  0  0  0  0  0
    3.4551    6.5468   18.5032 H   0  0  0  0  0  0  0  0  0  0  0  0
    5.2119    7.6979   19.0168 C   0  0  0  0  0  0  0  0  0  0  0  0
    6.0348    7.2633   20.1718 C   0  0  0  0  0  0  0  0  0  0  0  0
    7.2935    7.3524   20.0665 O   0  0  0  0  0  0  0  0  0  0  0  0
    5.4637    6.7681   21.3581 N   0  0  0  0  0  0  0  0  0  0  0  0
    4.4091    6.7184   21.3957 H   0  0  0  0  0  0  0  0  0  0  0  0
    6.1905    6.3278   22.5069 C   0  0  0  0  0  0  0  0  0  0  0  0
    7.0511    7.3326   23.1335 C   0  0  0  0  0  0  0  0  0  0  0  0
    8.2549    6.9795   23.6861 O   0  0  0  0  0  0  0  0  0  0  0  0
    6.6920    8.5284   23.1701 O   0  0  0  0  0  0  0  0  0  0  0  0
    8.8777    7.6401   24.1240 H   0  0  0  0  0  0  0  0  0  0  0  0
    6.9376    5.0263   22.2020 C   0  0  0  0  0  0  0  0  0  0  0  0
    6.0880    3.8361   22.3186 C   0  0  0  0  0  0  0  0  0  0  0  0
    6.4705    2.5930   21.8977 C   0  0  0  0  0  0  0  0  0  0  0  0
    5.6353    1.4858   22.0407 C   0  0  0  0  0  0  0  0  0  0  0  0
    4.4019    1.6073   22.6086 C   0  0  0  0  0  0  0  0  0  0  0  0
    3.9910    2.8553   23.0412 C   0  0  0  0  0  0  0  0  0  0  0  0
    4.8145    3.9494   22.9004 C   0  0  0  0  0  0  0  0  0  0  0  0
    4.2407    8.7842   19.4813 C   0  0  0  0  0  0  0  0  0  0  0  0
    3.5709    9.4703   18.3609 C   0  0  0  0  0  0  0  0  0  0  0  0
    2.4581   10.2557   18.6552 O   0  0  0  0  0  0  0  0  0  0  0  0
    3.9217    9.4042   17.1581 O   0  0  0  0  0  0  0  0  0  0  0  0
    2.3983   11.1693   18.2005 H   0  0  0  0  0  0  0  0  0  0  0  0
    5.1100    3.1716   17.2095 C   0  0  0  0  0  0  0  0  0  0  0  0
    4.2350    2.0464   17.5532 C   0  0  0  0  0  0  0  0  0  0  0  0
    4.0810    1.5982   18.8410 C   0  0  0  0  0  0  0  0  0  0  0  0
    3.2459    0.5229   19.1493 C   0  0  0  0  0  0  0  0  0  0  0  0
    2.5620   -0.1074   18.1614 C   0  0  0  0  0  0  0  0  0  0  0  0
    2.7052    0.3282   16.8650 C   0  0  0  0  0  0  0  0  0  0  0  0
    3.5306    1.3878   16.5754 C   0  0  0  0  0  0  0  0  0  0  0  0
    4.1882    6.6709   12.1159 C   0  0  0  0  0  0  0  0  0  0  0  0
    3.2521    7.4216   11.7957 O   0  0  0  0  0  0  0  0  0  0  0  0
    3.9387    5.6819   13.0916 N   0  0  0  0  0  0  0  0  0  0  0  0
    4.6211    4.9735   13.4263 H   0  0  0  0  0  0  0  0  0  0  0  0
    5.5184    6.8135   11.5018 C   0  0  0  0  0  0  0  0  0  0  0  0
    5.2657    6.7452   10.0423 N   0  0  0  0  0  0  0  0  0  0  0  0
    5.8604    5.7637    9.2180 C   0  0  0  0  0  0  0  0  0  0  0  0
    6.6191    4.9280    9.7366 O   0  0  0  0  0  0  0  0  0  0  0  0
    4.6084    7.4810    9.6396 H   0  0  0  0  0  0  0  0  0  0  0  0
    5.5961    5.7372    7.7809 C   0  0  0  0  0  0  0  0  0  0  0  0
    5.7510    7.0244    7.1150 N   0  0  0  0  0  0  0  0  0  0  0  0
    4.6509    7.7058    6.5709 C   0  0  0  0  0  0  0  0  0  0  0  0
    3.4723    7.1963    6.6446 O   0  0  0  0  0  0  0  0  0  0  0  0
    6.6976    7.4322    7.0509 H   0  0  0  0  0  0  0  0  0  0  0  0
    4.7174    8.9125    5.9443 O   0  0  0  0  0  0  0  0  0  0  0  0
    5.8810    9.7311    5.9673 C   0  0  0  0  0  0  0  0  0  0  0  0
    6.5969    9.5590    4.6878 C   0  0  0  0  0  0  0  0  0  0  0  0
    7.9223    9.9583    4.5484 C   0  0  0  0  0  0  0  0  0  0  0  0
    8.5277    9.7721    3.3386 C   0  0  0  0  0  0  0  0  0  0  0  0
    7.8513    9.1984    2.2621 C   0  0  0  0  0  0  0  0  0  0  0  0
    6.5344    8.7980    2.3897 C   0  0  0  0  0  0  0  0  0  0  0  0
    5.9416    8.9943    3.6143 C   0  0  0  0  0  0  0  0  0  0  0  0
    6.4130    4.7177    7.0280 C   0  0  0  0  0  0  0  0  0  0  0  0
    7.3666    5.2733    6.0733 C   0  0  0  0  0  0  0  0  0  0  0  0
    7.1179    5.3155    4.7267 C   0  0  0  0  0  0  0  0  0  0  0  0
    8.0339    5.8358    3.8556 C   0  0  0  0  0  0  0  0  0  0  0  0
    9.2312    6.3315    4.2950 C   0  0  0  0  0  0  0  0  0  0  0  0
    9.4950    6.2934    5.6614 C   0  0  0  0  0  0  0  0  0  0  0  0
    8.5684    5.7682    6.5436 C   0  0  0  0  0  0  0  0  0  0  0  0
    6.0750    8.2362   11.7846 C   0  0  0  0  0  0  0  0  0  0  0  0
    5.8144    8.6539   13.2176 C   0  0  0  0  0  0  0  0  0  0  0  0
    8.2368    8.6359   12.9686 C   0  0  0  0  0  0  0  0  0  0  0  0
    7.6054    8.2135   11.6725 C   0  0  0  0  0  0  0  0  0  0  0  0
    1.7279    4.5573   13.1191 C   0  0  0  0  0  0  0  0  0  0  0  0
    0.3666    5.0872   12.8498 C   0  0  0  0  0  0  0  0  0  0  0  0
    0.0026    6.3257   13.3263 C   0  0  0  0  0  0  0  0  0  0  0  0
   -1.2530    6.8364   13.0803 C   0  0  0  0  0  0  0  0  0  0  0  0
   -2.1445    6.0861   12.3461 C   0  0  0  0  0  0  0  0  0  0  0  0
   -1.7690    4.8376   11.8686 C   0  0  0  0  0  0  0  0  0  0  0  0
   -0.5077    4.3111   12.1090 C   0  0  0  0  0  0  0  0  0  0  0  0
 71 72  1  0  0  0
 72 69  1  0  0  0
 69 70  1  0  0  0
 69 44  1  0  0  0
 44 45  1  0  0  0
 45 46  1  0  0  0
 46 47  2  0  0  0
 46 49  1  0  0  0
 49 62  1  0  0  0
 62 63  1  0  0  0
 63 64  2  0  0  0
 64 65  1  0  0  0
 65 66  2  0  0  0
 66 67  1  0  0  0
 67 68  2  0  0  0
 49 50  1  0  0  0
 50 51  1  0  0  0
 51 52  2  0  0  0
 51 54  1  0  0  0
 54 55  1  0  0  0
 55 56  1  0  0  0
 56 57  2  0  0  0
 57 58  1  0  0  0
 58 59  2  0  0  0
 59 60  1  0  0  0
 60 61  2  0  0  0
 44 40  1  0  0  0
 40 41  2  0  0  0
 40 42  1  0  0  0
 42  1  1  0  0  0
  1 73  1  0  0  0
 73 74  1  0  0  0
 74 75  2  0  0  0
 75 76  1  0  0  0
 76 77  2  0  0  0
 77 78  1  0  0  0
 78 79  2  0  0  0
  1  2  1  0  0  0
  2  3  2  0  0  0
  2  4  1  0  0  0
  4  6  1  0  0  0
  6 33  1  0  0  0
 33 34  1  0  0  0
 34 35  2  0  0  0
 35 36  1  0  0  0
 36 37  2  0  0  0
 37 38  1  0  0  0
 38 39  2  0  0  0
  6  7  1  0  0  0
  7  8  2  0  0  0
  7  9  1  0  0  0
  9 11  1  0  0  0
 11 28  1  0  0  0
 28 29  1  0  0  0
 29 30  1  0  0  0
 29 31  2  0  0  0
 11 12  1  0  0  0
 12 13  2  0  0  0
 12 14  1  0  0  0
 14 16  1  0  0  0
 16 21  1  0  0  0
 21 22  1  0  0  0
 22 23  2  0  0  0
 23 24  1  0  0  0
 24 25  2  0  0  0
 25 26  1  0  0  0
 26 27  2  0  0  0
 16 17  1  0  0  0
 17 18  1  0  0  0
 17 19  2  0  0  0
 68 63  1  0  0  0
 61 56  1  0  0  0
 79 74  1  0  0  0
 39 34  1  0  0  0
 27 22  1  0  0  0
 45 48  1  0  0  0
 50 53  1  0  0  0
 42 43  1  0  0  0
  4  5  1  0  0  0
  9 10  1  0  0  0
 30 32  1  0  0  0
 14 15  1  0  0  0
 18 20  1  0  0  0
M  END
> <minimizedAffinity>
-9.28772

> <CNNscore>
0.1675917804

> <CNNaffinity>
6.9872045517

> <CNN_VS>
1.1709980965

> <CNNaffinity_variance>
0.7960439920

$$$$
[H]OC(=O)C([H])([H])[C@@]([H])(C(=O)N([H])[C@]([H])(C(=O)O[H])C([H])([H])c1c([H])c([H])c([H])c([H])c1[H])N([H])C(=O)[C@@]([H])(N([H])C(=O)[C@@]([H])(N([H])C(=O)[C@@]([H])(N([H])C(=O)[C@@]([H])(N([H])C(=O)OC([H])([H])c1c([H])c([H])c([H])c([H])c1[H])C([H])([H])c1c([H])c([H])c([H])c([H])c1[H])[C@@]([H])(C([H])([H])[H])C([H])([H])C([H])([H])[H])C([H])([H])c1c([H])c([H])c([H])c([H])c1[H])C([H])([H])c1c([H])c([H])c([H])c([H])c1[H]


 79 83  0  0  0  0  0  0  0  0999 V2000
    3.9364    5.1292   16.6730 C   0  0  0  0  0  0  0  0  0  0  0  0
    4.3985    6.3720   17.3618 C   0  0  0  0  0  0  0  0  0  0  0  0
    5.4836    6.8752   17.0184 O   0  0  0  0  0  0  0  0  0  0  0  0
    3.6740    7.0242   18.3900 N   0  0  0  0  0  0  0  0  0  0  0  0
    2.8026    6.6519   18.7263 H   0  0  0  0  0  0  0  0  0  0  0  0
    4.2213    8.2555   18.9807 C   0  0  0  0  0  0  0  0  0  0  0  0
    4.6082    7.9624   20.3884 C   0  0  0  0  0  0  0  0  0  0  0  0
    4.7446    8.8872   21.2226 O   0  0  0  0  0  0  0  0  0  0  0  0
    4.8279    6.6264   20.8157 N   0  0  0  0  0  0  0  0  0  0  0  0
    4.7111    5.8633   20.1305 H   0  0  0  0  0  0  0  0  0  0  0  0
    5.2123    6.3407   22.1788 C   0  0  0  0  0  0  0  0  0  0  0  0
    6.6462    6.6108   22.4458 C   0  0  0  0  0  0  0  0  0  0  0  0
    7.4963    5.7918   21.9876 O   0  0  0  0  0  0  0  0  0  0  0  0
    7.0766    7.7325   23.1773 N   0  0  0  0  0  0  0  0  0  0  0  0
    6.3273    8.3864   23.5334 H   0  0  0  0  0  0  0  0  0  0  0  0
    8.4361    8.0546   23.4772 C   0  0  0  0  0  0  0  0  0  0  0  0
    8.9470    7.5238   24.7422 C   0  0  0  0  0  0  0  0  0  0  0  0
    9.4066    6.2351   24.8282 O   0  0  0  0  0  0  0  0  0  0  0  0
    8.9675    8.2465   25.7607 O   0  0  0  0  0  0  0  0  0  0  0  0
    9.7687    5.8324   25.6783 H   0  0  0  0  0  0  0  0  0  0  0  0
    8.6735    9.5610   23.3368 C   0  0  0  0  0  0  0  0  0  0  0  0
    8.1221   10.1156   22.0958 C   0  0  0  0  0  0  0  0  0  0  0  0
    8.4040    9.6141   20.8557 C   0  0  0  0  0  0  0  0  0  0  0  0
    7.8461   10.1645   19.7026 C   0  0  0  0  0  0  0  0  0  0  0  0
    6.9957   11.2276   19.7743 C   0  0  0  0  0  0  0  0  0  0  0  0
    6.6959   11.7543   21.0178 C   0  0  0  0  0  0  0  0  0  0  0  0
    7.2462   11.2120   22.1571 C   0  0  0  0  0  0  0  0  0  0  0  0
    4.9142    4.8774   22.5086 C   0  0  0  0  0  0  0  0  0  0  0  0
    4.8266    4.0263   21.3076 C   0  0  0  0  0  0  0  0  0  0  0  0
    5.8921    3.1680   21.0433 O   0  0  0  0  0  0  0  0  0  0  0  0
    3.8671    4.0118   20.4993 O   0  0  0  0  0  0  0  0  0  0  0  0
    5.6627    2.2139   20.7567 H   0  0  0  0  0  0  0  0  0  0  0  0
    3.2245    9.3810   18.8946 C   0  0  0  0  0  0  0  0  0  0  0  0
    3.7363   10.6073   18.2750 C   0  0  0  0  0  0  0  0  0  0  0  0
    4.4465   10.5996   17.1008 C   0  0  0  0  0  0  0  0  0  0  0  0
    4.9292   11.7772   16.5270 C   0  0  0  0  0  0  0  0  0  0  0  0
    4.6996   12.9689   17.1336 C   0  0  0  0  0  0  0  0  0  0  0  0
    3.9902   12.9949   18.3113 C   0  0  0  0  0  0  0  0  0  0  0  0
    3.5209   11.8284   18.8654 C   0  0  0  0  0  0  0  0  0  0  0  0
    2.5465    5.7030   14.6584 C   0  0  0  0  0  0  0  0  0  0  0  0
    1.5358    5.4954   15.3496 O   0  0  0  0  0  0  0  0  0  0  0  0
    3.8093    5.5228   15.2626 N   0  0  0  0  0  0  0  0  0  0  0  0
    4.7290    5.6326   14.7916 H   0  0  0  0  0  0  0  0  0  0  0  0
    2.4302    6.1311   13.2547 C   0  0  0  0  0  0  0  0  0  0  0  0
    1.1199    5.5991   12.8090 N   0  0  0  0  0  0  0  0  0  0  0  0
    0.8630    5.2543   11.4631 C   0  0  0  0  0  0  0  0  0  0  0  0
    1.7690    5.4001   10.6258 O   0  0  0  0  0  0  0  0  0  0  0  0
    0.3717    5.4899   13.5601 H   0  0  0  0  0  0  0  0  0  0  0  0
   -0.4463    4.7448   11.0607 C   0  0  0  0  0  0  0  0  0  0  0  0
   -0.4797    3.3129   10.7906 N   0  0  0  0  0  0  0  0  0  0  0  0
   -0.3451    2.8090    9.4874 C   0  0  0  0  0  0  0  0  0  0  0  0
   -0.1956    3.6126    8.4944 O   0  0  0  0  0  0  0  0  0  0  0  0
   -0.6047    2.6669   11.5866 H   0  0  0  0  0  0  0  0  0  0  0  0
   -0.3574    1.4875    9.1607 O   0  0  0  0  0  0  0  0  0  0  0  0
    0.0273    0.4637   10.0709 C   0  0  0  0  0  0  0  0  0  0  0  0
    1.3667   -0.0228    9.6857 C   0  0  0  0  0  0  0  0  0  0  0  0
    1.5254   -1.2333    9.0185 C   0  0  0  0  0  0  0  0  0  0  0  0
    2.7911   -1.6273    8.6904 C   0  0  0  0  0  0  0  0  0  0  0  0
    3.9050   -0.8499    9.0070 C   0  0  0  0  0  0  0  0  0  0  0  0
    3.7587    0.3544    9.6696 C   0  0  0  0  0  0  0  0  0  0  0  0
    2.4775    0.7340    9.9924 C   0  0  0  0  0  0  0  0  0  0  0  0
   -1.5522    5.0650   12.0343 C   0  0  0  0  0  0  0  0  0  0  0  0
   -2.8091    5.4870   11.4245 C   0  0  0  0  0  0  0  0  0  0  0  0
   -3.9223    5.7831   12.1659 C   0  0  0  0  0  0  0  0  0  0  0  0
   -5.0883    6.1690   11.5657 C   0  0  0  0  0  0  0  0  0  0  0  0
   -5.1870    6.2724   10.2049 C   0  0  0  0  0  0  0  0  0  0  0  0
   -4.0621    5.9736    9.4411 C   0  0  0  0  0  0  0  0  0  0  0  0
   -2.8817    5.5841   10.0476 C   0  0  0  0  0  0  0  0  0  0  0  0
    2.3210    7.6794   13.1876 C   0  0  0  0  0  0  0  0  0  0  0  0
    2.7334    8.3172   14.4987 C   0  0  0  0  0  0  0  0  0  0  0  0
    4.7265    8.1851   12.7482 C   0  0  0  0  0  0  0  0  0  0  0  0
    3.3392    8.2160   12.1725 C   0  0  0  0  0  0  0  0  0  0  0  0
    4.8338    3.9844   16.9170 C   0  0  0  0  0  0  0  0  0  0  0  0
    4.1316    2.6760   16.8763 C   0  0  0  0  0  0  0  0  0  0  0  0
    4.1250    1.8628   17.9862 C   0  0  0  0  0  0  0  0  0  0  0  0
    3.4730    0.6493   17.9693 C   0  0  0  0  0  0  0  0  0  0  0  0
    2.8236    0.2588   16.8193 C   0  0  0  0  0  0  0  0  0  0  0  0
    2.8346    1.0856   15.7039 C   0  0  0  0  0  0  0  0  0  0  0  0
    3.4873    2.3102   15.7072 C   0  0  0  0  0  0  0  0  0  0  0  0
 71 72  1  0  0  0
 72 69  1  0  0  0
 69 70  1  0  0  0
 69 44  1  0  0  0
 44 45  1  0  0  0
 45 46  1  0  0  0
 46 47  2  0  0  0
 46 49  1  0  0  0
 49 62  1  0  0  0
 62 63  1  0  0  0
 63 64  2  0  0  0
 64 65  1  0  0  0
 65 66  2  0  0  0
 66 67  1  0  0  0
 67 68  2  0  0  0
 49 50  1  0  0  0
 50 51  1  0  0  0
 51 52  2  0  0  0
 51 54  1  0  0  0
 54 55  1  0  0  0
 55 56  1  0  0  0
 56 57  2  0  0  0
 57 58  1  0  0  0
 58 59  2  0  0  0
 59 60  1  0  0  0
 60 61  2  0  0  0
 44 40  1  0  0  0
 40 41  2  0  0  0
 40 42  1  0  0  0
 42  1  1  0  0  0
  1 73  1  0  0  0
 73 74  1  0  0  0
 74 75  2  0  0  0
 75 76  1  0  0  0
 76 77  2  0  0  0
 77 78  1  0  0  0
 78 79  2  0  0  0
  1  2  1  0  0  0
  2  3  2  0  0  0
  2  4  1  0  0  0
  4  6  1  0  0  0
  6 33  1  0  0  0
 33 34  1  0  0  0
 34 35  2  0  0  0
 35 36  1  0  0  0
 36 37  2  0  0  0
 37 38  1  0  0  0
 38 39  2  0  0  0
  6  7  1  0  0  0
  7  8  2  0  0  0
  7  9  1  0  0  0
  9 11  1  0  0  0
 11 28  1  0  0  0
 28 29  1  0  0  0
 29 30  1  0  0  0
 29 31  2  0  0  0
 11 12  1  0  0  0
 12 13  2  0  0  0
 12 14  1  0  0  0
 14 16  1  0  0  0
 16 21  1  0  0  0
 21 22  1  0  0  0
 22 23  2  0  0  0
 23 24  1  0  0  0
 24 25  2  0  0  0
 25 26  1  0  0  0
 26 27  2  0  0  0
 16 17  1  0  0  0
 17 18  1  0  0  0
 17 19  2  0  0  0
 68 63  1  0  0  0
 61 56  1  0  0  0
 79 74  1  0  0  0
 39 34  1  0  0  0
 27 22  1  0  0  0
 45 48  1  0  0  0
 50 53  1  0  0  0
 42 43  1  0  0  0
  4  5  1  0  0  0
  9 10  1  0  0  0
 30 32  1  0  0  0
 14 15  1  0  0  0
 18 20  1  0  0  0
M  END
> <minimizedAffinity>
-8.94281

> <CNNscore>
0.1389790028

> <CNNaffinity>
7.1647849083

> <CNN_VS>
0.9957546592

> <CNNaffinity_variance>
0.9872371554

$$$$
[H]OC(=O)C([H])([H])[C@@]([H])(C(=O)N([H])[C@]([H])(C(=O)O[H])C([H])([H])c1c([H])c([H])c([H])c([H])c1[H])N([H])C(=O)[C@@]([H])(N([H])C(=O)[C@@]([H])(N([H])C(=O)[C@@]([H])(N([H])C(=O)[C@@]([H])(N([H])C(=O)OC([H])([H])c1c([H])c([H])c([H])c([H])c1[H])C([H])([H])c1c([H])c([H])c([H])c([H])c1[H])[C@@]([H])(C([H])([H])[H])C([H])([H])C([H])([H])[H])C([H])([H])c1c([H])c([H])c([H])c([H])c1[H])C([H])([H])c1c([H])c([H])c([H])c([H])c1[H]


 79 83  0  0  0  0  0  0  0  0999 V2000
    2.9522    6.4379   13.6145 C   0  0  0  0  0  0  0  0  0  0  0  0
    3.2552    5.8292   14.9451 C   0  0  0  0  0  0  0  0  0  0  0  0
    2.3327    5.2768   15.5715 O   0  0  0  0  0  0  0  0  0  0  0  0
    4.5379    5.8374   15.5467 N   0  0  0  0  0  0  0  0  0  0  0  0
    5.3172    6.2892   15.0996 H   0  0  0  0  0  0  0  0  0  0  0  0
    4.7195    5.1870   16.8538 C   0  0  0  0  0  0  0  0  0  0  0  0
    5.5112    6.1024   17.7213 C   0  0  0  0  0  0  0  0  0  0  0  0
    6.6996    5.8382   18.0175 O   0  0  0  0  0  0  0  0  0  0  0  0
    4.9356    7.2969   18.2290 N   0  0  0  0  0  0  0  0  0  0  0  0
    3.9582    7.5180   17.9816 H   0  0  0  0  0  0  0  0  0  0  0  0
    5.6992    8.1817   19.0784 C   0  0  0  0  0  0  0  0  0  0  0  0
    5.7471    7.7314   20.4910 C   0  0  0  0  0  0  0  0  0  0  0  0
    4.9351    8.2595   21.3066 O   0  0  0  0  0  0  0  0  0  0  0  0
    6.6510    6.7504   20.9373 N   0  0  0  0  0  0  0  0  0  0  0  0
    7.3036    6.3390   20.2157 H   0  0  0  0  0  0  0  0  0  0  0  0
    6.7578    6.2711   22.2793 C   0  0  0  0  0  0  0  0  0  0  0  0
    7.5180    7.1228   23.1957 C   0  0  0  0  0  0  0  0  0  0  0  0
    6.8900    7.7989   24.2095 O   0  0  0  0  0  0  0  0  0  0  0  0
    8.7539    7.2412   23.0593 O   0  0  0  0  0  0  0  0  0  0  0  0
    7.3763    8.3924   24.8631 H   0  0  0  0  0  0  0  0  0  0  0  0
    7.2432    4.8188   22.2925 C   0  0  0  0  0  0  0  0  0  0  0  0
    6.1448    3.8470   22.3249 C   0  0  0  0  0  0  0  0  0  0  0  0
    4.8753    4.1576   22.7256 C   0  0  0  0  0  0  0  0  0  0  0  0
    3.8576    3.2047   22.7275 C   0  0  0  0  0  0  0  0  0  0  0  0
    4.0965    1.9237   22.3271 C   0  0  0  0  0  0  0  0  0  0  0  0
    5.3736    1.5838   21.9184 C   0  0  0  0  0  0  0  0  0  0  0  0
    6.3795    2.5237   21.9164 C   0  0  0  0  0  0  0  0  0  0  0  0
    5.1083    9.5914   19.0277 C   0  0  0  0  0  0  0  0  0  0  0  0
    3.7482    9.6217   18.4590 C   0  0  0  0  0  0  0  0  0  0  0  0
    2.7035    9.1546   19.2541 O   0  0  0  0  0  0  0  0  0  0  0  0
    3.4524   10.0350   17.3118 O   0  0  0  0  0  0  0  0  0  0  0  0
    1.8447    9.7089   19.2694 H   0  0  0  0  0  0  0  0  0  0  0  0
    5.3851    3.8452   16.6976 C   0  0  0  0  0  0  0  0  0  0  0  0
    4.5254    2.6958   16.9969 C   0  0  0  0  0  0  0  0  0  0  0  0
    3.7383    2.0959   16.0463 C   0  0  0  0  0  0  0  0  0  0  0  0
    2.9231    1.0041   16.3503 C   0  0  0  0  0  0  0  0  0  0  0  0
    2.8960    0.5113   17.6141 C   0  0  0  0  0  0  0  0  0  0  0  0
    3.6780    1.1009   18.5795 C   0  0  0  0  0  0  0  0  0  0  0  0
    4.4757    2.1751   18.2667 C   0  0  0  0  0  0  0  0  0  0  0  0
    3.1344    4.8505   11.6738 C   0  0  0  0  0  0  0  0  0  0  0  0
    4.1838    5.4315   11.3521 O   0  0  0  0  0  0  0  0  0  0  0  0
    2.4419    5.3176   12.8116 N   0  0  0  0  0  0  0  0  0  0  0  0
    1.5414    4.9435   13.1703 H   0  0  0  0  0  0  0  0  0  0  0  0
    2.6329    3.7054   10.8965 C   0  0  0  0  0  0  0  0  0  0  0  0
    1.5789    4.2782   10.0249 N   0  0  0  0  0  0  0  0  0  0  0  0
    0.2038    4.1693   10.3313 C   0  0  0  0  0  0  0  0  0  0  0  0
   -0.1316    3.5747   11.3691 O   0  0  0  0  0  0  0  0  0  0  0  0
    1.9111    4.7799    9.1453 H   0  0  0  0  0  0  0  0  0  0  0  0
   -0.8060    4.7365    9.4400 C   0  0  0  0  0  0  0  0  0  0  0  0
   -0.3344    5.0049    8.0872 N   0  0  0  0  0  0  0  0  0  0  0  0
   -0.0315    6.3076    7.6610 C   0  0  0  0  0  0  0  0  0  0  0  0
   -0.1737    7.3016    8.4647 O   0  0  0  0  0  0  0  0  0  0  0  0
   -0.2246    4.2081    7.4395 H   0  0  0  0  0  0  0  0  0  0  0  0
    0.4209    6.6328    6.4188 O   0  0  0  0  0  0  0  0  0  0  0  0
    1.5339    5.9888    5.8097 C   0  0  0  0  0  0  0  0  0  0  0  0
    2.6397    6.9620    5.7135 C   0  0  0  0  0  0  0  0  0  0  0  0
    3.8907    6.5812    5.2384 C   0  0  0  0  0  0  0  0  0  0  0  0
    4.8717    7.5290    5.1744 C   0  0  0  0  0  0  0  0  0  0  0  0
    4.6432    8.8470    5.5694 C   0  0  0  0  0  0  0  0  0  0  0  0
    3.4040    9.2361    6.0428 C   0  0  0  0  0  0  0  0  0  0  0  0
    2.4296    8.2683    6.1009 C   0  0  0  0  0  0  0  0  0  0  0  0
   -2.0667    3.9153    9.3436 C   0  0  0  0  0  0  0  0  0  0  0  0
   -3.2577    4.5437    9.9060 C   0  0  0  0  0  0  0  0  0  0  0  0
   -3.7889    5.6990    9.3961 C   0  0  0  0  0  0  0  0  0  0  0  0
   -4.9019    6.2684    9.9490 C   0  0  0  0  0  0  0  0  0  0  0  0
   -5.5247    5.7077   11.0306 C   0  0  0  0  0  0  0  0  0  0  0  0
   -4.9935    4.5337   11.5575 C   0  0  0  0  0  0  0  0  0  0  0  0
   -3.8681    3.9563   10.9982 C   0  0  0  0  0  0  0  0  0  0  0  0
    3.7503    3.1861    9.9502 C   0  0  0  0  0  0  0  0  0  0  0  0
    3.6660    1.6837    9.7721 C   0  0  0  0  0  0  0  0  0  0  0  0
    3.8425    2.7080    7.5011 C   0  0  0  0  0  0  0  0  0  0  0  0
    3.5204    3.7449    8.5395 C   0  0  0  0  0  0  0  0  0  0  0  0
    2.0382    7.5907   13.7187 C   0  0  0  0  0  0  0  0  0  0  0  0
    0.6259    7.2423   13.4177 C   0  0  0  0  0  0  0  0  0  0  0  0
    0.1658    7.2891   12.1218 C   0  0  0  0  0  0  0  0  0  0  0  0
   -1.1388    6.9625   11.8228 C   0  0  0  0  0  0  0  0  0  0  0  0
   -1.9814    6.5857   12.8450 C   0  0  0  0  0  0  0  0  0  0  0  0
   -1.5090    6.5406   14.1498 C   0  0  0  0  0  0  0  0  0  0  0  0
   -0.1975    6.8670   14.4650 C   0  0  0  0  0  0  0  0  0  0  0  0
 71 72  1  0  0  0
 72 69  1  0  0  0
 69 70  1  0  0  0
 69 44  1  0  0  0
 44 45  1  0  0  0
 45 46  1  0  0  0
 46 47  2  0  0  0
 46 49  1  0  0  0
 49 62  1  0  0  0
 62 63  1  0  0  0
 63 64  2  0  0  0
 64 65  1  0  0  0
 65 66  2  0  0  0
 66 67  1  0  0  0
 67 68  2  0  0  0
 49 50  1  0  0  0
 50 51  1  0  0  0
 51 52  2  0  0  0
 51 54  1  0  0  0
 54 55  1  0  0  0
 55 56  1  0  0  0
 56 57  2  0  0  0
 57 58  1  0  0  0
 58 59  2  0  0  0
 59 60  1  0  0  0
 60 61  2  0  0  0
 44 40  1  0  0  0
 40 41  2  0  0  0
 40 42  1  0  0  0
 42  1  1  0  0  0
  1 73  1  0  0  0
 73 74  1  0  0  0
 74 75  2  0  0  0
 75 76  1  0  0  0
 76 77  2  0  0  0
 77 78  1  0  0  0
 78 79  2  0  0  0
  1  2  1  0  0  0
  2  3  2  0  0  0
  2  4  1  0  0  0
  4  6  1  0  0  0
  6 33  1  0  0  0
 33 34  1  0  0  0
 34 35  2  0  0  0
 35 36  1  0  0  0
 36 37  2  0  0  0
 37 38  1  0  0  0
 38 39  2  0  0  0
  6  7  1  0  0  0
  7  8  2  0  0  0
  7  9  1  0  0  0
  9 11  1  0  0  0
 11 28  1  0  0  0
 28 29  1  0  0  0
 29 30  1  0  0  0
 29 31  2  0  0  0
 11 12  1  0  0  0
 12 13  2  0  0  0
 12 14  1  0  0  0
 14 16  1  0  0  0
 16 21  1  0  0  0
 21 22  1  0  0  0
 22 23  2  0  0  0
 23 24  1  0  0  0
 24 25  2  0  0  0
 25 26  1  0  0  0
 26 27  2  0  0  0
 16 17  1  0  0  0
 17 18  1  0  0  0
 17 19  2  0  0  0
 68 63  1  0  0  0
 61 56  1  0  0  0
 79 74  1  0  0  0
 39 34  1  0  0  0
 27 22  1  0  0  0
 45 48  1  0  0  0
 50 53  1  0  0  0
 42 43  1  0  0  0
  4  5  1  0  0  0
  9 10  1  0  0  0
 30 32  1  0  0  0
 14 15  1  0  0  0
 18 20  1  0  0  0
M  END
> <minimizedAffinity>
-8.74145

> <CNNscore>
0.1339617074

> <CNNaffinity>
6.9960656166

> <CNN_VS>
0.9372048974

> <CNNaffinity_variance>
1.4225566387

$$$$
[H]OC(=O)C([H])([H])[C@@]([H])(C(=O)N([H])[C@]([H])(C(=O)O[H])C([H])([H])c1c([H])c([H])c([H])c([H])c1[H])N([H])C(=O)[C@@]([H])(N([H])C(=O)[C@@]([H])(N([H])C(=O)[C@@]([H])(N([H])C(=O)[C@@]([H])(N([H])C(=O)OC([H])([H])c1c([H])c([H])c([H])c([H])c1[H])C([H])([H])c1c([H])c([H])c([H])c([H])c1[H])[C@@]([H])(C([H])([H])[H])C([H])([H])C([H])([H])[H])C([H])([H])c1c([H])c([H])c([H])c([H])c1[H])C([H])([H])c1c([H])c([H])c([H])c([H])c1[H]


 79 83  0  0  0  0  0  0  0  0999 V2000
    2.5511    3.1971   15.6180 C   0  0  0  0  0  0  0  0  0  0  0  0
    3.0009    4.2929   16.5287 C   0  0  0  0  0  0  0  0  0  0  0  0
    2.1784    4.7817   17.3244 O   0  0  0  0  0  0  0  0  0  0  0  0
    4.3172    4.8168   16.5484 N   0  0  0  0  0  0  0  0  0  0  0  0
    5.0191    4.4786   15.9127 H   0  0  0  0  0  0  0  0  0  0  0  0
    4.6485    5.8839   17.5055 C   0  0  0  0  0  0  0  0  0  0  0  0
    5.0495    7.0920   16.7327 C   0  0  0  0  0  0  0  0  0  0  0  0
    6.0467    7.7699   17.0730 O   0  0  0  0  0  0  0  0  0  0  0  0
    4.3108    7.4991   15.5907 N   0  0  0  0  0  0  0  0  0  0  0  0
    3.4919    6.9385   15.3066 H   0  0  0  0  0  0  0  0  0  0  0  0
    4.6928    8.6762   14.8450 C   0  0  0  0  0  0  0  0  0  0  0  0
    3.8168    9.8427   15.1136 C   0  0  0  0  0  0  0  0  0  0  0  0
    2.7705    9.9690   14.4116 O   0  0  0  0  0  0  0  0  0  0  0  0
    4.1112   10.7907   16.1102 N   0  0  0  0  0  0  0  0  0  0  0  0
    4.9937   10.6363   16.6701 H   0  0  0  0  0  0  0  0  0  0  0  0
    3.3194   11.9385   16.4220 C   0  0  0  0  0  0  0  0  0  0  0  0
    3.9721   13.2321   16.2131 C   0  0  0  0  0  0  0  0  0  0  0  0
    3.2312   14.3741   16.0512 O   0  0  0  0  0  0  0  0  0  0  0  0
    5.2185   13.3054   16.1798 O   0  0  0  0  0  0  0  0  0  0  0  0
    3.6410   15.2838   15.9080 H   0  0  0  0  0  0  0  0  0  0  0  0
    2.7150   11.8082   17.8231 C   0  0  0  0  0  0  0  0  0  0  0  0
    3.5644   11.0474   18.7459 C   0  0  0  0  0  0  0  0  0  0  0  0
    4.5950   11.6020   19.4523 C   0  0  0  0  0  0  0  0  0  0  0  0
    5.3687   10.8436   20.3298 C   0  0  0  0  0  0  0  0  0  0  0  0
    5.1213    9.5156   20.5135 C   0  0  0  0  0  0  0  0  0  0  0  0
    4.0845    8.9305   19.8089 C   0  0  0  0  0  0  0  0  0  0  0  0
    3.3200    9.6781   18.9419 C   0  0  0  0  0  0  0  0  0  0  0  0
    4.6694    8.3739   13.3460 C   0  0  0  0  0  0  0  0  0  0  0  0
    5.9417    8.7009   12.6762 C   0  0  0  0  0  0  0  0  0  0  0  0
    5.9931    8.5790   11.2890 O   0  0  0  0  0  0  0  0  0  0  0  0
    6.9877    9.0812   13.2555 O   0  0  0  0  0  0  0  0  0  0  0  0
    6.4514    9.3317   10.7711 H   0  0  0  0  0  0  0  0  0  0  0  0
    5.7308    5.4379   18.4528 C   0  0  0  0  0  0  0  0  0  0  0  0
    5.3507    5.4530   19.8688 C   0  0  0  0  0  0  0  0  0  0  0  0
    4.1037    5.0782   20.3019 C   0  0  0  0  0  0  0  0  0  0  0  0
    3.7583    5.1021   21.6544 C   0  0  0  0  0  0  0  0  0  0  0  0
    4.6672    5.5047   22.5777 C   0  0  0  0  0  0  0  0  0  0  0  0
    5.9215    5.8846   22.1611 C   0  0  0  0  0  0  0  0  0  0  0  0
    6.2483    5.8564   20.8268 C   0  0  0  0  0  0  0  0  0  0  0  0
    1.5216    3.4899   13.3432 C   0  0  0  0  0  0  0  0  0  0  0  0
    0.6839    2.6290   13.6585 O   0  0  0  0  0  0  0  0  0  0  0  0
    2.5156    3.8228   14.2885 N   0  0  0  0  0  0  0  0  0  0  0  0
    3.2899    4.5001   14.1424 H   0  0  0  0  0  0  0  0  0  0  0  0
    1.4743    4.1477   12.0272 C   0  0  0  0  0  0  0  0  0  0  0  0
    0.0282    4.2927   11.7336 N   0  0  0  0  0  0  0  0  0  0  0  0
   -0.5149    4.0175   10.4584 C   0  0  0  0  0  0  0  0  0  0  0  0
    0.2473    3.6383    9.5538 O   0  0  0  0  0  0  0  0  0  0  0  0
   -0.5890    4.6199   12.5383 H   0  0  0  0  0  0  0  0  0  0  0  0
   -1.9445    4.1848   10.2050 C   0  0  0  0  0  0  0  0  0  0  0  0
   -2.6191    2.9807    9.7365 N   0  0  0  0  0  0  0  0  0  0  0  0
   -2.9581    2.8085    8.3852 C   0  0  0  0  0  0  0  0  0  0  0  0
   -2.6826    3.7254    7.5264 O   0  0  0  0  0  0  0  0  0  0  0  0
   -2.8452    2.2460   10.4260 H   0  0  0  0  0  0  0  0  0  0  0  0
   -3.5792    1.7101    7.8743 O   0  0  0  0  0  0  0  0  0  0  0  0
   -4.5487    1.7849    6.8355 C   0  0  0  0  0  0  0  0  0  0  0  0
   -5.7999    2.3240    7.4040 C   0  0  0  0  0  0  0  0  0  0  0  0
   -6.4285    1.6981    8.4759 C   0  0  0  0  0  0  0  0  0  0  0  0
   -7.5835    2.2467    8.9553 C   0  0  0  0  0  0  0  0  0  0  0  0
   -8.1314    3.4022    8.3985 C   0  0  0  0  0  0  0  0  0  0  0  0
   -7.5150    4.0320    7.3335 C   0  0  0  0  0  0  0  0  0  0  0  0
   -6.3542    3.4649    6.8640 C   0  0  0  0  0  0  0  0  0  0  0  0
   -2.7146    4.7267   11.3825 C   0  0  0  0  0  0  0  0  0  0  0  0
   -4.1050    5.0722   11.1050 C   0  0  0  0  0  0  0  0  0  0  0  0
   -5.1548    4.4532   11.7308 C   0  0  0  0  0  0  0  0  0  0  0  0
   -6.4474    4.7936   11.4446 C   0  0  0  0  0  0  0  0  0  0  0  0
   -6.7403    5.7621   10.5236 C   0  0  0  0  0  0  0  0  0  0  0  0
   -5.6815    6.3978    9.8809 C   0  0  0  0  0  0  0  0  0  0  0  0
   -4.3733    6.0548   10.1706 C   0  0  0  0  0  0  0  0  0  0  0  0
    2.0453    5.5880   12.1417 C   0  0  0  0  0  0  0  0  0  0  0  0
    2.4769    6.1177   10.7893 C   0  0  0  0  0  0  0  0  0  0  0  0
    1.0820    7.8802   11.9118 C   0  0  0  0  0  0  0  0  0  0  0  0
    0.9271    6.5435   12.5797 C   0  0  0  0  0  0  0  0  0  0  0  0
    3.4059    1.9991   15.7149 C   0  0  0  0  0  0  0  0  0  0  0  0
    3.3565    1.3561   17.0531 C   0  0  0  0  0  0  0  0  0  0  0  0
    4.1887    1.7921   18.0583 C   0  0  0  0  0  0  0  0  0  0  0  0
    4.1518    1.2126   19.3076 C   0  0  0  0  0  0  0  0  0  0  0  0
    3.2649    0.1846   19.5383 C   0  0  0  0  0  0  0  0  0  0  0  0
    2.4283   -0.2491   18.5186 C   0  0  0  0  0  0  0  0  0  0  0  0
    2.4549    0.3256   17.2558 C   0  0  0  0  0  0  0  0  0  0  0  0
 71 72  1  0  0  0
 72 69  1  0  0  0
 69 70  1  0  0  0
 69 44  1  0  0  0
 44 45  1  0  0  0
 45 46  1  0  0  0
 46 47  2  0  0  0
 46 49  1  0  0  0
 49 62  1  0  0  0
 62 63  1  0  0  0
 63 64  2  0  0  0
 64 65  1  0  0  0
 65 66  2  0  0  0
 66 67  1  0  0  0
 67 68  2  0  0  0
 49 50  1  0  0  0
 50 51  1  0  0  0
 51 52  2  0  0  0
 51 54  1  0  0  0
 54 55  1  0  0  0
 55 56  1  0  0  0
 56 57  2  0  0  0
 57 58  1  0  0  0
 58 59  2  0  0  0
 59 60  1  0  0  0
 60 61  2  0  0  0
 44 40  1  0  0  0
 40 41  2  0  0  0
 40 42  1  0  0  0
 42  1  1  0  0  0
  1 73  1  0  0  0
 73 74  1  0  0  0
 74 75  2  0  0  0
 75 76  1  0  0  0
 76 77  2  0  0  0
 77 78  1  0  0  0
 78 79  2  0  0  0
  1  2  1  0  0  0
  2  3  2  0  0  0
  2  4  1  0  0  0
  4  6  1  0  0  0
  6 33  1  0  0  0
 33 34  1  0  0  0
 34 35  2  0  0  0
 35 36  1  0  0  0
 36 37  2  0  0  0
 37 38  1  0  0  0
 38 39  2  0  0  0
  6  7  1  0  0  0
  7  8  2  0  0  0
  7  9  1  0  0  0
  9 11  1  0  0  0
 11 28  1  0  0  0
 28 29  1  0  0  0
 29 30  1  0  0  0
 29 31  2  0  0  0
 11 12  1  0  0  0
 12 13  2  0  0  0
 12 14  1  0  0  0
 14 16  1  0  0  0
 16 21  1  0  0  0
 21 22  1  0  0  0
 22 23  2  0  0  0
 23 24  1  0  0  0
 24 25  2  0  0  0
 25 26  1  0  0  0
 26 27  2  0  0  0
 16 17  1  0  0  0
 17 18  1  0  0  0
 17 19  2  0  0  0
 68 63  1  0  0  0
 61 56  1  0  0  0
 79 74  1  0  0  0
 39 34  1  0  0  0
 27 22  1  0  0  0
 45 48  1  0  0  0
 50 53  1  0  0  0
 42 43  1  0  0  0
  4  5  1  0  0  0
  9 10  1  0  0  0
 30 32  1  0  0  0
 14 15  1  0  0  0
 18 20  1  0  0  0
M  END
> <minimizedAffinity>
-9.42123

> <CNNscore>
0.1317252070

> <CNNaffinity>
7.1746606827

> <CNN_VS>
0.9450836778

> <CNNaffinity_variance>
0.9605991244

$$$$
[H]OC1([H])OC(=O)C([H])([H])[C@]1([H])N([H])C(=O)[C@@]1([H])N2C(=O)[C@@]([H])(N([H])C(=O)c3nc([H])c([H])c4c([H])c([H])c([H])c([H])c34)C([H])([H])C([H])([H])C([H])([H])C([H])([H])[C@@]2([H])C([H])([H])OC1([H])[H]


 39 43  0  0  0  0  0  0  0  0999 V2000
    4.3542    4.8802   21.1085 C   0  0  0  0  0  0  0  0  0  0  0  0
    3.6928    5.1621   22.4624 C   0  0  0  0  0  0  0  0  0  0  0  0
    4.2507    4.4737   23.4962 O   0  0  0  0  0  0  0  0  0  0  0  0
    4.6909    3.2095   23.2614 C   0  0  0  0  0  0  0  0  0  0  0  0
    4.1762    2.5685   21.9833 C   0  0  0  0  0  0  0  0  0  0  0  0
    5.0791    1.4153   21.6837 C   0  0  0  0  0  0  0  0  0  0  0  0
    4.3832    0.1990   21.1640 C   0  0  0  0  0  0  0  0  0  0  0  0
    3.5921    0.4071   19.9229 C   0  0  0  0  0  0  0  0  0  0  0  0
    4.3667    1.0613   18.8030 C   0  0  0  0  0  0  0  0  0  0  0  0
    3.6469    2.3714   18.4923 C   0  0  0  0  0  0  0  0  0  0  0  0
    4.1370    3.3740   19.4629 C   0  0  0  0  0  0  0  0  0  0  0  0
    4.6252    4.4324   18.9402 O   0  0  0  0  0  0  0  0  0  0  0  0
    4.2141    3.4826   20.8705 N   0  0  0  0  0  0  0  0  0  0  0  0
    6.1024    6.6148   20.6326 N   0  0  0  0  0  0  0  0  0  0  0  0
    5.7617    5.3517   21.1591 C   0  0  0  0  0  0  0  0  0  0  0  0
    6.6129    4.5764   21.6870 O   0  0  0  0  0  0  0  0  0  0  0  0
    5.3682    7.2100   20.2116 H   0  0  0  0  0  0  0  0  0  0  0  0
    6.1752    8.8806   21.6178 O   0  0  0  0  0  0  0  0  0  0  0  0
    7.4351    8.5856   21.0477 C   0  0  0  0  0  0  0  0  0  0  0  0
    7.5020    9.2998   19.8396 O   0  0  0  0  0  0  0  0  0  0  0  0
    7.9233    8.5010   18.8035 C   0  0  0  0  0  0  0  0  0  0  0  0
    8.1315    8.8441   17.5960 O   0  0  0  0  0  0  0  0  0  0  0  0
    8.1044    7.1434   19.3135 C   0  0  0  0  0  0  0  0  0  0  0  0
    7.4548    7.1215   20.6565 C   0  0  0  0  0  0  0  0  0  0  0  0
    5.9130    9.7819   21.3437 H   0  0  0  0  0  0  0  0  0  0  0  0
    3.9309    2.8030   17.1315 N   0  0  0  0  0  0  0  0  0  0  0  0
    3.0173    2.6501   16.0997 C   0  0  0  0  0  0  0  0  0  0  0  0
    1.8973    2.0732   16.4649 O   0  0  0  0  0  0  0  0  0  0  0  0
    4.8815    3.2090   16.9523 H   0  0  0  0  0  0  0  0  0  0  0  0
    3.0680    2.9923   14.7067 C   0  0  0  0  0  0  0  0  0  0  0  0
    2.8102    1.9995   13.7790 N   0  0  0  0  0  0  0  0  0  0  0  0
    2.8164    2.1949   12.4663 C   0  0  0  0  0  0  0  0  0  0  0  0
    3.0858    3.4270   11.9338 C   0  0  0  0  0  0  0  0  0  0  0  0
    3.3514    4.4721   12.8088 C   0  0  0  0  0  0  0  0  0  0  0  0
    3.5987    5.7308   12.3332 C   0  0  0  0  0  0  0  0  0  0  0  0
    3.8319    6.7800   13.1788 C   0  0  0  0  0  0  0  0  0  0  0  0
    3.8198    6.5812   14.5371 C   0  0  0  0  0  0  0  0  0  0  0  0
    3.5715    5.3114   15.0273 C   0  0  0  0  0  0  0  0  0  0  0  0
    3.3359    4.2316   14.1916 C   0  0  0  0  0  0  0  0  0  0  0  0
 18 19  1  0  0  0
 19 20  1  0  0  0
 20 21  1  0  0  0
 21 22  2  0  0  0
 21 23  1  0  0  0
 23 24  1  0  0  0
 24 14  1  0  0  0
 14 15  1  0  0  0
 15 16  2  0  0  0
 15  1  1  0  0  0
  1  2  1  0  0  0
  2  3  1  0  0  0
  3  4  1  0  0  0
  4  5  1  0  0  0
  5  6  1  0  0  0
  6  7  1  0  0  0
  7  8  1  0  0  0
  8  9  1  0  0  0
  9 10  1  0  0  0
 10 26  1  0  0  0
 26 27  1  0  0  0
 27 28  2  0  0  0
 27 30  1  0  0  0
 30 31  2  0  0  0
 31 32  1  0  0  0
 32 33  2  0  0  0
 33 34  1  0  0  0
 34 35  2  0  0  0
 35 36  1  0  0  0
 36 37  2  0  0  0
 37 38  1  0  0  0
 38 39  2  0  0  0
 10 11  1  0  0  0
 11 12  2  0  0  0
 11 13  1  0  0  0
 24 19  1  0  0  0
 13  1  1  0  0  0
 13  5  1  0  0  0
 39 30  1  0  0  0
 39 34  1  0  0  0
 18 25  1  0  0  0
 14 17  1  0  0  0
 26 29  1  0  0  0
M  END
> <minimizedAffinity>
-9.53106

> <CNNscore>
0.4219736755

> <CNNaffinity>
6.5709724426

> <CNN_VS>
2.7727773190

> <CNNaffinity_variance>
0.1492274702

$$$$
[H]OC1([H])OC(=O)C([H])([H])[C@]1([H])N([H])C(=O)[C@@]1([H])N2C(=O)[C@@]([H])(N([H])C(=O)c3nc([H])c([H])c4c([H])c([H])c([H])c([H])c34)C([H])([H])C([H])([H])C([H])([H])C([H])([H])[C@@]2([H])C([H])([H])OC1([H])[H]


 39 43  0  0  0  0  0  0  0  0999 V2000
    5.0137    4.0163   10.7814 C   0  0  0  0  0  0  0  0  0  0  0  0
    5.4880    3.4048    9.4580 C   0  0  0  0  0  0  0  0  0  0  0  0
    4.6355    3.6237    8.4192 O   0  0  0  0  0  0  0  0  0  0  0  0
    3.3004    3.6177    8.6730 C   0  0  0  0  0  0  0  0  0  0  0  0
    2.8934    2.9990   10.0000 C   0  0  0  0  0  0  0  0  0  0  0  0
    1.5038    3.4689   10.2884 C   0  0  0  0  0  0  0  0  0  0  0  0
    0.6092    2.4333   10.8892 C   0  0  0  0  0  0  0  0  0  0  0  0
    1.0940    1.8447   12.1651 C   0  0  0  0  0  0  0  0  0  0  0  0
    1.4561    2.8682   13.2156 C   0  0  0  0  0  0  0  0  0  0  0  0
    2.9381    2.6637   13.5202 C   0  0  0  0  0  0  0  0  0  0  0  0
    3.6972    3.4035   12.4887 C   0  0  0  0  0  0  0  0  0  0  0  0
    4.5293    4.2584   12.9452 O   0  0  0  0  0  0  0  0  0  0  0  0
    3.7534    3.4210   11.0760 N   0  0  0  0  0  0  0  0  0  0  0  0
    3.7357    6.1484   10.4460 N   0  0  0  0  0  0  0  0  0  0  0  0
    4.9704    5.4936   10.6344 C   0  0  0  0  0  0  0  0  0  0  0  0
    6.0742    6.1127   10.6867 O   0  0  0  0  0  0  0  0  0  0  0  0
    2.8620    5.5954   10.4106 H   0  0  0  0  0  0  0  0  0  0  0  0
    1.7417    7.0183   11.6193 O   0  0  0  0  0  0  0  0  0  0  0  0
    2.2957    8.0495   10.8261 C   0  0  0  0  0  0  0  0  0  0  0  0
    1.4678    8.1716    9.6975 O   0  0  0  0  0  0  0  0  0  0  0  0
    2.2001    8.1998    8.5348 C   0  0  0  0  0  0  0  0  0  0  0  0
    1.7644    8.3450    7.3481 O   0  0  0  0  0  0  0  0  0  0  0  0
    3.6113    8.0315    8.8757 C   0  0  0  0  0  0  0  0  0  0  0  0
    3.6372    7.5818   10.2981 C   0  0  0  0  0  0  0  0  0  0  0  0
    0.7740    7.0041   11.4794 H   0  0  0  0  0  0  0  0  0  0  0  0
    3.2638    3.1669   14.8466 N   0  0  0  0  0  0  0  0  0  0  0  0
    3.3957    2.3305   15.9448 C   0  0  0  0  0  0  0  0  0  0  0  0
    3.1857    1.0643   15.6745 O   0  0  0  0  0  0  0  0  0  0  0  0
    3.3623    4.2065   14.9476 H   0  0  0  0  0  0  0  0  0  0  0  0
    3.7070    2.5876   17.3222 C   0  0  0  0  0  0  0  0  0  0  0  0
    4.0867    1.5216   18.1173 N   0  0  0  0  0  0  0  0  0  0  0  0
    4.4088    1.6342   19.3998 C   0  0  0  0  0  0  0  0  0  0  0  0
    4.3849    2.8474   20.0334 C   0  0  0  0  0  0  0  0  0  0  0  0
    4.0148    3.9628   19.2935 C   0  0  0  0  0  0  0  0  0  0  0  0
    4.0012    5.2045   19.8677 C   0  0  0  0  0  0  0  0  0  0  0  0
    3.6698    6.3195   19.1486 C   0  0  0  0  0  0  0  0  0  0  0  0
    3.3422    6.2059   17.8203 C   0  0  0  0  0  0  0  0  0  0  0  0
    3.3525    4.9541   17.2312 C   0  0  0  0  0  0  0  0  0  0  0  0
    3.6811    3.8090   17.9387 C   0  0  0  0  0  0  0  0  0  0  0  0
 18 19  1  0  0  0
 19 20  1  0  0  0
 20 21  1  0  0  0
 21 22  2  0  0  0
 21 23  1  0  0  0
 23 24  1  0  0  0
 24 14  1  0  0  0
 14 15  1  0  0  0
 15 16  2  0  0  0
 15  1  1  0  0  0
  1  2  1  0  0  0
  2  3  1  0  0  0
  3  4  1  0  0  0
  4  5  1  0  0  0
  5  6  1  0  0  0
  6  7  1  0  0  0
  7  8  1  0  0  0
  8  9  1  0  0  0
  9 10  1  0  0  0
 10 26  1  0  0  0
 26 27  1  0  0  0
 27 28  2  0  0  0
 27 30  1  0  0  0
 30 31  2  0  0  0
 31 32  1  0  0  0
 32 33  2  0  0  0
 33 34  1  0  0  0
 34 35  2  0  0  0
 35 36  1  0  0  0
 36 37  2  0  0  0
 37 38  1  0  0  0
 38 39  2  0  0  0
 10 11  1  0  0  0
 11 12  2  0  0  0
 11 13  1  0  0  0
 24 19  1  0  0  0
 13  1  1  0  0  0
 13  5  1  0  0  0
 39 30  1  0  0  0
 39 34  1  0  0  0
 18 25  1  0  0  0
 14 17  1  0  0  0
 26 29  1  0  0  0
M  END
> <minimizedAffinity>
-7.40988

> <CNNscore>
0.3701147437

> <CNNaffinity>
5.9358649254

> <CNN_VS>
2.1969511509

> <CNNaffinity_variance>
0.6785773635

$$$$
[H]OC1([H])OC(=O)C([H])([H])[C@]1([H])N([H])C(=O)[C@@]1([H])N2C(=O)[C@@]([H])(N([H])C(=O)c3nc([H])c([H])c4c([H])c([H])c([H])c([H])c34)C([H])([H])C([H])([H])C([H])([H])C([H])([H])[C@@]2([H])C([H])([H])OC1([H])[H]


 39 43  0  0  0  0  0  0  0  0999 V2000
    2.9872    6.8817   15.3868 C   0  0  0  0  0  0  0  0  0  0  0  0
    2.5982    7.7854   14.2113 C   0  0  0  0  0  0  0  0  0  0  0  0
    3.6554    8.1656   13.4420 O   0  0  0  0  0  0  0  0  0  0  0  0
    4.8419    8.4096   14.0581 C   0  0  0  0  0  0  0  0  0  0  0  0
    4.7661    8.5979   15.5642 C   0  0  0  0  0  0  0  0  0  0  0  0
    6.1520    8.4137   16.0935 C   0  0  0  0  0  0  0  0  0  0  0  0
    6.5288    9.3553   17.1913 C   0  0  0  0  0  0  0  0  0  0  0  0
    5.6466    9.3153   18.3869 C   0  0  0  0  0  0  0  0  0  0  0  0
    5.4472    7.9307   18.9573 C   0  0  0  0  0  0  0  0  0  0  0  0
    3.9503    7.6428   18.8700 C   0  0  0  0  0  0  0  0  0  0  0  0
    3.6839    7.1538   17.4998 C   0  0  0  0  0  0  0  0  0  0  0  0
    3.1062    6.0161   17.4392 O   0  0  0  0  0  0  0  0  0  0  0  0
    3.9043    7.6245   16.1848 N   0  0  0  0  0  0  0  0  0  0  0  0
    2.6794    4.5218   14.5946 N   0  0  0  0  0  0  0  0  0  0  0  0
    3.5376    5.6115   14.8487 C   0  0  0  0  0  0  0  0  0  0  0  0
    4.7857    5.5654   14.6376 O   0  0  0  0  0  0  0  0  0  0  0  0
    1.6663    4.6116   14.7848 H   0  0  0  0  0  0  0  0  0  0  0  0
    0.9629    3.4396   13.1831 O   0  0  0  0  0  0  0  0  0  0  0  0
    2.0177    2.5252   13.4080 C   0  0  0  0  0  0  0  0  0  0  0  0
    1.5532    1.6102   14.3678 O   0  0  0  0  0  0  0  0  0  0  0  0
    2.4680    1.4297   15.3775 C   0  0  0  0  0  0  0  0  0  0  0  0
    2.3780    0.6416   16.3725 O   0  0  0  0  0  0  0  0  0  0  0  0
    3.6062    2.3124   15.1305 C   0  0  0  0  0  0  0  0  0  0  0  0
    3.1621    3.2650   14.0715 C   0  0  0  0  0  0  0  0  0  0  0  0
    0.1138    2.9769   13.3285 H   0  0  0  0  0  0  0  0  0  0  0  0
    3.5626    6.6388   19.8500 N   0  0  0  0  0  0  0  0  0  0  0  0
    4.4544    5.6949   20.3365 C   0  0  0  0  0  0  0  0  0  0  0  0
    5.6571    5.7875   19.8213 O   0  0  0  0  0  0  0  0  0  0  0  0
    2.5581    6.6357   20.1526 H   0  0  0  0  0  0  0  0  0  0  0  0
    4.3092    4.6296   21.2873 C   0  0  0  0  0  0  0  0  0  0  0  0
    4.2181    4.9567   22.6281 N   0  0  0  0  0  0  0  0  0  0  0  0
    4.0710    4.0634   23.5984 C   0  0  0  0  0  0  0  0  0  0  0  0
    3.9977    2.7242   23.3245 C   0  0  0  0  0  0  0  0  0  0  0  0
    4.0797    2.3241   21.9973 C   0  0  0  0  0  0  0  0  0  0  0  0
    3.9833    1.0009   21.6631 C   0  0  0  0  0  0  0  0  0  0  0  0
    4.0306    0.5890   20.3599 C   0  0  0  0  0  0  0  0  0  0  0  0
    4.1766    1.5120   19.3542 C   0  0  0  0  0  0  0  0  0  0  0  0
    4.2756    2.8524   19.6827 C   0  0  0  0  0  0  0  0  0  0  0  0
    4.2342    3.2948   20.9951 C   0  0  0  0  0  0  0  0  0  0  0  0
 18 19  1  0  0  0
 19 20  1  0  0  0
 20 21  1  0  0  0
 21 22  2  0  0  0
 21 23  1  0  0  0
 23 24  1  0  0  0
 24 14  1  0  0  0
 14 15  1  0  0  0
 15 16  2  0  0  0
 15  1  1  0  0  0
  1  2  1  0  0  0
  2  3  1  0  0  0
  3  4  1  0  0  0
  4  5  1  0  0  0
  5  6  1  0  0  0
  6  7  1  0  0  0
  7  8  1  0  0  0
  8  9  1  0  0  0
  9 10  1  0  0  0
 10 26  1  0  0  0
 26 27  1  0  0  0
 27 28  2  0  0  0
 27 30  1  0  0  0
 30 31  2  0  0  0
 31 32  1  0  0  0
 32 33  2  0  0  0
 33 34  1  0  0  0
 34 35  2  0  0  0
 35 36  1  0  0  0
 36 37  2  0  0  0
 37 38  1  0  0  0
 38 39  2  0  0  0
 10 11  1  0  0  0
 11 12  2  0  0  0
 11 13  1  0  0  0
 24 19  1  0  0  0
 13  1  1  0  0  0
 13  5  1  0  0  0
 39 30  1  0  0  0
 39 34  1  0  0  0
 18 25  1  0  0  0
 14 17  1  0  0  0
 26 29  1  0  0  0
M  END
> <minimizedAffinity>
-9.08400

> <CNNscore>
0.3263069093

> <CNNaffinity>
6.3349733353

> <CNN_VS>
2.0671455860

> <CNNaffinity_variance>
0.0654999241

$$$$
[H]OC1([H])OC(=O)C([H])([H])[C@]1([H])N([H])C(=O)[C@@]1([H])N2C(=O)[C@@]([H])(N([H])C(=O)c3nc([H])c([H])c4c([H])c([H])c([H])c([H])c34)C([H])([H])C([H])([H])C([H])([H])C([H])([H])[C@@]2([H])C([H])([H])OC1([H])[H]


 39 43  0  0  0  0  0  0  0  0999 V2000
    4.5562    4.5319   21.9970 C   0  0  0  0  0  0  0  0  0  0  0  0
    3.8276    4.4523   23.3434 C   0  0  0  0  0  0  0  0  0  0  0  0
    4.2395    3.4174   24.1264 O   0  0  0  0  0  0  0  0  0  0  0  0
    4.5720    2.2474   23.5202 C   0  0  0  0  0  0  0  0  0  0  0  0
    4.0930    2.0991   22.0856 C   0  0  0  0  0  0  0  0  0  0  0  0
    4.9002    1.0010   21.4713 C   0  0  0  0  0  0  0  0  0  0  0  0
    4.1304    0.0948   20.5658 C   0  0  0  0  0  0  0  0  0  0  0  0
    3.4560    0.7678   19.4248 C   0  0  0  0  0  0  0  0  0  0  0  0
    4.3699    1.6448   18.6014 C   0  0  0  0  0  0  0  0  0  0  0  0
    3.8042    3.0598   18.6945 C   0  0  0  0  0  0  0  0  0  0  0  0
    4.3162    3.6478   19.9514 C   0  0  0  0  0  0  0  0  0  0  0  0
    4.9410    4.7530   19.8110 O   0  0  0  0  0  0  0  0  0  0  0  0
    4.3001    3.3034   21.3226 N   0  0  0  0  0  0  0  0  0  0  0  0
    6.4414    6.1218   22.4551 N   0  0  0  0  0  0  0  0  0  0  0  0
    5.9950    4.8000   22.2496 C   0  0  0  0  0  0  0  0  0  0  0  0
    6.7747    3.8019   22.2691 O   0  0  0  0  0  0  0  0  0  0  0  0
    5.7627    6.9023   22.4289 H   0  0  0  0  0  0  0  0  0  0  0  0
    6.6504    7.7917   24.2654 O   0  0  0  0  0  0  0  0  0  0  0  0
    7.9113    7.6209   23.6486 C   0  0  0  0  0  0  0  0  0  0  0  0
    8.1084    8.7445   22.8284 O   0  0  0  0  0  0  0  0  0  0  0  0
    8.5189    8.3834   21.5674 C   0  0  0  0  0  0  0  0  0  0  0  0
    8.8247    9.1539   20.6021 O   0  0  0  0  0  0  0  0  0  0  0  0
    8.5538    6.9242   21.4952 C   0  0  0  0  0  0  0  0  0  0  0  0
    7.8285    6.4378   22.7049 C   0  0  0  0  0  0  0  0  0  0  0  0
    6.4824    8.7493   24.3699 H   0  0  0  0  0  0  0  0  0  0  0  0
    4.2274    3.8579   17.5531 N   0  0  0  0  0  0  0  0  0  0  0  0
    3.3489    4.6660   16.8474 C   0  0  0  0  0  0  0  0  0  0  0  0
    2.1167    4.6267   17.2954 O   0  0  0  0  0  0  0  0  0  0  0  0
    5.2308    3.7698   17.2597 H   0  0  0  0  0  0  0  0  0  0  0  0
    3.5285    5.5279   15.7138 C   0  0  0  0  0  0  0  0  0  0  0  0
    3.7621    6.8716   15.9437 N   0  0  0  0  0  0  0  0  0  0  0  0
    3.9543    7.7637   14.9802 C   0  0  0  0  0  0  0  0  0  0  0  0
    3.9331    7.3987   13.6610 C   0  0  0  0  0  0  0  0  0  0  0  0
    3.7061    6.0629   13.3570 C   0  0  0  0  0  0  0  0  0  0  0  0
    3.7029    5.6367   12.0570 C   0  0  0  0  0  0  0  0  0  0  0  0
    3.5120    4.3206   11.7381 C   0  0  0  0  0  0  0  0  0  0  0  0
    3.3192    3.3953   12.7336 C   0  0  0  0  0  0  0  0  0  0  0  0
    3.3200    3.8171   14.0513 C   0  0  0  0  0  0  0  0  0  0  0  0
    3.5075    5.1448   14.4002 C   0  0  0  0  0  0  0  0  0  0  0  0
 18 19  1  0  0  0
 19 20  1  0  0  0
 20 21  1  0  0  0
 21 22  2  0  0  0
 21 23  1  0  0  0
 23 24  1  0  0  0
 24 14  1  0  0  0
 14 15  1  0  0  0
 15 16  2  0  0  0
 15  1  1  0  0  0
  1  2  1  0  0  0
  2  3  1  0  0  0
  3  4  1  0  0  0
  4  5  1  0  0  0
  5  6  1  0  0  0
  6  7  1  0  0  0
  7  8  1  0  0  0
  8  9  1  0  0  0
  9 10  1  0  0  0
 10 26  1  0  0  0
 26 27  1  0  0  0
 27 28  2  0  0  0
 27 30  1  0  0  0
 30 31  2  0  0  0
 31 32  1  0  0  0
 32 33  2  0  0  0
 33 34  1  0  0  0
 34 35  2  0  0  0
 35 36  1  0  0  0
 36 37  2  0  0  0
 37 38  1  0  0  0
 38 39  2  0  0  0
 10 11  1  0  0  0
 11 12  2  0  0  0
 11 13  1  0  0  0
 24 19  1  0  0  0
 13  1  1  0  0  0
 13  5  1  0  0  0
 39 30  1  0  0  0
 39 34  1  0  0  0
 18 25  1  0  0  0
 14 17  1  0  0  0
 26 29  1  0  0  0
M  END
> <minimizedAffinity>
-10.26384

> <CNNscore>
0.3158200383

> <CNNaffinity>
6.6351103783

> <CNN_VS>
2.0955007076

> <CNNaffinity_variance>
0.1602716148

$$$$
[H]OC1([H])OC(=O)C([H])([H])[C@]1([H])N([H])C(=O)[C@@]1([H])N2C(=O)[C@@]([H])(N([H])C(=O)c3nc([H])c([H])c4c([H])c([H])c([H])c([H])c34)C([H])([H])C([H])([H])C([H])([H])C([H])([H])[C@@]2([H])C([H])([H])OC1([H])[H]


 39 43  0  0  0  0  0  0  0  0999 V2000
   -0.0779    4.3231   12.0577 C   0  0  0  0  0  0  0  0  0  0  0  0
   -1.4781    4.7196   11.5757 C   0  0  0  0  0  0  0  0  0  0  0  0
   -1.4727    5.4578   10.4317 O   0  0  0  0  0  0  0  0  0  0  0  0
   -0.4675    6.3545   10.2518 C   0  0  0  0  0  0  0  0  0  0  0  0
    0.3233    6.7044   11.5014 C   0  0  0  0  0  0  0  0  0  0  0  0
    1.6046    7.3235   11.0433 C   0  0  0  0  0  0  0  0  0  0  0  0
    2.0666    8.4804   11.8691 C   0  0  0  0  0  0  0  0  0  0  0  0
    2.2708    8.1841   13.3113 C   0  0  0  0  0  0  0  0  0  0  0  0
    3.1599    6.9912   13.5736 C   0  0  0  0  0  0  0  0  0  0  0  0
    2.3074    5.9812   14.3380 C   0  0  0  0  0  0  0  0  0  0  0  0
    1.5301    5.2240   13.3331 C   0  0  0  0  0  0  0  0  0  0  0  0
    1.6756    3.9560   13.3867 O   0  0  0  0  0  0  0  0  0  0  0  0
    0.6323    5.5367   12.2865 N   0  0  0  0  0  0  0  0  0  0  0  0
   -0.1481    2.2949   10.5836 N   0  0  0  0  0  0  0  0  0  0  0  0
    0.5423    3.4366   11.0402 C   0  0  0  0  0  0  0  0  0  0  0  0
    1.6933    3.7562   10.6189 O   0  0  0  0  0  0  0  0  0  0  0  0
   -1.0870    2.0784   10.9606 H   0  0  0  0  0  0  0  0  0  0  0  0
   -0.5644    3.1396    8.2982 O   0  0  0  0  0  0  0  0  0  0  0  0
   -0.0592    1.8214    8.2171 C   0  0  0  0  0  0  0  0  0  0  0  0
   -1.1549    0.9931    7.9212 O   0  0  0  0  0  0  0  0  0  0  0  0
   -1.1969   -0.1035    8.7488 C   0  0  0  0  0  0  0  0  0  0  0  0
   -2.0296   -1.0651    8.7187 O   0  0  0  0  0  0  0  0  0  0  0  0
   -0.0994    0.0018    9.7081 C   0  0  0  0  0  0  0  0  0  0  0  0
    0.4086    1.4001    9.5959 C   0  0  0  0  0  0  0  0  0  0  0  0
   -1.3336    3.2154    7.6993 H   0  0  0  0  0  0  0  0  0  0  0  0
    3.1492    5.0799   15.1112 N   0  0  0  0  0  0  0  0  0  0  0  0
    2.8235    4.6842   16.3996 C   0  0  0  0  0  0  0  0  0  0  0  0
    1.7077    5.2077   16.8484 O   0  0  0  0  0  0  0  0  0  0  0  0
    4.0428    4.7640   14.6613 H   0  0  0  0  0  0  0  0  0  0  0  0
    3.4800    3.8205   17.3393 C   0  0  0  0  0  0  0  0  0  0  0  0
    4.2863    4.3958   18.3046 N   0  0  0  0  0  0  0  0  0  0  0  0
    4.9357    3.7047   19.2330 C   0  0  0  0  0  0  0  0  0  0  0  0
    4.8448    2.3402   19.2948 C   0  0  0  0  0  0  0  0  0  0  0  0
    4.0492    1.6960   18.3566 C   0  0  0  0  0  0  0  0  0  0  0  0
    3.8989    0.3366   18.3888 C   0  0  0  0  0  0  0  0  0  0  0  0
    3.0956   -0.3139   17.4933 C   0  0  0  0  0  0  0  0  0  0  0  0
    2.4182    0.3998   16.5361 C   0  0  0  0  0  0  0  0  0  0  0  0
    2.5647    1.7750   16.4952 C   0  0  0  0  0  0  0  0  0  0  0  0
    3.3750    2.4569   17.3886 C   0  0  0  0  0  0  0  0  0  0  0  0
 18 19  1  0  0  0
 19 20  1  0  0  0
 20 21  1  0  0  0
 21 22  2  0  0  0
 21 23  1  0  0  0
 23 24  1  0  0  0
 24 14  1  0  0  0
 14 15  1  0  0  0
 15 16  2  0  0  0
 15  1  1  0  0  0
  1  2  1  0  0  0
  2  3  1  0  0  0
  3  4  1  0  0  0
  4  5  1  0  0  0
  5  6  1  0  0  0
  6  7  1  0  0  0
  7  8  1  0  0  0
  8  9  1  0  0  0
  9 10  1  0  0  0
 10 26  1  0  0  0
 26 27  1  0  0  0
 27 28  2  0  0  0
 27 30  1  0  0  0
 30 31  2  0  0  0
 31 32  1  0  0  0
 32 33  2  0  0  0
 33 34  1  0  0  0
 34 35  2  0  0  0
 35 36  1  0  0  0
 36 37  2  0  0  0
 37 38  1  0  0  0
 38 39  2  0  0  0
 10 11  1  0  0  0
 11 12  2  0  0  0
 11 13  1  0  0  0
 24 19  1  0  0  0
 13  1  1  0  0  0
 13  5  1  0  0  0
 39 30  1  0  0  0
 39 34  1  0  0  0
 18 25  1  0  0  0
 14 17  1  0  0  0
 26 29  1  0  0  0
M  END
> <minimizedAffinity>
-8.04354

> <CNNscore>
0.3110964298

> <CNNaffinity>
5.8565173149

> <CNN_VS>
1.8219416142

> <CNNaffinity_variance>
0.2266872823

$$$$
[H]OC1([H])OC(=O)C([H])([H])[C@]1([H])N([H])C(=O)[C@@]1([H])N2C(=O)[C@@]([H])(N([H])C(=O)c3nc([H])c([H])c4c([H])c([H])c([H])c([H])c34)C([H])([H])C([H])([H])C([H])([H])C([H])([H])[C@@]2([H])C([H])([H])OC1([H])[H]


 39 43  0  0  0  0  0  0  0  0999 V2000
    0.1901    4.3690   12.5587 C   0  0  0  0  0  0  0  0  0  0  0  0
   -1.1979    4.7932   12.0653 C   0  0  0  0  0  0  0  0  0  0  0  0
   -1.1651    5.5847   10.9579 O   0  0  0  0  0  0  0  0  0  0  0  0
   -0.1536    6.4850   10.8429 C   0  0  0  0  0  0  0  0  0  0  0  0
    0.6102    6.7724   12.1249 C   0  0  0  0  0  0  0  0  0  0  0  0
    1.9031    7.4075   11.7250 C   0  0  0  0  0  0  0  0  0  0  0  0
    2.3498    8.5223   12.6147 C   0  0  0  0  0  0  0  0  0  0  0  0
    2.5211    8.1573   14.0454 C   0  0  0  0  0  0  0  0  0  0  0  0
    3.4008    6.9499   14.2704 C   0  0  0  0  0  0  0  0  0  0  0  0
    2.5288    5.9082   14.9671 C   0  0  0  0  0  0  0  0  0  0  0  0
    1.7719    5.2023   13.9105 C   0  0  0  0  0  0  0  0  0  0  0  0
    1.9126    3.9327   13.9072 O   0  0  0  0  0  0  0  0  0  0  0  0
    0.8985    5.5677   12.8603 N   0  0  0  0  0  0  0  0  0  0  0  0
    0.0817    2.5353   10.8507 N   0  0  0  0  0  0  0  0  0  0  0  0
    0.8303    3.5292   11.5143 C   0  0  0  0  0  0  0  0  0  0  0  0
    2.0515    3.7512   11.2618 O   0  0  0  0  0  0  0  0  0  0  0  0
   -0.9138    2.3943   11.0949 H   0  0  0  0  0  0  0  0  0  0  0  0
   -0.3936    3.4376    8.5991 O   0  0  0  0  0  0  0  0  0  0  0  0
    0.1544    2.1406    8.4692 C   0  0  0  0  0  0  0  0  0  0  0  0
   -0.9167    1.2853    8.1604 O   0  0  0  0  0  0  0  0  0  0  0  0
   -0.9107    0.1622    8.9527 C   0  0  0  0  0  0  0  0  0  0  0  0
   -1.7110   -0.8258    8.9020 O   0  0  0  0  0  0  0  0  0  0  0  0
    0.1956    0.2741    9.9011 C   0  0  0  0  0  0  0  0  0  0  0  0
    0.6547    1.6918    9.8277 C   0  0  0  0  0  0  0  0  0  0  0  0
   -1.1730    3.5061    8.0125 H   0  0  0  0  0  0  0  0  0  0  0  0
    3.3506    4.9681   15.7150 N   0  0  0  0  0  0  0  0  0  0  0  0
    2.9661    4.4664   16.9493 C   0  0  0  0  0  0  0  0  0  0  0  0
    1.8143    4.9290   17.3735 O   0  0  0  0  0  0  0  0  0  0  0  0
    4.2752    4.7076   15.2931 H   0  0  0  0  0  0  0  0  0  0  0  0
    3.5931    3.5468   17.8555 C   0  0  0  0  0  0  0  0  0  0  0  0
    3.5163    2.1950   17.5735 N   0  0  0  0  0  0  0  0  0  0  0  0
    4.0641    1.2504   18.3278 C   0  0  0  0  0  0  0  0  0  0  0  0
    4.7595    1.5646   19.4643 C   0  0  0  0  0  0  0  0  0  0  0  0
    4.8786    2.9051   19.8068 C   0  0  0  0  0  0  0  0  0  0  0  0
    5.5869    3.2787   20.9161 C   0  0  0  0  0  0  0  0  0  0  0  0
    5.7422    4.5948   21.2536 C   0  0  0  0  0  0  0  0  0  0  0  0
    5.1816    5.5737   20.4713 C   0  0  0  0  0  0  0  0  0  0  0  0
    4.4628    5.2053   19.3479 C   0  0  0  0  0  0  0  0  0  0  0  0
    4.2880    3.8791   18.9866 C   0  0  0  0  0  0  0  0  0  0  0  0
 18 19  1  0  0  0
 19 20  1  0  0  0
 20 21  1  0  0  0
 21 22  2  0  0  0
 21 23  1  0  0  0
 23 24  1  0  0  0
 24 14  1  0  0  0
 14 15  1  0  0  0
 15 16  2  0  0  0
 15  1  1  0  0  0
  1  2  1  0  0  0
  2  3  1  0  0  0
  3  4  1  0  0  0
  4  5  1  0  0  0
  5  6  1  0  0  0
  6  7  1  0  0  0
  7  8  1  0  0  0
  8  9  1  0  0  0
  9 10  1  0  0  0
 10 26  1  0  0  0
 26 27  1  0  0  0
 27 28  2  0  0  0
 27 30  1  0  0  0
 30 31  2  0  0  0
 31 32  1  0  0  0
 32 33  2  0  0  0
 33 34  1  0  0  0
 34 35  2  0  0  0
 35 36  1  0  0  0
 36 37  2  0  0  0
 37 38  1  0  0  0
 38 39  2  0  0  0
 10 11  1  0  0  0
 11 12  2  0  0  0
 11 13  1  0  0  0
 24 19  1  0  0  0
 13  1  1  0  0  0
 13  5  1  0  0  0
 39 30  1  0  0  0
 39 34  1  0  0  0
 18 25  1  0  0  0
 14 17  1  0  0  0
 26 29  1  0  0  0
M  END
> <minimizedAffinity>
-8.62177

> <CNNscore>
0.2452031821

> <CNNaffinity>
5.6820683479

> <CNN_VS>
1.3932611942

> <CNNaffinity_variance>
0.3068931103

$$$$
[H]OC1([H])OC(=O)C([H])([H])[C@]1([H])N([H])C(=O)[C@@]1([H])N2C(=O)[C@@]([H])(N([H])C(=O)c3nc([H])c([H])c4c([H])c([H])c([H])c([H])c34)C([H])([H])C([H])([H])C([H])([H])C([H])([H])[C@@]2([H])C([H])([H])OC1([H])[H]


 39 43  0  0  0  0  0  0  0  0999 V2000
    4.1510    5.5118   20.8287 C   0  0  0  0  0  0  0  0  0  0  0  0
    3.5631    5.3591   22.2362 C   0  0  0  0  0  0  0  0  0  0  0  0
    4.3029    4.5592   23.0528 O   0  0  0  0  0  0  0  0  0  0  0  0
    4.9167    3.4771   22.5059 C   0  0  0  0  0  0  0  0  0  0  0  0
    4.4096    3.0662   21.1335 C   0  0  0  0  0  0  0  0  0  0  0  0
    5.4563    2.1847   20.5316 C   0  0  0  0  0  0  0  0  0  0  0  0
    4.9217    1.0182   19.7653 C   0  0  0  0  0  0  0  0  0  0  0  0
    4.0117    1.3651   18.6424 C   0  0  0  0  0  0  0  0  0  0  0  0
    4.5821    2.3808   17.6805 C   0  0  0  0  0  0  0  0  0  0  0  0
    3.6424    3.5835   17.7203 C   0  0  0  0  0  0  0  0  0  0  0  0
    4.0439    4.4069   18.8815 C   0  0  0  0  0  0  0  0  0  0  0  0
    4.3161    5.6244   18.6071 O   0  0  0  0  0  0  0  0  0  0  0  0
    4.2145    4.2028   20.2702 N   0  0  0  0  0  0  0  0  0  0  0  0
    5.6566    7.2174   21.8851 N   0  0  0  0  0  0  0  0  0  0  0  0
    5.4661    6.1940   20.9337 C   0  0  0  0  0  0  0  0  0  0  0  0
    6.3795    5.8144   20.1425 O   0  0  0  0  0  0  0  0  0  0  0  0
    4.8769    7.4900   22.5081 H   0  0  0  0  0  0  0  0  0  0  0  0
    7.3187    5.7973   23.0385 O   0  0  0  0  0  0  0  0  0  0  0  0
    7.8291    7.1119   22.9346 C   0  0  0  0  0  0  0  0  0  0  0  0
    7.6999    7.6905   24.2084 O   0  0  0  0  0  0  0  0  0  0  0  0
    7.1293    8.9390   24.1403 C   0  0  0  0  0  0  0  0  0  0  0  0
    6.9127    9.7452   25.1006 O   0  0  0  0  0  0  0  0  0  0  0  0
    6.7937    9.2160   22.7451 C   0  0  0  0  0  0  0  0  0  0  0  0
    6.9144    7.9125   22.0293 C   0  0  0  0  0  0  0  0  0  0  0  0
    7.4671    5.4772   23.9504 H   0  0  0  0  0  0  0  0  0  0  0  0
    3.7459    4.3567   16.4914 N   0  0  0  0  0  0  0  0  0  0  0  0
    3.0674    4.0039   15.3346 C   0  0  0  0  0  0  0  0  0  0  0  0
    2.3482    2.9135   15.4540 O   0  0  0  0  0  0  0  0  0  0  0  0
    4.3906    5.1841   16.5056 H   0  0  0  0  0  0  0  0  0  0  0  0
    3.0113    4.5979   14.0292 C   0  0  0  0  0  0  0  0  0  0  0  0
    3.9823    4.2480   13.1086 N   0  0  0  0  0  0  0  0  0  0  0  0
    4.0302    4.7203   11.8693 C   0  0  0  0  0  0  0  0  0  0  0  0
    3.0943    5.6086   11.4121 C   0  0  0  0  0  0  0  0  0  0  0  0
    2.0874    6.0020   12.2837 C   0  0  0  0  0  0  0  0  0  0  0  0
    1.1092    6.8651   11.8713 C   0  0  0  0  0  0  0  0  0  0  0  0
    0.0917    7.2408   12.7043 C   0  0  0  0  0  0  0  0  0  0  0  0
    0.0369    6.7484   13.9846 C   0  0  0  0  0  0  0  0  0  0  0  0
    1.0223    5.8756   14.4107 C   0  0  0  0  0  0  0  0  0  0  0  0
    2.0653    5.4826   13.5876 C   0  0  0  0  0  0  0  0  0  0  0  0
 18 19  1  0  0  0
 19 20  1  0  0  0
 20 21  1  0  0  0
 21 22  2  0  0  0
 21 23  1  0  0  0
 23 24  1  0  0  0
 24 14  1  0  0  0
 14 15  1  0  0  0
 15 16  2  0  0  0
 15  1  1  0  0  0
  1  2  1  0  0  0
  2  3  1  0  0  0
  3  4  1  0  0  0
  4  5  1  0  0  0
  5  6  1  0  0  0
  6  7  1  0  0  0
  7  8  1  0  0  0
  8  9  1  0  0  0
  9 10  1  0  0  0
 10 26  1  0  0  0
 26 27  1  0  0  0
 27 28  2  0  0  0
 27 30  1  0  0  0
 30 31  2  0  0  0
 31 32  1  0  0  0
 32 33  2  0  0  0
 33 34  1  0  0  0
 34 35  2  0  0  0
 35 36  1  0  0  0
 36 37  2  0  0  0
 37 38  1  0  0  0
 38 39  2  0  0  0
 10 11  1  0  0  0
 11 12  2  0  0  0
 11 13  1  0  0  0
 24 19  1  0  0  0
 13  1  1  0  0  0
 13  5  1  0  0  0
 39 30  1  0  0  0
 39 34  1  0  0  0
 18 25  1  0  0  0
 14 17  1  0  0  0
 26 29  1  0  0  0
M  END
> <minimizedAffinity>
-9.92421

> <CNNscore>
0.2375596017

> <CNNaffinity>
6.1071729660

> <CNN_VS>
1.4508175850

> <CNNaffinity_variance>
0.3625907302

$$$$
[H]OC1([H])OC(=O)C([H])([H])[C@]1([H])N([H])C(=O)[C@@]1([H])N2C(=O)[C@@]([H])(N([H])C(=O)c3nc([H])c([H])c4c([H])c([H])c([H])c([H])c34)C([H])([H])C([H])([H])C([H])([H])C([H])([H])[C@@]2([H])C([H])([H])OC1([H])[H]


 39 43  0  0  0  0  0  0  0  0999 V2000
    1.0479    2.7605   10.7376 C   0  0  0  0  0  0  0  0  0  0  0  0
   -0.1623    3.2382    9.9270 C   0  0  0  0  0  0  0  0  0  0  0  0
    0.0795    3.3344    8.5906 O   0  0  0  0  0  0  0  0  0  0  0  0
    1.3097    3.7503    8.1898 C   0  0  0  0  0  0  0  0  0  0  0  0
    2.1521    4.4185    9.2636 C   0  0  0  0  0  0  0  0  0  0  0  0
    3.5662    4.3987    8.7788 C   0  0  0  0  0  0  0  0  0  0  0  0
    4.3426    5.6410    9.0748 C   0  0  0  0  0  0  0  0  0  0  0  0
    4.4291    6.0027   10.5139 C   0  0  0  0  0  0  0  0  0  0  0  0
    4.9161    4.8812   11.4012 C   0  0  0  0  0  0  0  0  0  0  0  0
    3.7898    4.5994   12.3927 C   0  0  0  0  0  0  0  0  0  0  0  0
    2.8347    3.6953   11.7160 C   0  0  0  0  0  0  0  0  0  0  0  0
    2.5926    2.6070   12.3395 O   0  0  0  0  0  0  0  0  0  0  0  0
    2.0862    3.7106   10.5165 N   0  0  0  0  0  0  0  0  0  0  0  0
    2.5372    1.1399    9.5345 N   0  0  0  0  0  0  0  0  0  0  0  0
    1.3874    1.3775   10.3156 C   0  0  0  0  0  0  0  0  0  0  0  0
    0.6073    0.4514   10.6872 O   0  0  0  0  0  0  0  0  0  0  0  0
    3.1417    1.9325    9.2574 H   0  0  0  0  0  0  0  0  0  0  0  0
    4.9811    0.9859    9.1980 O   0  0  0  0  0  0  0  0  0  0  0  0
    4.3709   -0.1807    8.6823 C   0  0  0  0  0  0  0  0  0  0  0  0
    4.3642   -0.0414    7.2842 O   0  0  0  0  0  0  0  0  0  0  0  0
    3.1277   -0.3237    6.7546 C   0  0  0  0  0  0  0  0  0  0  0  0
    2.7954   -0.3351    5.5264 O   0  0  0  0  0  0  0  0  0  0  0  0
    2.2129   -0.6210    7.8548 C   0  0  0  0  0  0  0  0  0  0  0  0
    2.9133   -0.1845    9.0978 C   0  0  0  0  0  0  0  0  0  0  0  0
    5.6289    1.3137    8.5429 H   0  0  0  0  0  0  0  0  0  0  0  0
    4.3121    3.9733   13.5985 N   0  0  0  0  0  0  0  0  0  0  0  0
    3.8442    4.2960   14.8633 C   0  0  0  0  0  0  0  0  0  0  0  0
    2.9107    5.2175   14.8636 O   0  0  0  0  0  0  0  0  0  0  0  0
    5.0922    3.2830   13.4737 H   0  0  0  0  0  0  0  0  0  0  0  0
    4.1944    3.8222   16.1721 C   0  0  0  0  0  0  0  0  0  0  0  0
    4.9631    4.6401   16.9803 N   0  0  0  0  0  0  0  0  0  0  0  0
    5.3409    4.3184   18.2112 C   0  0  0  0  0  0  0  0  0  0  0  0
    4.9826    3.1229   18.7736 C   0  0  0  0  0  0  0  0  0  0  0  0
    4.2074    2.2528   18.0184 C   0  0  0  0  0  0  0  0  0  0  0  0
    3.7961    1.0570   18.5405 C   0  0  0  0  0  0  0  0  0  0  0  0
    3.0068    0.1997   17.8248 C   0  0  0  0  0  0  0  0  0  0  0  0
    2.6098    0.5333   16.5537 C   0  0  0  0  0  0  0  0  0  0  0  0
    3.0215    1.7402   16.0170 C   0  0  0  0  0  0  0  0  0  0  0  0
    3.8241    2.6242   16.7202 C   0  0  0  0  0  0  0  0  0  0  0  0
 18 19  1  0  0  0
 19 20  1  0  0  0
 20 21  1  0  0  0
 21 22  2  0  0  0
 21 23  1  0  0  0
 23 24  1  0  0  0
 24 14  1  0  0  0
 14 15  1  0  0  0
 15 16  2  0  0  0
 15  1  1  0  0  0
  1  2  1  0  0  0
  2  3  1  0  0  0
  3  4  1  0  0  0
  4  5  1  0  0  0
  5  6  1  0  0  0
  6  7  1  0  0  0
  7  8  1  0  0  0
  8  9  1  0  0  0
  9 10  1  0  0  0
 10 26  1  0  0  0
 26 27  1  0  0  0
 27 28  2  0  0  0
 27 30  1  0  0  0
 30 31  2  0  0  0
 31 32  1  0  0  0
 32 33  2  0  0  0
 33 34  1  0  0  0
 34 35  2  0  0  0
 35 36  1  0  0  0
 36 37  2  0  0  0
 37 38  1  0  0  0
 38 39  2  0  0  0
 10 11  1  0  0  0
 11 12  2  0  0  0
 11 13  1  0  0  0
 24 19  1  0  0  0
 13  1  1  0  0  0
 13  5  1  0  0  0
 39 30  1  0  0  0
 39 34  1  0  0  0
 18 25  1  0  0  0
 14 17  1  0  0  0
 26 29  1  0  0  0
M  END
> <minimizedAffinity>
-7.26437

> <CNNscore>
0.2322577834

> <CNNaffinity>
5.4281673431

> <CNN_VS>
1.2607340813

> <CNNaffinity_variance>
0.2027105093

$$$$
[H]OC1([H])OC(=O)C([H])([H])[C@]1([H])N([H])C(=O)[C@@]1([H])N2C(=O)[C@@]([H])(N([H])C(=O)c3nc([H])c([H])c4c([H])c([H])c([H])c([H])c34)C([H])([H])C([H])([H])C([H])([H])C([H])([H])[C@@]2([H])C([H])([H])OC1([H])[H]


 39 43  0  0  0  0  0  0  0  0999 V2000
    3.8703    4.4854   13.4458 C   0  0  0  0  0  0  0  0  0  0  0  0
    4.2103    3.8186   12.1080 C   0  0  0  0  0  0  0  0  0  0  0  0
    3.2283    2.9987   11.6417 O   0  0  0  0  0  0  0  0  0  0  0  0
    2.5163    2.2734   12.5439 C   0  0  0  0  0  0  0  0  0  0  0  0
    3.1355    2.1684   13.9278 C   0  0  0  0  0  0  0  0  0  0  0  0
    2.0464    1.7391   14.8576 C   0  0  0  0  0  0  0  0  0  0  0  0
    2.4687    0.7505   15.8959 C   0  0  0  0  0  0  0  0  0  0  0  0
    3.5796    1.1969   16.7768 C   0  0  0  0  0  0  0  0  0  0  0  0
    3.3467    2.5408   17.4263 C   0  0  0  0  0  0  0  0  0  0  0  0
    4.4710    3.4522   16.9401 C   0  0  0  0  0  0  0  0  0  0  0  0
    4.0593    3.9800   15.6212 C   0  0  0  0  0  0  0  0  0  0  0  0
    4.0528    5.2542   15.5317 O   0  0  0  0  0  0  0  0  0  0  0  0
    3.6548    3.4331   14.3817 N   0  0  0  0  0  0  0  0  0  0  0  0
    2.6647    6.2691   12.1586 N   0  0  0  0  0  0  0  0  0  0  0  0
    2.6979    5.3758   13.2493 C   0  0  0  0  0  0  0  0  0  0  0  0
    1.7575    5.2887   14.0933 O   0  0  0  0  0  0  0  0  0  0  0  0
    3.4599    6.3009   11.4974 H   0  0  0  0  0  0  0  0  0  0  0  0
    0.9014    5.1335   10.8507 O   0  0  0  0  0  0  0  0  0  0  0  0
    0.5990    6.5124   10.9315 C   0  0  0  0  0  0  0  0  0  0  0  0
    0.9249    7.0650    9.6814 O   0  0  0  0  0  0  0  0  0  0  0  0
    1.6786    8.2066    9.8150 C   0  0  0  0  0  0  0  0  0  0  0  0
    2.1001    8.9694    8.8879 O   0  0  0  0  0  0  0  0  0  0  0  0
    1.9353    8.4246   11.2371 C   0  0  0  0  0  0  0  0  0  0  0  0
    1.5497    7.1559   11.9211 C   0  0  0  0  0  0  0  0  0  0  0  0
    0.7813    4.8424    9.9249 H   0  0  0  0  0  0  0  0  0  0  0  0
    4.6877    4.5446   17.8773 N   0  0  0  0  0  0  0  0  0  0  0  0
    5.2634    4.3487   19.1236 C   0  0  0  0  0  0  0  0  0  0  0  0
    5.5728    3.0988   19.3735 O   0  0  0  0  0  0  0  0  0  0  0  0
    4.3548    5.4947   17.5821 H   0  0  0  0  0  0  0  0  0  0  0  0
    5.5744    5.2507   20.1958 C   0  0  0  0  0  0  0  0  0  0  0  0
    4.9554    5.0541   21.4169 N   0  0  0  0  0  0  0  0  0  0  0  0
    5.1691    5.8129   22.4845 C   0  0  0  0  0  0  0  0  0  0  0  0
    6.0408    6.8676   22.4422 C   0  0  0  0  0  0  0  0  0  0  0  0
    6.7003    7.1216   21.2468 C   0  0  0  0  0  0  0  0  0  0  0  0
    7.6040    8.1446   21.1553 C   0  0  0  0  0  0  0  0  0  0  0  0
    8.2868    8.3920   19.9965 C   0  0  0  0  0  0  0  0  0  0  0  0
    8.0717    7.6043   18.8929 C   0  0  0  0  0  0  0  0  0  0  0  0
    7.1590    6.5678   18.9757 C   0  0  0  0  0  0  0  0  0  0  0  0
    6.4522    6.2989   20.1368 C   0  0  0  0  0  0  0  0  0  0  0  0
 18 19  1  0  0  0
 19 20  1  0  0  0
 20 21  1  0  0  0
 21 22  2  0  0  0
 21 23  1  0  0  0
 23 24  1  0  0  0
 24 14  1  0  0  0
 14 15  1  0  0  0
 15 16  2  0  0  0
 15  1  1  0  0  0
  1  2  1  0  0  0
  2  3  1  0  0  0
  3  4  1  0  0  0
  4  5  1  0  0  0
  5  6  1  0  0  0
  6  7  1  0  0  0
  7  8  1  0  0  0
  8  9  1  0  0  0
  9 10  1  0  0  0
 10 26  1  0  0  0
 26 27  1  0  0  0
 27 28  2  0  0  0
 27 30  1  0  0  0
 30 31  2  0  0  0
 31 32  1  0  0  0
 32 33  2  0  0  0
 33 34  1  0  0  0
 34 35  2  0  0  0
 35 36  1  0  0  0
 36 37  2  0  0  0
 37 38  1  0  0  0
 38 39  2  0  0  0
 10 11  1  0  0  0
 11 12  2  0  0  0
 11 13  1  0  0  0
 24 19  1  0  0  0
 13  1  1  0  0  0
 13  5  1  0  0  0
 39 30  1  0  0  0
 39 34  1  0  0  0
 18 25  1  0  0  0
 14 17  1  0  0  0
 26 29  1  0  0  0
M  END
> <minimizedAffinity>
-8.01503

> <CNNscore>
0.2208448946

> <CNNaffinity>
5.8480854034

> <CNN_VS>
1.2915197611

> <CNNaffinity_variance>
0.2050227821

$$$$
[H]O[C@@]1([H])C([H])([H])C([H])(OC(=O)N([H])C(C([H])([H])[H])(C([H])([H])[H])C([H])([H])[H])C2([H])C([H])(N3C([H])([H])C([H])([H])C([H])([H])C([H])([H])C3([H])[H])O[C@@]2([H])[C@]1([H])C([H])([H])[C@@]1([H])N([H])C([H])([H])C([H])([H])C([H])([H])C1([H])[H]


 33 36  0  0  0  0  0  0  0  0999 V2000
    4.0938    2.6796   19.2530 C   0  0  0  0  0  0  0  0  0  0  0  0
    4.9944    3.2612   18.2495 C   0  0  0  0  0  0  0  0  0  0  0  0
    5.0134    4.7566   18.0786 C   0  0  0  0  0  0  0  0  0  0  0  0
    3.6359    5.2738   17.8866 C   0  0  0  0  0  0  0  0  0  0  0  0
    3.1612    4.7472   16.5364 C   0  0  0  0  0  0  0  0  0  0  0  0
    1.8032    5.1462   16.4492 O   0  0  0  0  0  0  0  0  0  0  0  0
    3.3204    3.3106   16.3319 C   0  0  0  0  0  0  0  0  0  0  0  0
    4.2052    2.5392   17.2563 C   0  0  0  0  0  0  0  0  0  0  0  0
    3.5522    1.8536   18.2773 O   0  0  0  0  0  0  0  0  0  0  0  0
    1.6594    5.9800   16.9624 H   0  0  0  0  0  0  0  0  0  0  0  0
    4.2305    0.8794   20.8610 C   0  0  0  0  0  0  0  0  0  0  0  0
    3.6679    0.9563   22.2371 C   0  0  0  0  0  0  0  0  0  0  0  0
    4.5377    1.7210   23.2029 C   0  0  0  0  0  0  0  0  0  0  0  0
    4.8191    3.0670   22.5673 C   0  0  0  0  0  0  0  0  0  0  0  0
    5.4585    2.9267   21.2196 C   0  0  0  0  0  0  0  0  0  0  0  0
    4.7942    2.0428   20.3306 N   0  0  0  0  0  0  0  0  0  0  0  0
    5.7605    5.3675   19.0723 O   0  0  0  0  0  0  0  0  0  0  0  0
    5.8007    6.7359   19.2495 C   0  0  0  0  0  0  0  0  0  0  0  0
    5.3507    7.3679   20.4547 N   0  0  0  0  0  0  0  0  0  0  0  0
    6.2582    7.3906   18.2840 O   0  0  0  0  0  0  0  0  0  0  0  0
    4.9746    6.8009   21.2420 H   0  0  0  0  0  0  0  0  0  0  0  0
    5.4122    8.7954   20.5954 C   0  0  0  0  0  0  0  0  0  0  0  0
    5.3013    9.2275   22.0419 C   0  0  0  0  0  0  0  0  0  0  0  0
    6.7320    9.3694   20.0857 C   0  0  0  0  0  0  0  0  0  0  0  0
    4.3148    9.5028   19.8078 C   0  0  0  0  0  0  0  0  0  0  0  0
    3.7565    2.9972   14.9276 C   0  0  0  0  0  0  0  0  0  0  0  0
    2.8418    3.3374   13.8237 C   0  0  0  0  0  0  0  0  0  0  0  0
    3.3051    4.1835   12.7835 N   0  0  0  0  0  0  0  0  0  0  0  0
    3.3249    3.4820   11.4836 C   0  0  0  0  0  0  0  0  0  0  0  0
    1.8927    3.1811   11.1557 C   0  0  0  0  0  0  0  0  0  0  0  0
    1.3383    2.2258   12.1593 C   0  0  0  0  0  0  0  0  0  0  0  0
    2.3173    2.0010   13.2601 C   0  0  0  0  0  0  0  0  0  0  0  0
    2.6517    4.9801   12.6244 H   0  0  0  0  0  0  0  0  0  0  0  0
 11 12  1  0  0  0
 12 13  1  0  0  0
 13 14  1  0  0  0
 14 15  1  0  0  0
 15 16  1  0  0  0
 16  1  1  0  0  0
  1  2  1  0  0  0
  2  3  1  0  0  0
  3 17  1  0  0  0
 17 18  1  0  0  0
 18 19  1  0  0  0
 19 22  1  0  0  0
 22 23  1  0  0  0
 22 24  1  0  0  0
 22 25  1  0  0  0
 18 20  2  0  0  0
  3  4  1  0  0  0
  4  5  1  0  0  0
  5  6  1  0  0  0
  5  7  1  0  0  0
  7 26  1  0  0  0
 26 27  1  0  0  0
 27 28  1  0  0  0
 28 29  1  0  0  0
 29 30  1  0  0  0
 30 31  1  0  0  0
 31 32  1  0  0  0
  7  8  1  0  0  0
  8  9  1  0  0  0
 16 11  1  0  0  0
  9  1  1  0  0  0
  8  2  1  0  0  0
 32 27  1  0  0  0
 19 21  1  0  0  0
  6 10  1  0  0  0
 28 33  1  0  0  0
M  END
> <minimizedAffinity>
-8.23985

> <CNNscore>
0.6442717314

> <CNNaffinity>
6.6807532310

> <CNN_VS>
4.3042206764

> <CNNaffinity_variance>
0.4143267274

$$$$
[H]O[C@@]1([H])C([H])([H])C([H])(OC(=O)N([H])C(C([H])([H])[H])(C([H])([H])[H])C([H])([H])[H])C2([H])C([H])(N3C([H])([H])C([H])([H])C([H])([H])C([H])([H])C3([H])[H])O[C@@]2([H])[C@]1([H])C([H])([H])[C@@]1([H])N([H])C([H])([H])C([H])([H])C([H])([H])C1([H])[H]


 33 36  0  0  0  0  0  0  0  0999 V2000
    3.2106    2.1735   17.4238 C   0  0  0  0  0  0  0  0  0  0  0  0
    4.1723    2.7358   16.4669 C   0  0  0  0  0  0  0  0  0  0  0  0
    4.6324    4.1562   16.6578 C   0  0  0  0  0  0  0  0  0  0  0  0
    3.4670    5.0636   16.8006 C   0  0  0  0  0  0  0  0  0  0  0  0
    2.7611    5.0757   15.4489 C   0  0  0  0  0  0  0  0  0  0  0  0
    1.5857    5.8402   15.6611 O   0  0  0  0  0  0  0  0  0  0  0  0
    2.4617    3.7627   14.8855 C   0  0  0  0  0  0  0  0  0  0  0  0
    3.1333    2.5568   15.4575 C   0  0  0  0  0  0  0  0  0  0  0  0
    2.3765    1.8260   16.3697 O   0  0  0  0  0  0  0  0  0  0  0  0
    1.7384    6.5091   16.3742 H   0  0  0  0  0  0  0  0  0  0  0  0
    2.9745   -0.0460   18.3525 C   0  0  0  0  0  0  0  0  0  0  0  0
    2.4143   -0.3208   19.7040 C   0  0  0  0  0  0  0  0  0  0  0  0
    3.3979   -0.0901   20.8235 C   0  0  0  0  0  0  0  0  0  0  0  0
    3.9415    1.3127   20.6464 C   0  0  0  0  0  0  0  0  0  0  0  0
    4.5646    1.5053   19.2976 C   0  0  0  0  0  0  0  0  0  0  0  0
    3.7587    1.1007   18.2022 N   0  0  0  0  0  0  0  0  0  0  0  0
    5.5978    4.2441   17.6474 O   0  0  0  0  0  0  0  0  0  0  0  0
    5.5855    5.2176   18.6261 C   0  0  0  0  0  0  0  0  0  0  0  0
    6.1647    6.5135   18.4277 N   0  0  0  0  0  0  0  0  0  0  0  0
    5.0325    4.8920   19.7024 O   0  0  0  0  0  0  0  0  0  0  0  0
    6.6184    6.7587   17.5239 H   0  0  0  0  0  0  0  0  0  0  0  0
    6.1277    7.4958   19.4741 C   0  0  0  0  0  0  0  0  0  0  0  0
    6.7686    8.8000   19.0500 C   0  0  0  0  0  0  0  0  0  0  0  0
    4.7001    7.8447   19.8883 C   0  0  0  0  0  0  0  0  0  0  0  0
    6.8277    7.0183   20.7419 C   0  0  0  0  0  0  0  0  0  0  0  0
    2.6820    3.7361   13.3985 C   0  0  0  0  0  0  0  0  0  0  0  0
    2.0543    2.6524   12.6222 C   0  0  0  0  0  0  0  0  0  0  0  0
    0.6904    2.7742   12.2511 N   0  0  0  0  0  0  0  0  0  0  0  0
    0.5320    2.8300   10.7834 C   0  0  0  0  0  0  0  0  0  0  0  0
    0.9755    1.4925   10.2697 C   0  0  0  0  0  0  0  0  0  0  0  0
    2.4304    1.3066   10.5452 C   0  0  0  0  0  0  0  0  0  0  0  0
    2.9476    2.4230   11.3862 C   0  0  0  0  0  0  0  0  0  0  0  0
    0.1465    1.9285   12.5263 H   0  0  0  0  0  0  0  0  0  0  0  0
 11 12  1  0  0  0
 12 13  1  0  0  0
 13 14  1  0  0  0
 14 15  1  0  0  0
 15 16  1  0  0  0
 16  1  1  0  0  0
  1  2  1  0  0  0
  2  3  1  0  0  0
  3 17  1  0  0  0
 17 18  1  0  0  0
 18 19  1  0  0  0
 19 22  1  0  0  0
 22 23  1  0  0  0
 22 24  1  0  0  0
 22 25  1  0  0  0
 18 20  2  0  0  0
  3  4  1  0  0  0
  4  5  1  0  0  0
  5  6  1  0  0  0
  5  7  1  0  0  0
  7 26  1  0  0  0
 26 27  1  0  0  0
 27 28  1  0  0  0
 28 29  1  0  0  0
 29 30  1  0  0  0
 30 31  1  0  0  0
 31 32  1  0  0  0
  7  8  1  0  0  0
  8  9  1  0  0  0
 16 11  1  0  0  0
  9  1  1  0  0  0
  8  2  1  0  0  0
 32 27  1  0  0  0
 19 21  1  0  0  0
  6 10  1  0  0  0
 28 33  1  0  0  0
M  END
> <minimizedAffinity>
-7.58021

> <CNNscore>
0.6033066511

> <CNNaffinity>
6.4021162987

> <CNN_VS>
3.8624393940

> <CNNaffinity_variance>
0.3498690724

$$$$
[H]O[C@@]1([H])C([H])([H])C([H])(OC(=O)N([H])C(C([H])([H])[H])(C([H])([H])[H])C([H])([H])[H])C2([H])C([H])(N3C([H])([H])C([H])([H])C([H])([H])C([H])([H])C3([H])[H])O[C@@]2([H])[C@]1([H])C([H])([H])[C@@]1([H])N([H])C([H])([H])C([H])([H])C([H])([H])C1([H])[H]


 33 36  0  0  0  0  0  0  0  0999 V2000
    5.3530    3.3985   19.6463 C   0  0  0  0  0  0  0  0  0  0  0  0
    4.0674    3.9743   19.2316 C   0  0  0  0  0  0  0  0  0  0  0  0
    3.7482    4.0415   17.7621 C   0  0  0  0  0  0  0  0  0  0  0  0
    4.8584    4.6883   17.0198 C   0  0  0  0  0  0  0  0  0  0  0  0
    4.8843    6.1464   17.4658 C   0  0  0  0  0  0  0  0  0  0  0  0
    6.0338    6.6953   16.8427 O   0  0  0  0  0  0  0  0  0  0  0  0
    4.8934    6.3609   18.9097 C   0  0  0  0  0  0  0  0  0  0  0  0
    4.5434    5.2248   19.8148 C   0  0  0  0  0  0  0  0  0  0  0  0
    5.6250    4.5493   20.3739 O   0  0  0  0  0  0  0  0  0  0  0  0
    6.2199    6.2222   15.9937 H   0  0  0  0  0  0  0  0  0  0  0  0
    4.4370    1.1670   19.8066 C   0  0  0  0  0  0  0  0  0  0  0  0
    3.1257    0.8556   20.4386 C   0  0  0  0  0  0  0  0  0  0  0  0
    3.1772    0.8103   21.9450 C   0  0  0  0  0  0  0  0  0  0  0  0
    3.7959    2.1156   22.4013 C   0  0  0  0  0  0  0  0  0  0  0  0
    5.1485    2.3357   21.7955 C   0  0  0  0  0  0  0  0  0  0  0  0
    5.2065    2.1788   20.3866 N   0  0  0  0  0  0  0  0  0  0  0  0
    3.3287    2.8121   17.2812 O   0  0  0  0  0  0  0  0  0  0  0  0
    3.0356    2.5845   15.9516 C   0  0  0  0  0  0  0  0  0  0  0  0
    2.2068    3.4680   15.1856 N   0  0  0  0  0  0  0  0  0  0  0  0
    3.5440    1.5513   15.4573 O   0  0  0  0  0  0  0  0  0  0  0  0
    1.7964    4.3198   15.6203 H   0  0  0  0  0  0  0  0  0  0  0  0
    1.9294    3.1920   13.8043 C   0  0  0  0  0  0  0  0  0  0  0  0
    1.0978    4.2831   13.1642 C   0  0  0  0  0  0  0  0  0  0  0  0
    3.2032    3.0902   12.9688 C   0  0  0  0  0  0  0  0  0  0  0  0
    1.1957    1.8688   13.6140 C   0  0  0  0  0  0  0  0  0  0  0  0
    4.0303    7.5283   19.3005 C   0  0  0  0  0  0  0  0  0  0  0  0
    4.6070    8.5521   20.1895 C   0  0  0  0  0  0  0  0  0  0  0  0
    4.5517    8.3531   21.5931 N   0  0  0  0  0  0  0  0  0  0  0  0
    5.9038    8.2357   22.1766 C   0  0  0  0  0  0  0  0  0  0  0  0
    6.5549    9.5725   21.9805 C   0  0  0  0  0  0  0  0  0  0  0  0
    6.7299    9.8362   20.5221 C   0  0  0  0  0  0  0  0  0  0  0  0
    6.0578    8.7771   19.7174 C   0  0  0  0  0  0  0  0  0  0  0  0
    4.1449    9.1821   22.0770 H   0  0  0  0  0  0  0  0  0  0  0  0
 11 12  1  0  0  0
 12 13  1  0  0  0
 13 14  1  0  0  0
 14 15  1  0  0  0
 15 16  1  0  0  0
 16  1  1  0  0  0
  1  2  1  0  0  0
  2  3  1  0  0  0
  3 17  1  0  0  0
 17 18  1  0  0  0
 18 19  1  0  0  0
 19 22  1  0  0  0
 22 23  1  0  0  0
 22 24  1  0  0  0
 22 25  1  0  0  0
 18 20  2  0  0  0
  3  4  1  0  0  0
  4  5  1  0  0  0
  5  6  1  0  0  0
  5  7  1  0  0  0
  7 26  1  0  0  0
 26 27  1  0  0  0
 27 28  1  0  0  0
 28 29  1  0  0  0
 29 30  1  0  0  0
 30 31  1  0  0  0
 31 32  1  0  0  0
  7  8  1  0  0  0
  8  9  1  0  0  0
 16 11  1  0  0  0
  9  1  1  0  0  0
  8  2  1  0  0  0
 32 27  1  0  0  0
 19 21  1  0  0  0
  6 10  1  0  0  0
 28 33  1  0  0  0
M  END
> <minimizedAffinity>
-8.22347

> <CNNscore>
0.5242122412

> <CNNaffinity>
6.4193372726

> <CNN_VS>
3.3650951385

> <CNNaffinity_variance>
0.0994284600

$$$$
[H]O[C@@]1([H])C([H])([H])C([H])(OC(=O)N([H])C(C([H])([H])[H])(C([H])([H])[H])C([H])([H])[H])C2([H])C([H])(N3C([H])([H])C([H])([H])C([H])([H])C([H])([H])C3([H])[H])O[C@@]2([H])[C@]1([H])C([H])([H])[C@@]1([H])N([H])C([H])([H])C([H])([H])C([H])([H])C1([H])[H]


 33 36  0  0  0  0  0  0  0  0999 V2000
    3.9235    2.2395   19.9447 C   0  0  0  0  0  0  0  0  0  0  0  0
    4.8919    2.9899   19.1350 C   0  0  0  0  0  0  0  0  0  0  0  0
    4.7998    4.4921   19.1098 C   0  0  0  0  0  0  0  0  0  0  0  0
    3.4186    4.9212   18.7781 C   0  0  0  0  0  0  0  0  0  0  0  0
    3.1729    4.5053   17.3317 C   0  0  0  0  0  0  0  0  0  0  0  0
    1.8077    4.8075   17.0949 O   0  0  0  0  0  0  0  0  0  0  0  0
    3.4847    3.1143   17.0170 C   0  0  0  0  0  0  0  0  0  0  0  0
    4.3065    2.3190   17.9784 C   0  0  0  0  0  0  0  0  0  0  0  0
    3.5896    1.4824   18.8298 O   0  0  0  0  0  0  0  0  0  0  0  0
    1.5246    5.5694   17.6593 H   0  0  0  0  0  0  0  0  0  0  0  0
    3.7885    1.4423   22.2230 C   0  0  0  0  0  0  0  0  0  0  0  0
    4.2576    2.2229   23.4006 C   0  0  0  0  0  0  0  0  0  0  0  0
    5.7514    2.1734   23.6014 C   0  0  0  0  0  0  0  0  0  0  0  0
    6.3835    2.5848   22.2877 C   0  0  0  0  0  0  0  0  0  0  0  0
    5.9362    1.7131   21.1542 C   0  0  0  0  0  0  0  0  0  0  0  0
    4.5313    1.5476   21.0442 N   0  0  0  0  0  0  0  0  0  0  0  0
    5.3535    5.0497   20.2506 O   0  0  0  0  0  0  0  0  0  0  0  0
    5.1847    6.3750   20.5983 C   0  0  0  0  0  0  0  0  0  0  0  0
    5.7690    7.4466   19.8470 N   0  0  0  0  0  0  0  0  0  0  0  0
    4.4846    6.5793   21.6173 O   0  0  0  0  0  0  0  0  0  0  0  0
    6.3468    7.2497   19.0042 H   0  0  0  0  0  0  0  0  0  0  0  0
    5.5658    8.8109   20.2453 C   0  0  0  0  0  0  0  0  0  0  0  0
    6.5844    9.7410   19.6217 C   0  0  0  0  0  0  0  0  0  0  0  0
    4.1983    9.3392   19.8188 C   0  0  0  0  0  0  0  0  0  0  0  0
    5.6311    8.9884   21.7584 C   0  0  0  0  0  0  0  0  0  0  0  0
    4.1264    2.9844   15.6635 C   0  0  0  0  0  0  0  0  0  0  0  0
    3.3940    2.2536   14.6145 C   0  0  0  0  0  0  0  0  0  0  0  0
    2.0897    1.7716   14.8958 N   0  0  0  0  0  0  0  0  0  0  0  0
    1.0776    2.4134   14.0320 C   0  0  0  0  0  0  0  0  0  0  0  0
    1.3844    1.9647   12.6342 C   0  0  0  0  0  0  0  0  0  0  0  0
    2.7150    2.4964   12.2173 C   0  0  0  0  0  0  0  0  0  0  0  0
    3.3938    3.1595   13.3664 C   0  0  0  0  0  0  0  0  0  0  0  0
    2.0032    0.7583   14.6668 H   0  0  0  0  0  0  0  0  0  0  0  0
 11 12  1  0  0  0
 12 13  1  0  0  0
 13 14  1  0  0  0
 14 15  1  0  0  0
 15 16  1  0  0  0
 16  1  1  0  0  0
  1  2  1  0  0  0
  2  3  1  0  0  0
  3 17  1  0  0  0
 17 18  1  0  0  0
 18 19  1  0  0  0
 19 22  1  0  0  0
 22 23  1  0  0  0
 22 24  1  0  0  0
 22 25  1  0  0  0
 18 20  2  0  0  0
  3  4  1  0  0  0
  4  5  1  0  0  0
  5  6  1  0  0  0
  5  7  1  0  0  0
  7 26  1  0  0  0
 26 27  1  0  0  0
 27 28  1  0  0  0
 28 29  1  0  0  0
 29 30  1  0  0  0
 30 31  1  0  0  0
 31 32  1  0  0  0
  7  8  1  0  0  0
  8  9  1  0  0  0
 16 11  1  0  0  0
  9  1  1  0  0  0
  8  2  1  0  0  0
 32 27  1  0  0  0
 19 21  1  0  0  0
  6 10  1  0  0  0
 28 33  1  0  0  0
M  END
> <minimizedAffinity>
-8.76162

> <CNNscore>
0.4512614310

> <CNNaffinity>
6.3968896866

> <CNN_VS>
2.8866696358

> <CNNaffinity_variance>
0.3761028647

$$$$
[H]O[C@@]1([H])C([H])([H])C([H])(OC(=O)N([H])C(C([H])([H])[H])(C([H])([H])[H])C([H])([H])[H])C2([H])C([H])(N3C([H])([H])C([H])([H])C([H])([H])C([H])([H])C3([H])[H])O[C@@]2([H])[C@]1([H])C([H])([H])[C@@]1([H])N([H])C([H])([H])C([H])([H])C([H])([H])C1([H])[H]


 33 36  0  0  0  0  0  0  0  0999 V2000
    3.2793    2.1363   17.6627 C   0  0  0  0  0  0  0  0  0  0  0  0
    4.1964    2.6425   16.6335 C   0  0  0  0  0  0  0  0  0  0  0  0
    4.7050    4.0542   16.7526 C   0  0  0  0  0  0  0  0  0  0  0  0
    3.5751    4.9984   16.9360 C   0  0  0  0  0  0  0  0  0  0  0  0
    2.7897    4.9909   15.6288 C   0  0  0  0  0  0  0  0  0  0  0  0
    1.6501    5.7946   15.8865 O   0  0  0  0  0  0  0  0  0  0  0  0
    2.4219    3.6710   15.1252 C   0  0  0  0  0  0  0  0  0  0  0  0
    3.0942    2.4637   15.6935 C   0  0  0  0  0  0  0  0  0  0  0  0
    2.3744    1.7820   16.6712 O   0  0  0  0  0  0  0  0  0  0  0  0
    1.8633    6.4795   16.5682 H   0  0  0  0  0  0  0  0  0  0  0  0
    3.0225   -0.0242   18.7166 C   0  0  0  0  0  0  0  0  0  0  0  0
    2.5772   -0.2087   20.1250 C   0  0  0  0  0  0  0  0  0  0  0  0
    3.6703    0.0191   21.1386 C   0  0  0  0  0  0  0  0  0  0  0  0
    4.2628    1.3819   20.8446 C   0  0  0  0  0  0  0  0  0  0  0  0
    4.7669    1.4811   19.4371 C   0  0  0  0  0  0  0  0  0  0  0  0
    3.8443    1.0716   18.4401 N   0  0  0  0  0  0  0  0  0  0  0  0
    5.7302    4.1435   17.6800 O   0  0  0  0  0  0  0  0  0  0  0  0
    5.7342    5.0615   18.7109 C   0  0  0  0  0  0  0  0  0  0  0  0
    5.0165    4.8473   19.9330 N   0  0  0  0  0  0  0  0  0  0  0  0
    6.4090    6.0974   18.5067 O   0  0  0  0  0  0  0  0  0  0  0  0
    4.4631    3.9780   20.0774 H   0  0  0  0  0  0  0  0  0  0  0  0
    5.0501    5.8299   20.9792 C   0  0  0  0  0  0  0  0  0  0  0  0
    4.0829    5.5014   22.0964 C   0  0  0  0  0  0  0  0  0  0  0  0
    6.4267    5.9313   21.6319 C   0  0  0  0  0  0  0  0  0  0  0  0
    4.7228    7.2295   20.4702 C   0  0  0  0  0  0  0  0  0  0  0  0
    2.5517    3.5944   13.6292 C   0  0  0  0  0  0  0  0  0  0  0  0
    3.2939    4.6648   12.9404 C   0  0  0  0  0  0  0  0  0  0  0  0
    4.6645    4.4634   12.6348 N   0  0  0  0  0  0  0  0  0  0  0  0
    4.8993    4.4628   11.1763 C   0  0  0  0  0  0  0  0  0  0  0  0
    4.5773    5.8502   10.7063 C   0  0  0  0  0  0  0  0  0  0  0  0
    3.1256    6.1263   10.9150 C   0  0  0  0  0  0  0  0  0  0  0  0
    2.4877    5.0126   11.6725 C   0  0  0  0  0  0  0  0  0  0  0  0
    5.2491    5.2551   12.9788 H   0  0  0  0  0  0  0  0  0  0  0  0
 11 12  1  0  0  0
 12 13  1  0  0  0
 13 14  1  0  0  0
 14 15  1  0  0  0
 15 16  1  0  0  0
 16  1  1  0  0  0
  1  2  1  0  0  0
  2  3  1  0  0  0
  3 17  1  0  0  0
 17 18  1  0  0  0
 18 19  1  0  0  0
 19 22  1  0  0  0
 22 23  1  0  0  0
 22 24  1  0  0  0
 22 25  1  0  0  0
 18 20  2  0  0  0
  3  4  1  0  0  0
  4  5  1  0  0  0
  5  6  1  0  0  0
  5  7  1  0  0  0
  7 26  1  0  0  0
 26 27  1  0  0  0
 27 28  1  0  0  0
 28 29  1  0  0  0
 29 30  1  0  0  0
 30 31  1  0  0  0
 31 32  1  0  0  0
  7  8  1  0  0  0
  8  9  1  0  0  0
 16 11  1  0  0  0
  9  1  1  0  0  0
  8  2  1  0  0  0
 32 27  1  0  0  0
 19 21  1  0  0  0
  6 10  1  0  0  0
 28 33  1  0  0  0
M  END
> <minimizedAffinity>
-7.79090

> <CNNscore>
0.4471681118

> <CNNaffinity>
6.3030276299

> <CNN_VS>
2.8185129166

> <CNNaffinity_variance>
0.3091697693

$$$$
[H]O[C@@]1([H])C([H])([H])C([H])(OC(=O)N([H])C(C([H])([H])[H])(C([H])([H])[H])C([H])([H])[H])C2([H])C([H])(N3C([H])([H])C([H])([H])C([H])([H])C([H])([H])C3([H])[H])O[C@@]2([H])[C@]1([H])C([H])([H])[C@@]1([H])N([H])C([H])([H])C([H])([H])C([H])([H])C1([H])[H]


 33 36  0  0  0  0  0  0  0  0999 V2000
    3.8358    2.8487   20.0926 C   0  0  0  0  0  0  0  0  0  0  0  0
    4.7883    3.7166   19.3882 C   0  0  0  0  0  0  0  0  0  0  0  0
    4.5407    5.2013   19.3802 C   0  0  0  0  0  0  0  0  0  0  0  0
    3.1572    5.4936   18.9302 C   0  0  0  0  0  0  0  0  0  0  0  0
    3.0875    5.0930   17.4604 C   0  0  0  0  0  0  0  0  0  0  0  0
    1.7249    5.2583   17.1042 O   0  0  0  0  0  0  0  0  0  0  0  0
    3.5715    3.7507   17.1522 C   0  0  0  0  0  0  0  0  0  0  0  0
    4.3831    3.0195   18.1715 C   0  0  0  0  0  0  0  0  0  0  0  0
    3.6851    2.0909   18.9390 O   0  0  0  0  0  0  0  0  0  0  0  0
    1.3134    5.9715   17.6531 H   0  0  0  0  0  0  0  0  0  0  0  0
    5.3270    2.9255   21.9940 C   0  0  0  0  0  0  0  0  0  0  0  0
    6.7537    2.5037   21.9426 C   0  0  0  0  0  0  0  0  0  0  0  0
    6.9441    1.0092   22.0089 C   0  0  0  0  0  0  0  0  0  0  0  0
    6.0760    0.4087   20.9223 C   0  0  0  0  0  0  0  0  0  0  0  0
    4.6384    0.8028   21.0729 C   0  0  0  0  0  0  0  0  0  0  0  0
    4.4122    2.1945   21.2314 N   0  0  0  0  0  0  0  0  0  0  0  0
    4.9278    5.7828   20.5764 O   0  0  0  0  0  0  0  0  0  0  0  0
    5.8606    6.7976   20.6524 C   0  0  0  0  0  0  0  0  0  0  0  0
    7.2065    6.5725   21.0908 N   0  0  0  0  0  0  0  0  0  0  0  0
    5.4512    7.9318   20.3115 O   0  0  0  0  0  0  0  0  0  0  0  0
    7.5212    5.6204   21.3688 H   0  0  0  0  0  0  0  0  0  0  0  0
    8.1436    7.6584   21.1531 C   0  0  0  0  0  0  0  0  0  0  0  0
    9.5492    7.1780   21.4449 C   0  0  0  0  0  0  0  0  0  0  0  0
    8.2270    8.4253   19.8355 C   0  0  0  0  0  0  0  0  0  0  0  0
    7.7684    8.6870   22.2144 C   0  0  0  0  0  0  0  0  0  0  0  0
    4.3421    3.7239   15.8615 C   0  0  0  0  0  0  0  0  0  0  0  0
    3.6107    3.9874   14.6098 C   0  0  0  0  0  0  0  0  0  0  0  0
    4.1796    4.8679   13.6540 N   0  0  0  0  0  0  0  0  0  0  0  0
    4.4832    4.1695   12.3881 C   0  0  0  0  0  0  0  0  0  0  0  0
    3.1595    3.7523   11.8197 C   0  0  0  0  0  0  0  0  0  0  0  0
    2.5164    2.7555   12.7253 C   0  0  0  0  0  0  0  0  0  0  0  0
    3.3023    2.6123   13.9834 C   0  0  0  0  0  0  0  0  0  0  0  0
    3.5023    5.6083   13.3713 H   0  0  0  0  0  0  0  0  0  0  0  0
 11 12  1  0  0  0
 12 13  1  0  0  0
 13 14  1  0  0  0
 14 15  1  0  0  0
 15 16  1  0  0  0
 16  1  1  0  0  0
  1  2  1  0  0  0
  2  3  1  0  0  0
  3 17  1  0  0  0
 17 18  1  0  0  0
 18 19  1  0  0  0
 19 22  1  0  0  0
 22 23  1  0  0  0
 22 24  1  0  0  0
 22 25  1  0  0  0
 18 20  2  0  0  0
  3  4  1  0  0  0
  4  5  1  0  0  0
  5  6  1  0  0  0
  5  7  1  0  0  0
  7 26  1  0  0  0
 26 27  1  0  0  0
 27 28  1  0  0  0
 28 29  1  0  0  0
 29 30  1  0  0  0
 30 31  1  0  0  0
 31 32  1  0  0  0
  7  8  1  0  0  0
  8  9  1  0  0  0
 16 11  1  0  0  0
  9  1  1  0  0  0
  8  2  1  0  0  0
 32 27  1  0  0  0
 19 21  1  0  0  0
  6 10  1  0  0  0
 28 33  1  0  0  0
M  END
> <minimizedAffinity>
-7.87361

> <CNNscore>
0.4338912964

> <CNNaffinity>
6.2900991440

> <CNN_VS>
2.7292191982

> <CNNaffinity_variance>
0.3143979609

$$$$
[H]O[C@@]1([H])C([H])([H])C([H])(OC(=O)N([H])C(C([H])([H])[H])(C([H])([H])[H])C([H])([H])[H])C2([H])C([H])(N3C([H])([H])C([H])([H])C([H])([H])C([H])([H])C3([H])[H])O[C@@]2([H])[C@]1([H])C([H])([H])[C@@]1([H])N([H])C([H])([H])C([H])([H])C([H])([H])C1([H])[H]


 33 36  0  0  0  0  0  0  0  0999 V2000
    1.4285    5.1541   12.0327 C   0  0  0  0  0  0  0  0  0  0  0  0
    2.7101    4.9923   12.7310 C   0  0  0  0  0  0  0  0  0  0  0  0
    2.9193    5.7209   14.0314 C   0  0  0  0  0  0  0  0  0  0  0  0
    2.6040    7.1623   13.8744 C   0  0  0  0  0  0  0  0  0  0  0  0
    3.6675    7.7383   12.9455 C   0  0  0  0  0  0  0  0  0  0  0  0
    3.2586    9.0760   12.7123 O   0  0  0  0  0  0  0  0  0  0  0  0
    3.8745    7.0074   11.6989 C   0  0  0  0  0  0  0  0  0  0  0  0
    3.3202    5.6262   11.5664 C   0  0  0  0  0  0  0  0  0  0  0  0
    2.1108    5.5293   10.8832 O   0  0  0  0  0  0  0  0  0  0  0  0
    2.7530    9.4184   13.4910 H   0  0  0  0  0  0  0  0  0  0  0  0
    1.2006    2.8183   12.6131 C   0  0  0  0  0  0  0  0  0  0  0  0
    1.6837    1.7026   11.7542 C   0  0  0  0  0  0  0  0  0  0  0  0
    0.7601    1.3810   10.6063 C   0  0  0  0  0  0  0  0  0  0  0  0
    0.5152    2.6790    9.8646 C   0  0  0  0  0  0  0  0  0  0  0  0
   -0.0462    3.7391   10.7622 C   0  0  0  0  0  0  0  0  0  0  0  0
    0.6678    3.9396   11.9718 N   0  0  0  0  0  0  0  0  0  0  0  0
    2.2900    5.0703   15.0800 O   0  0  0  0  0  0  0  0  0  0  0  0
    2.7970    5.0471   16.3638 C   0  0  0  0  0  0  0  0  0  0  0  0
    4.1852    5.2656   16.6454 N   0  0  0  0  0  0  0  0  0  0  0  0
    1.9603    4.8219   17.2690 O   0  0  0  0  0  0  0  0  0  0  0  0
    4.8598    5.4505   15.8749 H   0  0  0  0  0  0  0  0  0  0  0  0
    4.6681    5.2334   17.9971 C   0  0  0  0  0  0  0  0  0  0  0  0
    4.5196    3.8614   18.6194 C   0  0  0  0  0  0  0  0  0  0  0  0
    6.1529    5.5772   18.0880 C   0  0  0  0  0  0  0  0  0  0  0  0
    3.9494    6.2364   18.8930 C   0  0  0  0  0  0  0  0  0  0  0  0
    5.3309    6.9438   11.3309 C   0  0  0  0  0  0  0  0  0  0  0  0
    5.7523    7.5488   10.0552 C   0  0  0  0  0  0  0  0  0  0  0  0
    6.6352    6.8272    9.2111 N   0  0  0  0  0  0  0  0  0  0  0  0
    5.9989    6.4953    7.9199 C   0  0  0  0  0  0  0  0  0  0  0  0
    5.7570    7.8052    7.2307 C   0  0  0  0  0  0  0  0  0  0  0  0
    4.7696    8.6076    8.0107 C   0  0  0  0  0  0  0  0  0  0  0  0
    4.4616    7.9376    9.3058 C   0  0  0  0  0  0  0  0  0  0  0  0
    7.4576    7.4074    8.9393 H   0  0  0  0  0  0  0  0  0  0  0  0
 11 12  1  0  0  0
 12 13  1  0  0  0
 13 14  1  0  0  0
 14 15  1  0  0  0
 15 16  1  0  0  0
 16  1  1  0  0  0
  1  2  1  0  0  0
  2  3  1  0  0  0
  3 17  1  0  0  0
 17 18  1  0  0  0
 18 19  1  0  0  0
 19 22  1  0  0  0
 22 23  1  0  0  0
 22 24  1  0  0  0
 22 25  1  0  0  0
 18 20  2  0  0  0
  3  4  1  0  0  0
  4  5  1  0  0  0
  5  6  1  0  0  0
  5  7  1  0  0  0
  7 26  1  0  0  0
 26 27  1  0  0  0
 27 28  1  0  0  0
 28 29  1  0  0  0
 29 30  1  0  0  0
 30 31  1  0  0  0
 31 32  1  0  0  0
  7  8  1  0  0  0
  8  9  1  0  0  0
 16 11  1  0  0  0
  9  1  1  0  0  0
  8  2  1  0  0  0
 32 27  1  0  0  0
 19 21  1  0  0  0
  6 10  1  0  0  0
 28 33  1  0  0  0
M  END
> <minimizedAffinity>
-5.82356

> <CNNscore>
0.4203844666

> <CNNaffinity>
5.5808849335

> <CNN_VS>
2.3461172581

> <CNNaffinity_variance>
0.1641934216

$$$$
[H]O[C@@]1([H])C([H])([H])C([H])(OC(=O)N([H])C(C([H])([H])[H])(C([H])([H])[H])C([H])([H])[H])C2([H])C([H])(N3C([H])([H])C([H])([H])C([H])([H])C([H])([H])C3([H])[H])O[C@@]2([H])[C@]1([H])C([H])([H])[C@@]1([H])N([H])C([H])([H])C([H])([H])C([H])([H])C1([H])[H]


 33 36  0  0  0  0  0  0  0  0999 V2000
    3.5086    4.7133   18.2118 C   0  0  0  0  0  0  0  0  0  0  0  0
    4.6839    3.9409   17.7894 C   0  0  0  0  0  0  0  0  0  0  0  0
    4.5282    2.9451   16.6714 C   0  0  0  0  0  0  0  0  0  0  0  0
    3.3910    2.0321   16.9453 C   0  0  0  0  0  0  0  0  0  0  0  0
    3.7962    1.1865   18.1480 C   0  0  0  0  0  0  0  0  0  0  0  0
    2.6408    0.4265   18.4620 O   0  0  0  0  0  0  0  0  0  0  0  0
    4.2871    1.9325   19.3028 C   0  0  0  0  0  0  0  0  0  0  0  0
    4.6739    3.3654   19.1307 C   0  0  0  0  0  0  0  0  0  0  0  0
    3.7138    4.2958   19.5199 O   0  0  0  0  0  0  0  0  0  0  0  0
    2.1061    0.2661   17.6449 H   0  0  0  0  0  0  0  0  0  0  0  0
    4.5003    6.4974   16.9163 C   0  0  0  0  0  0  0  0  0  0  0  0
    5.7597    7.1937   17.2974 C   0  0  0  0  0  0  0  0  0  0  0  0
    5.5710    8.2403   18.3665 C   0  0  0  0  0  0  0  0  0  0  0  0
    4.8576    7.5647   19.5195 C   0  0  0  0  0  0  0  0  0  0  0  0
    3.5586    6.9523   19.0922 C   0  0  0  0  0  0  0  0  0  0  0  0
    3.6379    6.1172   17.9479 N   0  0  0  0  0  0  0  0  0  0  0  0
    4.5224    3.5718   15.4360 O   0  0  0  0  0  0  0  0  0  0  0  0
    3.4416    3.5338   14.5782 C   0  0  0  0  0  0  0  0  0  0  0  0
    3.3950    2.6648   13.4394 N   0  0  0  0  0  0  0  0  0  0  0  0
    2.5011    4.3117   14.8623 O   0  0  0  0  0  0  0  0  0  0  0  0
    4.1898    2.0282   13.2254 H   0  0  0  0  0  0  0  0  0  0  0  0
    2.2490    2.6582   12.5746 C   0  0  0  0  0  0  0  0  0  0  0  0
    2.4584    1.7750   11.3630 C   0  0  0  0  0  0  0  0  0  0  0  0
    1.0014    2.1232   13.2735 C   0  0  0  0  0  0  0  0  0  0  0  0
    1.8874    4.0551   12.0814 C   0  0  0  0  0  0  0  0  0  0  0  0
    5.4421    1.2320   19.9629 C   0  0  0  0  0  0  0  0  0  0  0  0
    5.5110    1.2409   21.4347 C   0  0  0  0  0  0  0  0  0  0  0  0
    6.4041    2.1378   22.0753 N   0  0  0  0  0  0  0  0  0  0  0  0
    5.6798    3.1233   22.9038 C   0  0  0  0  0  0  0  0  0  0  0  0
    5.0315    2.3387   24.0054 C   0  0  0  0  0  0  0  0  0  0  0  0
    4.0092    1.4163   23.4298 C   0  0  0  0  0  0  0  0  0  0  0  0
    4.0676    1.4386   21.9408 C   0  0  0  0  0  0  0  0  0  0  0  0
    7.0138    1.6406   22.7593 H   0  0  0  0  0  0  0  0  0  0  0  0
 11 12  1  0  0  0
 12 13  1  0  0  0
 13 14  1  0  0  0
 14 15  1  0  0  0
 15 16  1  0  0  0
 16  1  1  0  0  0
  1  2  1  0  0  0
  2  3  1  0  0  0
  3 17  1  0  0  0
 17 18  1  0  0  0
 18 19  1  0  0  0
 19 22  1  0  0  0
 22 23  1  0  0  0
 22 24  1  0  0  0
 22 25  1  0  0  0
 18 20  2  0  0  0
  3  4  1  0  0  0
  4  5  1  0  0  0
  5  6  1  0  0  0
  5  7  1  0  0  0
  7 26  1  0  0  0
 26 27  1  0  0  0
 27 28  1  0  0  0
 28 29  1  0  0  0
 29 30  1  0  0  0
 30 31  1  0  0  0
 31 32  1  0  0  0
  7  8  1  0  0  0
  8  9  1  0  0  0
 16 11  1  0  0  0
  9  1  1  0  0  0
  8  2  1  0  0  0
 32 27  1  0  0  0
 19 21  1  0  0  0
  6 10  1  0  0  0
 28 33  1  0  0  0
M  END
> <minimizedAffinity>
-7.65761

> <CNNscore>
0.4072756171

> <CNNaffinity>
6.4368200302

> <CNN_VS>
2.6215598583

> <CNNaffinity_variance>
0.2282497883

$$$$
[H]O[C@@]1([H])C([H])([H])C([H])(OC(=O)N([H])C(C([H])([H])[H])(C([H])([H])[H])C([H])([H])[H])C2([H])C([H])(N3C([H])([H])C([H])([H])C([H])([H])C([H])([H])C3([H])[H])O[C@@]2([H])[C@]1([H])C([H])([H])[C@@]1([H])N([H])C([H])([H])C([H])([H])C([H])([H])C1([H])[H]


 33 36  0  0  0  0  0  0  0  0999 V2000
    4.1475    2.5388   20.4811 C   0  0  0  0  0  0  0  0  0  0  0  0
    5.0456    3.5898   19.9859 C   0  0  0  0  0  0  0  0  0  0  0  0
    4.6892    5.0275   20.2536 C   0  0  0  0  0  0  0  0  0  0  0  0
    3.2962    5.3047   19.8241 C   0  0  0  0  0  0  0  0  0  0  0  0
    3.2825    5.1910   18.3034 C   0  0  0  0  0  0  0  0  0  0  0  0
    1.9180    5.3274   17.9423 O   0  0  0  0  0  0  0  0  0  0  0  0
    3.8697    3.9699   17.7601 C   0  0  0  0  0  0  0  0  0  0  0  0
    4.7148    3.1139   18.6463 C   0  0  0  0  0  0  0  0  0  0  0  0
    4.0737    2.0088   19.2000 O   0  0  0  0  0  0  0  0  0  0  0  0
    1.4452    5.8913   18.6039 H   0  0  0  0  0  0  0  0  0  0  0  0
    3.9532    1.3561   22.5807 C   0  0  0  0  0  0  0  0  0  0  0  0
    4.2823    1.9583   23.9017 C   0  0  0  0  0  0  0  0  0  0  0  0
    5.7605    1.9922   24.1982 C   0  0  0  0  0  0  0  0  0  0  0  0
    6.4280    2.6700   23.0193 C   0  0  0  0  0  0  0  0  0  0  0  0
    6.1261    1.9724   21.7282 C   0  0  0  0  0  0  0  0  0  0  0  0
    4.7503    1.7189   21.4918 N   0  0  0  0  0  0  0  0  0  0  0  0
    5.0110    5.3930   21.5504 O   0  0  0  0  0  0  0  0  0  0  0  0
    6.0895    6.1973   21.8598 C   0  0  0  0  0  0  0  0  0  0  0  0
    6.1958    6.8929   23.1084 N   0  0  0  0  0  0  0  0  0  0  0  0
    6.9719    6.2789   20.9738 O   0  0  0  0  0  0  0  0  0  0  0  0
    5.4485    6.8084   23.8276 H   0  0  0  0  0  0  0  0  0  0  0  0
    7.3369    7.7182   23.3876 C   0  0  0  0  0  0  0  0  0  0  0  0
    8.6257    6.9242   23.3814 C   0  0  0  0  0  0  0  0  0  0  0  0
    7.5189    8.8223   22.3489 C   0  0  0  0  0  0  0  0  0  0  0  0
    7.2257    8.4237   24.7349 C   0  0  0  0  0  0  0  0  0  0  0  0
    4.6630    4.2456   16.5130 C   0  0  0  0  0  0  0  0  0  0  0  0
    5.1194    5.6254   16.2705 C   0  0  0  0  0  0  0  0  0  0  0  0
    4.1532    6.6374   16.0361 N   0  0  0  0  0  0  0  0  0  0  0  0
    4.1814    7.6680   17.0941 C   0  0  0  0  0  0  0  0  0  0  0  0
    5.5151    8.3437   16.9761 C   0  0  0  0  0  0  0  0  0  0  0  0
    6.6009    7.3683   17.2873 C   0  0  0  0  0  0  0  0  0  0  0  0
    6.0384    5.9982   17.4517 C   0  0  0  0  0  0  0  0  0  0  0  0
    4.3672    7.1706   15.1662 H   0  0  0  0  0  0  0  0  0  0  0  0
 11 12  1  0  0  0
 12 13  1  0  0  0
 13 14  1  0  0  0
 14 15  1  0  0  0
 15 16  1  0  0  0
 16  1  1  0  0  0
  1  2  1  0  0  0
  2  3  1  0  0  0
  3 17  1  0  0  0
 17 18  1  0  0  0
 18 19  1  0  0  0
 19 22  1  0  0  0
 22 23  1  0  0  0
 22 24  1  0  0  0
 22 25  1  0  0  0
 18 20  2  0  0  0
  3  4  1  0  0  0
  4  5  1  0  0  0
  5  6  1  0  0  0
  5  7  1  0  0  0
  7 26  1  0  0  0
 26 27  1  0  0  0
 27 28  1  0  0  0
 28 29  1  0  0  0
 29 30  1  0  0  0
 30 31  1  0  0  0
 31 32  1  0  0  0
  7  8  1  0  0  0
  8  9  1  0  0  0
 16 11  1  0  0  0
  9  1  1  0  0  0
  8  2  1  0  0  0
 32 27  1  0  0  0
 19 21  1  0  0  0
  6 10  1  0  0  0
 28 33  1  0  0  0
M  END
> <minimizedAffinity>
-7.92162

> <CNNscore>
0.3736868799

> <CNNaffinity>
6.1920752525

> <CNN_VS>
2.3138973713

> <CNNaffinity_variance>
0.0865058526

$$$$
[H]OC(=O)C([H])([H])[C@@]([H])(C(=O)O[H])N([H])C(=O)[C@@]([H])(N([H])C(=O)[C@@]([H])(N([H])C(=O)[C@@]([H])(N([H])C(=O)[C@@]([H])(N([H])C(=O)OC([H])([H])c1c([H])c([H])c([H])c([H])c1[H])C([H])([H])c1c([H])c([H])c([H])c([H])c1[H])C([H])([H])C([H])(C([H])([H])[H])C([H])([H])[H])C([H])([H])C([H])(C([H])([H])[H])C([H])([H])[H])C([H])([H])[H]


 58 59  0  0  0  0  0  0  0  0999 V2000
    4.2951    5.8514   19.9711 C   0  0  0  0  0  0  0  0  0  0  0  0
    4.2095    7.1444   19.3050 C   0  0  0  0  0  0  0  0  0  0  0  0
    3.7823    7.2781   18.1295 O   0  0  0  0  0  0  0  0  0  0  0  0
    4.6487    8.2641   20.0745 N   0  0  0  0  0  0  0  0  0  0  0  0
    4.7787    7.6572   21.1571 H   0  0  0  0  0  0  0  0  0  0  0  0
    4.9590    9.4977   20.4146 C   0  0  0  0  0  0  0  0  0  0  0  0
    4.4072   10.7080   19.6823 C   0  0  0  0  0  0  0  0  0  0  0  0
    4.9770   11.8063   19.7556 O   0  0  0  0  0  0  0  0  0  0  0  0
    3.2713   10.4742   18.9431 N   0  0  0  0  0  0  0  0  0  0  0  0
    2.9527    9.4001   18.9803 H   0  0  0  0  0  0  0  0  0  0  0  0
    2.3892   11.1608   18.0851 C   0  0  0  0  0  0  0  0  0  0  0  0
    2.1489   12.5581   18.5158 C   0  0  0  0  0  0  0  0  0  0  0  0
    2.8590   11.0176   16.6345 C   0  0  0  0  0  0  0  0  0  0  0  0
    2.7624   12.0098   15.9130 O   0  0  0  0  0  0  0  0  0  0  0  0
    3.3384    9.7765   16.2153 N   0  0  0  0  0  0  0  0  0  0  0  0
    3.2202    9.0157   17.0517 H   0  0  0  0  0  0  0  0  0  0  0  0
    3.8552    9.1484   15.0888 C   0  0  0  0  0  0  0  0  0  0  0  0
    5.2665    9.4545   14.6591 C   0  0  0  0  0  0  0  0  0  0  0  0
    6.1841    9.4094   15.7320 O   0  0  0  0  0  0  0  0  0  0  0  0
    5.5879    9.7123   13.5217 O   0  0  0  0  0  0  0  0  0  0  0  0
    5.8991    9.8375   16.6140 H   0  0  0  0  0  0  0  0  0  0  0  0
    3.0235    9.3508   13.8452 C   0  0  0  0  0  0  0  0  0  0  0  0
    2.8890    8.1330   13.0089 C   0  0  0  0  0  0  0  0  0  0  0  0
    3.7340    7.9513   11.9200 O   0  0  0  0  0  0  0  0  0  0  0  0
    2.0519    7.2198   13.2114 O   0  0  0  0  0  0  0  0  0  0  0  0
    3.3106    7.9925   10.9734 H   0  0  0  0  0  0  0  0  0  0  0  0
    6.4499    9.8478   20.6592 C   0  0  0  0  0  0  0  0  0  0  0  0
    7.3624    9.1849   19.6962 C   0  0  0  0  0  0  0  0  0  0  0  0
    8.5363    8.5650   20.4055 C   0  0  0  0  0  0  0  0  0  0  0  0
    7.9492   10.2193   18.7338 C   0  0  0  0  0  0  0  0  0  0  0  0
    3.7747    4.6407   19.6207 N   0  0  0  0  0  0  0  0  0  0  0  0
    4.1625    3.6681   18.6702 C   0  0  0  0  0  0  0  0  0  0  0  0
    5.0678    3.8616   17.8676 O   0  0  0  0  0  0  0  0  0  0  0  0
    2.8492    4.3476   20.1436 H   0  0  0  0  0  0  0  0  0  0  0  0
    3.4994    2.2789   18.6069 C   0  0  0  0  0  0  0  0  0  0  0  0
    3.2189    1.9486   17.2711 N   0  0  0  0  0  0  0  0  0  0  0  0
    2.7881    0.9147   16.4986 C   0  0  0  0  0  0  0  0  0  0  0  0
    2.4363   -0.2349   16.9067 O   0  0  0  0  0  0  0  0  0  0  0  0
    3.3657    2.9044   16.6339 H   0  0  0  0  0  0  0  0  0  0  0  0
    2.7160    1.0570   15.1177 O   0  0  0  0  0  0  0  0  0  0  0  0
    2.0533    1.8163   14.2686 C   0  0  0  0  0  0  0  0  0  0  0  0
    2.7170    2.5892   13.2174 C   0  0  0  0  0  0  0  0  0  0  0  0
    3.5260    3.6551   13.7196 C   0  0  0  0  0  0  0  0  0  0  0  0
    4.2032    4.4118   12.8053 C   0  0  0  0  0  0  0  0  0  0  0  0
    4.1419    4.2004   11.4835 C   0  0  0  0  0  0  0  0  0  0  0  0
    3.3697    3.1825   10.9734 C   0  0  0  0  0  0  0  0  0  0  0  0
    2.6722    2.4007   11.8864 C   0  0  0  0  0  0  0  0  0  0  0  0
    4.6468    1.4123   19.1782 C   0  0  0  0  0  0  0  0  0  0  0  0
    4.8848    1.4389   20.5846 C   0  0  0  0  0  0  0  0  0  0  0  0
    3.8099    1.5669   21.4784 C   0  0  0  0  0  0  0  0  0  0  0  0
    3.9636    1.7443   22.8040 C   0  0  0  0  0  0  0  0  0  0  0  0
    5.2339    1.8090   23.3271 C   0  0  0  0  0  0  0  0  0  0  0  0
    6.3276    1.6800   22.4639 C   0  0  0  0  0  0  0  0  0  0  0  0
    6.1755    1.4997   21.1300 C   0  0  0  0  0  0  0  0  0  0  0  0
    5.7979    5.6257   20.3344 C   0  0  0  0  0  0  0  0  0  0  0  0
    7.4026    5.5498   22.1579 C   0  0  0  0  0  0  0  0  0  0  0  0
    6.0254    5.0538   21.6769 C   0  0  0  0  0  0  0  0  0  0  0  0
    5.0180    5.4898   22.7179 C   0  0  0  0  0  0  0  0  0  0  0  0
 56 57  1  0  0  0
 57 58  1  0  0  0
 57 55  1  0  0  0
 55  1  1  0  0  0
  1 31  1  0  0  0
 31 32  1  0  0  0
 32 33  2  0  0  0
 32 35  1  0  0  0
 35 48  1  0  0  0
 48 49  1  0  0  0
 49 50  2  0  0  0
 50 51  1  0  0  0
 51 52  2  0  0  0
 52 53  1  0  0  0
 53 54  2  0  0  0
 35 36  1  0  0  0
 36 37  1  0  0  0
 37 38  2  0  0  0
 37 40  1  0  0  0
 40 41  1  0  0  0
 41 42  1  0  0  0
 42 43  2  0  0  0
 43 44  1  0  0  0
 44 45  2  0  0  0
 45 46  1  0  0  0
 46 47  2  0  0  0
  1  2  1  0  0  0
  2  3  2  0  0  0
  2  4  1  0  0  0
  4  6  1  0  0  0
  6 27  1  0  0  0
 27 28  1  0  0  0
 28 29  1  0  0  0
 28 30  1  0  0  0
  6  7  1  0  0  0
  7  8  2  0  0  0
  7  9  1  0  0  0
  9 11  1  0  0  0
 11 12  1  0  0  0
 11 13  1  0  0  0
 13 14  2  0  0  0
 13 15  1  0  0  0
 15 17  1  0  0  0
 17 22  1  0  0  0
 22 23  1  0  0  0
 23 24  1  0  0  0
 23 25  2  0  0  0
 17 18  1  0  0  0
 18 19  1  0  0  0
 18 20  2  0  0  0
 54 49  1  0  0  0
 47 42  1  0  0  0
 31 34  1  0  0  0
 36 39  1  0  0  0
  4  5  1  0  0  0
  9 10  1  0  0  0
 15 16  1  0  0  0
 24 26  1  0  0  0
 19 21  1  0  0  0
M  END
> <minimizedAffinity>
-8.32660

> <CNNscore>
0.2871809900

> <CNNaffinity>
6.8975725174

> <CNN_VS>
1.9808516502

> <CNNaffinity_variance>
0.1016270295

$$$$
[H]OC(=O)C([H])([H])[C@@]([H])(C(=O)O[H])N([H])C(=O)[C@@]([H])(N([H])C(=O)[C@@]([H])(N([H])C(=O)[C@@]([H])(N([H])C(=O)[C@@]([H])(N([H])C(=O)OC([H])([H])c1c([H])c([H])c([H])c([H])c1[H])C([H])([H])c1c([H])c([H])c([H])c([H])c1[H])C([H])([H])C([H])(C([H])([H])[H])C([H])([H])[H])C([H])([H])C([H])(C([H])([H])[H])C([H])([H])[H])C([H])([H])[H]


 58 59  0  0  0  0  0  0  0  0999 V2000
    3.8367    6.9407   17.6151 C   0  0  0  0  0  0  0  0  0  0  0  0
    3.0978    5.7418   17.2415 C   0  0  0  0  0  0  0  0  0  0  0  0
    2.2662    5.1884   18.0059 O   0  0  0  0  0  0  0  0  0  0  0  0
    3.3806    5.2239   15.9413 N   0  0  0  0  0  0  0  0  0  0  0  0
    4.0767    6.1825   15.5489 H   0  0  0  0  0  0  0  0  0  0  0  0
    3.3616    4.4476   14.8781 C   0  0  0  0  0  0  0  0  0  0  0  0
    2.1677    4.3758   13.9427 C   0  0  0  0  0  0  0  0  0  0  0  0
    1.8873    3.3218   13.3537 O   0  0  0  0  0  0  0  0  0  0  0  0
    1.4439    5.5398   13.8310 N   0  0  0  0  0  0  0  0  0  0  0  0
    1.8461    6.3558   14.4862 H   0  0  0  0  0  0  0  0  0  0  0  0
    0.2935    6.0299   13.1815 C   0  0  0  0  0  0  0  0  0  0  0  0
   -0.6405    6.7064   14.1119 C   0  0  0  0  0  0  0  0  0  0  0  0
    0.7006    6.8730   11.9695 C   0  0  0  0  0  0  0  0  0  0  0  0
    0.4758    8.0816   12.0258 O   0  0  0  0  0  0  0  0  0  0  0  0
    1.2716    6.2232   10.8752 N   0  0  0  0  0  0  0  0  0  0  0  0
    1.2670    5.0998   11.0492 H   0  0  0  0  0  0  0  0  0  0  0  0
    1.7870    6.4933    9.6134 C   0  0  0  0  0  0  0  0  0  0  0  0
    2.8240    7.5755    9.4593 C   0  0  0  0  0  0  0  0  0  0  0  0
    2.2796    8.8728    9.5838 O   0  0  0  0  0  0  0  0  0  0  0  0
    3.9970    7.3654    9.2511 O   0  0  0  0  0  0  0  0  0  0  0  0
    1.3905    9.0575    9.1170 H   0  0  0  0  0  0  0  0  0  0  0  0
    0.7326    6.8237    8.5846 C   0  0  0  0  0  0  0  0  0  0  0  0
   -0.4815    5.9764    8.6768 C   0  0  0  0  0  0  0  0  0  0  0  0
   -0.4819    4.7121    8.0985 O   0  0  0  0  0  0  0  0  0  0  0  0
   -1.5422    6.3140    9.2569 O   0  0  0  0  0  0  0  0  0  0  0  0
   -1.0973    4.5620    7.2764 H   0  0  0  0  0  0  0  0  0  0  0  0
    3.8173    2.9727   15.0274 C   0  0  0  0  0  0  0  0  0  0  0  0
    3.3858    2.3637   16.3089 C   0  0  0  0  0  0  0  0  0  0  0  0
    4.5508    2.2020   17.2480 C   0  0  0  0  0  0  0  0  0  0  0  0
    2.8437    0.9544   16.0626 C   0  0  0  0  0  0  0  0  0  0  0  0
    4.2749    7.3645   18.8347 N   0  0  0  0  0  0  0  0  0  0  0  0
    4.1023    8.5720   19.5502 C   0  0  0  0  0  0  0  0  0  0  0  0
    3.5564    9.5523   19.0581 O   0  0  0  0  0  0  0  0  0  0  0  0
    4.9205    6.6589   19.3835 H   0  0  0  0  0  0  0  0  0  0  0  0
    4.5522    8.7237   21.0159 C   0  0  0  0  0  0  0  0  0  0  0  0
    4.5333    7.4704   21.6490 N   0  0  0  0  0  0  0  0  0  0  0  0
    5.1341    6.2501   21.6115 C   0  0  0  0  0  0  0  0  0  0  0  0
    6.0799    5.8996   20.8404 O   0  0  0  0  0  0  0  0  0  0  0  0
    3.7783    7.5299   22.5251 H   0  0  0  0  0  0  0  0  0  0  0  0
    4.7103    5.2362   22.4628 O   0  0  0  0  0  0  0  0  0  0  0  0
    5.2072    4.1067   22.9252 C   0  0  0  0  0  0  0  0  0  0  0  0
    4.9894    2.8195   22.2630 C   0  0  0  0  0  0  0  0  0  0  0  0
    3.7612    2.1895   22.6339 C   0  0  0  0  0  0  0  0  0  0  0  0
    3.4663    0.9942   22.0410 C   0  0  0  0  0  0  0  0  0  0  0  0
    4.2648    0.3996   21.1441 C   0  0  0  0  0  0  0  0  0  0  0  0
    5.4532    0.9833   20.7707 C   0  0  0  0  0  0  0  0  0  0  0  0
    5.7725    2.1998   21.3620 C   0  0  0  0  0  0  0  0  0  0  0  0
    5.9982    9.2288   20.7974 C   0  0  0  0  0  0  0  0  0  0  0  0
    6.3462   10.5262   21.2780 C   0  0  0  0  0  0  0  0  0  0  0  0
    6.0660   11.6628   20.5032 C   0  0  0  0  0  0  0  0  0  0  0  0
    6.4908   12.9004   20.8198 C   0  0  0  0  0  0  0  0  0  0  0  0
    7.2427   13.0786   21.9574 C   0  0  0  0  0  0  0  0  0  0  0  0
    7.5358   11.9667   22.7550 C   0  0  0  0  0  0  0  0  0  0  0  0
    7.1081   10.7208   22.4394 C   0  0  0  0  0  0  0  0  0  0  0  0
    5.0350    7.0648   16.6199 C   0  0  0  0  0  0  0  0  0  0  0  0
    6.6001    8.9065   16.3662 C   0  0  0  0  0  0  0  0  0  0  0  0
    5.1893    8.4005   16.0090 C   0  0  0  0  0  0  0  0  0  0  0  0
    5.0934    8.4091   14.4993 C   0  0  0  0  0  0  0  0  0  0  0  0
 56 57  1  0  0  0
 57 58  1  0  0  0
 57 55  1  0  0  0
 55  1  1  0  0  0
  1 31  1  0  0  0
 31 32  1  0  0  0
 32 33  2  0  0  0
 32 35  1  0  0  0
 35 48  1  0  0  0
 48 49  1  0  0  0
 49 50  2  0  0  0
 50 51  1  0  0  0
 51 52  2  0  0  0
 52 53  1  0  0  0
 53 54  2  0  0  0
 35 36  1  0  0  0
 36 37  1  0  0  0
 37 38  2  0  0  0
 37 40  1  0  0  0
 40 41  1  0  0  0
 41 42  1  0  0  0
 42 43  2  0  0  0
 43 44  1  0  0  0
 44 45  2  0  0  0
 45 46  1  0  0  0
 46 47  2  0  0  0
  1  2  1  0  0  0
  2  3  2  0  0  0
  2  4  1  0  0  0
  4  6  1  0  0  0
  6 27  1  0  0  0
 27 28  1  0  0  0
 28 29  1  0  0  0
 28 30  1  0  0  0
  6  7  1  0  0  0
  7  8  2  0  0  0
  7  9  1  0  0  0
  9 11  1  0  0  0
 11 12  1  0  0  0
 11 13  1  0  0  0
 13 14  2  0  0  0
 13 15  1  0  0  0
 15 17  1  0  0  0
 17 22  1  0  0  0
 22 23  1  0  0  0
 23 24  1  0  0  0
 23 25  2  0  0  0
 17 18  1  0  0  0
 18 19  1  0  0  0
 18 20  2  0  0  0
 54 49  1  0  0  0
 47 42  1  0  0  0
 31 34  1  0  0  0
 36 39  1  0  0  0
  4  5  1  0  0  0
  9 10  1  0  0  0
 15 16  1  0  0  0
 24 26  1  0  0  0
 19 21  1  0  0  0
M  END
> <minimizedAffinity>
-8.03491

> <CNNscore>
0.2544451654

> <CNNaffinity>
6.6346864700

> <CNN_VS>
1.6881638765

> <CNNaffinity_variance>
0.2809120417

$$$$
[H]OC(=O)C([H])([H])[C@@]([H])(C(=O)O[H])N([H])C(=O)[C@@]([H])(N([H])C(=O)[C@@]([H])(N([H])C(=O)[C@@]([H])(N([H])C(=O)[C@@]([H])(N([H])C(=O)OC([H])([H])c1c([H])c([H])c([H])c([H])c1[H])C([H])([H])c1c([H])c([H])c([H])c([H])c1[H])C([H])([H])C([H])(C([H])([H])[H])C([H])([H])[H])C([H])([H])C([H])(C([H])([H])[H])C([H])([H])[H])C([H])([H])[H]


 58 59  0  0  0  0  0  0  0  0999 V2000
    3.8844    7.4948   14.6922 C   0  0  0  0  0  0  0  0  0  0  0  0
    3.6459    8.5204   15.6993 C   0  0  0  0  0  0  0  0  0  0  0  0
    3.0596    9.6033   15.4431 O   0  0  0  0  0  0  0  0  0  0  0  0
    4.1269    8.2206   17.0099 N   0  0  0  0  0  0  0  0  0  0  0  0
    4.4304    7.0309   16.7870 H   0  0  0  0  0  0  0  0  0  0  0  0
    4.4173    8.3412   18.2884 C   0  0  0  0  0  0  0  0  0  0  0  0
    4.6793    7.1412   19.1811 C   0  0  0  0  0  0  0  0  0  0  0  0
    4.9972    6.0468   18.6935 O   0  0  0  0  0  0  0  0  0  0  0  0
    4.5549    7.3797   20.5298 N   0  0  0  0  0  0  0  0  0  0  0  0
    4.3056    8.4499   20.7516 H   0  0  0  0  0  0  0  0  0  0  0  0
    4.7005    6.7029   21.7571 C   0  0  0  0  0  0  0  0  0  0  0  0
    4.0192    5.3871   21.7657 C   0  0  0  0  0  0  0  0  0  0  0  0
    6.1799    6.6520   22.1498 C   0  0  0  0  0  0  0  0  0  0  0  0
    6.8547    5.7376   21.6775 O   0  0  0  0  0  0  0  0  0  0  0  0
    6.6626    7.6195   23.0313 N   0  0  0  0  0  0  0  0  0  0  0  0
    5.8061    8.2753   23.3897 H   0  0  0  0  0  0  0  0  0  0  0  0
    7.8371    8.0060   23.6652 C   0  0  0  0  0  0  0  0  0  0  0  0
    7.7813    8.4670   25.0985 C   0  0  0  0  0  0  0  0  0  0  0  0
    6.4728    8.8012   25.5122 O   0  0  0  0  0  0  0  0  0  0  0  0
    8.7467    8.5460   25.8232 O   0  0  0  0  0  0  0  0  0  0  0  0
    5.8962    9.3386   24.8632 H   0  0  0  0  0  0  0  0  0  0  0  0
    8.5877    9.0972   22.9405 C   0  0  0  0  0  0  0  0  0  0  0  0
    7.7117   10.1464   22.3639 C   0  0  0  0  0  0  0  0  0  0  0  0
    6.7106   10.7110   23.1461 O   0  0  0  0  0  0  0  0  0  0  0  0
    7.8048   10.5857   21.1918 O   0  0  0  0  0  0  0  0  0  0  0  0
    5.7270   10.5074   22.8849 H   0  0  0  0  0  0  0  0  0  0  0  0
    3.5479    9.2827   19.1618 C   0  0  0  0  0  0  0  0  0  0  0  0
    4.1325   10.6380   19.3052 C   0  0  0  0  0  0  0  0  0  0  0  0
    3.2465   11.6769   18.6721 C   0  0  0  0  0  0  0  0  0  0  0  0
    5.4681   10.7134   18.5627 C   0  0  0  0  0  0  0  0  0  0  0  0
    4.1212    6.1591   14.8302 N   0  0  0  0  0  0  0  0  0  0  0  0
    3.4412    5.1303   15.5221 C   0  0  0  0  0  0  0  0  0  0  0  0
    2.4931    5.3563   16.2645 O   0  0  0  0  0  0  0  0  0  0  0  0
    5.0348    5.7816   14.3416 H   0  0  0  0  0  0  0  0  0  0  0  0
    3.8203    3.6463   15.3560 C   0  0  0  0  0  0  0  0  0  0  0  0
    4.1558    3.1006   16.6057 N   0  0  0  0  0  0  0  0  0  0  0  0
    4.0734    1.9448   17.3189 C   0  0  0  0  0  0  0  0  0  0  0  0
    3.5911    0.8424   16.9137 O   0  0  0  0  0  0  0  0  0  0  0  0
    4.7393    3.9075   17.1969 H   0  0  0  0  0  0  0  0  0  0  0  0
    4.5291    1.8996   18.6314 O   0  0  0  0  0  0  0  0  0  0  0  0
    4.2233    1.2339   19.7267 C   0  0  0  0  0  0  0  0  0  0  0  0
    4.6947    1.6373   21.0526 C   0  0  0  0  0  0  0  0  0  0  0  0
    3.7067    1.4942   22.0755 C   0  0  0  0  0  0  0  0  0  0  0  0
    4.0724    1.8242   23.3501 C   0  0  0  0  0  0  0  0  0  0  0  0
    5.2946    2.2675   23.6748 C   0  0  0  0  0  0  0  0  0  0  0  0
    6.2636    2.4160   22.7096 C   0  0  0  0  0  0  0  0  0  0  0  0
    5.9124    2.0860   21.4061 C   0  0  0  0  0  0  0  0  0  0  0  0
    2.4754    3.0870   14.8338 C   0  0  0  0  0  0  0  0  0  0  0  0
    2.2088    3.1516   13.4339 C   0  0  0  0  0  0  0  0  0  0  0  0
    3.2692    3.1463   12.5140 C   0  0  0  0  0  0  0  0  0  0  0  0
    3.1073    3.3494   11.1931 C   0  0  0  0  0  0  0  0  0  0  0  0
    1.8434    3.5788   10.7017 C   0  0  0  0  0  0  0  0  0  0  0  0
    0.7634    3.5857   11.5915 C   0  0  0  0  0  0  0  0  0  0  0  0
    0.9236    3.3799   12.9208 C   0  0  0  0  0  0  0  0  0  0  0  0
    2.7780    7.6623   13.6018 C   0  0  0  0  0  0  0  0  0  0  0  0
    1.8277    7.1634   11.4215 C   0  0  0  0  0  0  0  0  0  0  0  0
    3.0341    6.9230   12.3492 C   0  0  0  0  0  0  0  0  0  0  0  0
    4.2617    7.3837   11.5946 C   0  0  0  0  0  0  0  0  0  0  0  0
 56 57  1  0  0  0
 57 58  1  0  0  0
 57 55  1  0  0  0
 55  1  1  0  0  0
  1 31  1  0  0  0
 31 32  1  0  0  0
 32 33  2  0  0  0
 32 35  1  0  0  0
 35 48  1  0  0  0
 48 49  1  0  0  0
 49 50  2  0  0  0
 50 51  1  0  0  0
 51 52  2  0  0  0
 52 53  1  0  0  0
 53 54  2  0  0  0
 35 36  1  0  0  0
 36 37  1  0  0  0
 37 38  2  0  0  0
 37 40  1  0  0  0
 40 41  1  0  0  0
 41 42  1  0  0  0
 42 43  2  0  0  0
 43 44  1  0  0  0
 44 45  2  0  0  0
 45 46  1  0  0  0
 46 47  2  0  0  0
  1  2  1  0  0  0
  2  3  2  0  0  0
  2  4  1  0  0  0
  4  6  1  0  0  0
  6 27  1  0  0  0
 27 28  1  0  0  0
 28 29  1  0  0  0
 28 30  1  0  0  0
  6  7  1  0  0  0
  7  8  2  0  0  0
  7  9  1  0  0  0
  9 11  1  0  0  0
 11 12  1  0  0  0
 11 13  1  0  0  0
 13 14  2  0  0  0
 13 15  1  0  0  0
 15 17  1  0  0  0
 17 22  1  0  0  0
 22 23  1  0  0  0
 23 24  1  0  0  0
 23 25  2  0  0  0
 17 18  1  0  0  0
 18 19  1  0  0  0
 18 20  2  0  0  0
 54 49  1  0  0  0
 47 42  1  0  0  0
 31 34  1  0  0  0
 36 39  1  0  0  0
  4  5  1  0  0  0
  9 10  1  0  0  0
 15 16  1  0  0  0
 24 26  1  0  0  0
 19 21  1  0  0  0
M  END
> <minimizedAffinity>
-8.67364

> <CNNscore>
0.2429358810

> <CNNaffinity>
7.1756653786

> <CNN_VS>
1.7432266474

> <CNNaffinity_variance>
0.1358407736

$$$$
[H]OC(=O)C([H])([H])[C@@]([H])(C(=O)O[H])N([H])C(=O)[C@@]([H])(N([H])C(=O)[C@@]([H])(N([H])C(=O)[C@@]([H])(N([H])C(=O)[C@@]([H])(N([H])C(=O)OC([H])([H])c1c([H])c([H])c([H])c([H])c1[H])C([H])([H])c1c([H])c([H])c([H])c([H])c1[H])C([H])([H])C([H])(C([H])([H])[H])C([H])([H])[H])C([H])([H])C([H])(C([H])([H])[H])C([H])([H])[H])C([H])([H])[H]


 58 59  0  0  0  0  0  0  0  0999 V2000
    7.5496    8.1107   23.2359 C   0  0  0  0  0  0  0  0  0  0  0  0
    7.2555    9.2170   24.1372 C   0  0  0  0  0  0  0  0  0  0  0  0
    6.5556    9.0836   25.1738 O   0  0  0  0  0  0  0  0  0  0  0  0
    7.8131   10.4783   23.7669 N   0  0  0  0  0  0  0  0  0  0  0  0
    8.5291   10.0555   22.8364 H   0  0  0  0  0  0  0  0  0  0  0  0
    8.1100   11.7610   23.7781 C   0  0  0  0  0  0  0  0  0  0  0  0
    7.4486   12.7586   22.8438 C   0  0  0  0  0  0  0  0  0  0  0  0
    6.8485   13.7455   23.2936 O   0  0  0  0  0  0  0  0  0  0  0  0
    7.5902   12.4846   21.5036 N   0  0  0  0  0  0  0  0  0  0  0  0
    8.2092   11.5683   21.3195 H   0  0  0  0  0  0  0  0  0  0  0  0
    7.2441   13.0348   20.2535 C   0  0  0  0  0  0  0  0  0  0  0  0
    8.1569   12.6027   19.1692 C   0  0  0  0  0  0  0  0  0  0  0  0
    5.7602   12.7846   19.9687 C   0  0  0  0  0  0  0  0  0  0  0  0
    5.0418   13.7734   19.8260 O   0  0  0  0  0  0  0  0  0  0  0  0
    5.3118   11.4647   19.9150 N   0  0  0  0  0  0  0  0  0  0  0  0
    6.1610   10.7585   20.1840 H   0  0  0  0  0  0  0  0  0  0  0  0
    4.1507   10.7317   19.7025 C   0  0  0  0  0  0  0  0  0  0  0  0
    4.2036    9.2286   19.7931 C   0  0  0  0  0  0  0  0  0  0  0  0
    3.0933    8.6070   19.1801 O   0  0  0  0  0  0  0  0  0  0  0  0
    5.0954    8.6130   20.3307 O   0  0  0  0  0  0  0  0  0  0  0  0
    2.1730    9.0172   19.3453 H   0  0  0  0  0  0  0  0  0  0  0  0
    3.4896   11.0126   18.3746 C   0  0  0  0  0  0  0  0  0  0  0  0
    2.3112   11.9086   18.4690 C   0  0  0  0  0  0  0  0  0  0  0  0
    1.1665   11.6170   17.7359 O   0  0  0  0  0  0  0  0  0  0  0  0
    2.2568   12.9396   19.1830 O   0  0  0  0  0  0  0  0  0  0  0  0
    0.9169   12.2614   16.9616 H   0  0  0  0  0  0  0  0  0  0  0  0
    9.6039   12.1774   23.7838 C   0  0  0  0  0  0  0  0  0  0  0  0
   10.1761   12.2503   25.1500 C   0  0  0  0  0  0  0  0  0  0  0  0
   10.5548   10.8820   25.6495 C   0  0  0  0  0  0  0  0  0  0  0  0
    9.1275   12.7816   26.1292 C   0  0  0  0  0  0  0  0  0  0  0  0
    6.7145    7.2217   22.6263 N   0  0  0  0  0  0  0  0  0  0  0  0
    6.8314    5.8445   22.3276 C   0  0  0  0  0  0  0  0  0  0  0  0
    7.8711    5.2216   22.5073 O   0  0  0  0  0  0  0  0  0  0  0  0
    5.7632    7.6364   22.2532 H   0  0  0  0  0  0  0  0  0  0  0  0
    5.6434    5.0213   21.7942 C   0  0  0  0  0  0  0  0  0  0  0  0
    5.6952    4.9692   20.3918 N   0  0  0  0  0  0  0  0  0  0  0  0
    4.9421    5.2295   19.2888 C   0  0  0  0  0  0  0  0  0  0  0  0
    3.7686    5.7139   19.2751 O   0  0  0  0  0  0  0  0  0  0  0  0
    6.7616    4.6326   20.0911 H   0  0  0  0  0  0  0  0  0  0  0  0
    5.4385    4.9474   18.0214 O   0  0  0  0  0  0  0  0  0  0  0  0
    4.9697    4.4253   16.9060 C   0  0  0  0  0  0  0  0  0  0  0  0
    4.3311    3.1090   16.8586 C   0  0  0  0  0  0  0  0  0  0  0  0
    3.7102    2.8227   15.6034 C   0  0  0  0  0  0  0  0  0  0  0  0
    3.1122    1.6019   15.4643 C   0  0  0  0  0  0  0  0  0  0  0  0
    3.0842    0.6800   16.4364 C   0  0  0  0  0  0  0  0  0  0  0  0
    3.6726    0.9303   17.6544 C   0  0  0  0  0  0  0  0  0  0  0  0
    4.2865    2.1664   17.8172 C   0  0  0  0  0  0  0  0  0  0  0  0
    5.9690    3.6472   22.4267 C   0  0  0  0  0  0  0  0  0  0  0  0
    5.3062    2.4902   21.9198 C   0  0  0  0  0  0  0  0  0  0  0  0
    3.9547    2.2627   22.2240 C   0  0  0  0  0  0  0  0  0  0  0  0
    3.3028    1.1287   21.9061 C   0  0  0  0  0  0  0  0  0  0  0  0
    3.9819    0.1280   21.2512 C   0  0  0  0  0  0  0  0  0  0  0  0
    5.3293    0.3248   20.9286 C   0  0  0  0  0  0  0  0  0  0  0  0
    5.9870    1.4656   21.2459 C   0  0  0  0  0  0  0  0  0  0  0  0
    8.5233    8.6600   22.1443 C   0  0  0  0  0  0  0  0  0  0  0  0
   10.1584    7.2333   21.0504 C   0  0  0  0  0  0  0  0  0  0  0  0
    9.9100    8.1635   22.2533 C   0  0  0  0  0  0  0  0  0  0  0  0
   10.9651    9.2459   22.1915 C   0  0  0  0  0  0  0  0  0  0  0  0
 56 57  1  0  0  0
 57 58  1  0  0  0
 57 55  1  0  0  0
 55  1  1  0  0  0
  1 31  1  0  0  0
 31 32  1  0  0  0
 32 33  2  0  0  0
 32 35  1  0  0  0
 35 48  1  0  0  0
 48 49  1  0  0  0
 49 50  2  0  0  0
 50 51  1  0  0  0
 51 52  2  0  0  0
 52 53  1  0  0  0
 53 54  2  0  0  0
 35 36  1  0  0  0
 36 37  1  0  0  0
 37 38  2  0  0  0
 37 40  1  0  0  0
 40 41  1  0  0  0
 41 42  1  0  0  0
 42 43  2  0  0  0
 43 44  1  0  0  0
 44 45  2  0  0  0
 45 46  1  0  0  0
 46 47  2  0  0  0
  1  2  1  0  0  0
  2  3  2  0  0  0
  2  4  1  0  0  0
  4  6  1  0  0  0
  6 27  1  0  0  0
 27 28  1  0  0  0
 28 29  1  0  0  0
 28 30  1  0  0  0
  6  7  1  0  0  0
  7  8  2  0  0  0
  7  9  1  0  0  0
  9 11  1  0  0  0
 11 12  1  0  0  0
 11 13  1  0  0  0
 13 14  2  0  0  0
 13 15  1  0  0  0
 15 17  1  0  0  0
 17 22  1  0  0  0
 22 23  1  0  0  0
 23 24  1  0  0  0
 23 25  2  0  0  0
 17 18  1  0  0  0
 18 19  1  0  0  0
 18 20  2  0  0  0
 54 49  1  0  0  0
 47 42  1  0  0  0
 31 34  1  0  0  0
 36 39  1  0  0  0
  4  5  1  0  0  0
  9 10  1  0  0  0
 15 16  1  0  0  0
 24 26  1  0  0  0
 19 21  1  0  0  0
M  END
> <minimizedAffinity>
-8.84400

> <CNNscore>
0.2384306788

> <CNNaffinity>
6.6562433243

> <CNN_VS>
1.5870525837

> <CNNaffinity_variance>
0.2703282237

$$$$
[H]OC(=O)C([H])([H])[C@@]([H])(C(=O)O[H])N([H])C(=O)[C@@]([H])(N([H])C(=O)[C@@]([H])(N([H])C(=O)[C@@]([H])(N([H])C(=O)[C@@]([H])(N([H])C(=O)OC([H])([H])c1c([H])c([H])c([H])c([H])c1[H])C([H])([H])c1c([H])c([H])c([H])c([H])c1[H])C([H])([H])C([H])(C([H])([H])[H])C([H])([H])[H])C([H])([H])C([H])(C([H])([H])[H])C([H])([H])[H])C([H])([H])[H]


 58 59  0  0  0  0  0  0  0  0999 V2000
    3.9566    5.4832   19.0698 C   0  0  0  0  0  0  0  0  0  0  0  0
    3.9891    6.8753   18.6412 C   0  0  0  0  0  0  0  0  0  0  0  0
    3.6121    7.2456   17.4997 O   0  0  0  0  0  0  0  0  0  0  0  0
    4.4843    7.8053   19.6049 N   0  0  0  0  0  0  0  0  0  0  0  0
    4.5331    7.0102   20.5655 H   0  0  0  0  0  0  0  0  0  0  0  0
    4.8736    8.9321   20.1636 C   0  0  0  0  0  0  0  0  0  0  0  0
    4.4535   10.2918   19.6342 C   0  0  0  0  0  0  0  0  0  0  0  0
    5.1012   11.3097   19.9186 O   0  0  0  0  0  0  0  0  0  0  0  0
    3.3416   10.2841   18.8250 N   0  0  0  0  0  0  0  0  0  0  0  0
    2.9404    9.2500   18.6626 H   0  0  0  0  0  0  0  0  0  0  0  0
    2.5588   11.1788   18.0685 C   0  0  0  0  0  0  0  0  0  0  0  0
    2.4295   12.5068   18.7130 C   0  0  0  0  0  0  0  0  0  0  0  0
    3.0690   11.2230   16.6252 C   0  0  0  0  0  0  0  0  0  0  0  0
    3.4201   12.3182   16.1875 O   0  0  0  0  0  0  0  0  0  0  0  0
    3.0798   10.0361   15.8922 N   0  0  0  0  0  0  0  0  0  0  0  0
    2.6077    9.2019   16.5034 H   0  0  0  0  0  0  0  0  0  0  0  0
    3.4208    9.5520   14.6352 C   0  0  0  0  0  0  0  0  0  0  0  0
    2.9353    8.1885   14.2163 C   0  0  0  0  0  0  0  0  0  0  0  0
    1.5475    8.0193   14.4176 O   0  0  0  0  0  0  0  0  0  0  0  0
    3.6490    7.3264   13.7572 O   0  0  0  0  0  0  0  0  0  0  0  0
    1.1522    8.3684   15.2918 H   0  0  0  0  0  0  0  0  0  0  0  0
    4.9081    9.5250   14.3777 C   0  0  0  0  0  0  0  0  0  0  0  0
    5.7134    9.1189   15.5554 C   0  0  0  0  0  0  0  0  0  0  0  0
    5.9507    7.7697   15.7925 O   0  0  0  0  0  0  0  0  0  0  0  0
    6.2199    9.9177   16.3806 O   0  0  0  0  0  0  0  0  0  0  0  0
    5.5056    7.3451   16.6284 H   0  0  0  0  0  0  0  0  0  0  0  0
    6.3741    9.1073   20.5145 C   0  0  0  0  0  0  0  0  0  0  0  0
    6.7058    8.6302   21.8789 C   0  0  0  0  0  0  0  0  0  0  0  0
    6.3593    9.6684   22.9121 C   0  0  0  0  0  0  0  0  0  0  0  0
    8.2134    8.4002   22.0011 C   0  0  0  0  0  0  0  0  0  0  0  0
    3.6239    4.3542   18.3813 N   0  0  0  0  0  0  0  0  0  0  0  0
    4.1636    3.7392   17.2280 C   0  0  0  0  0  0  0  0  0  0  0  0
    5.0429    4.2653   16.5562 O   0  0  0  0  0  0  0  0  0  0  0  0
    2.7433    3.8065   18.7563 H   0  0  0  0  0  0  0  0  0  0  0  0
    3.7115    2.3426   16.7605 C   0  0  0  0  0  0  0  0  0  0  0  0
    3.5817    1.4910   17.8696 N   0  0  0  0  0  0  0  0  0  0  0  0
    2.9970    0.3234   18.2520 C   0  0  0  0  0  0  0  0  0  0  0  0
    2.3039   -0.4474   17.5188 O   0  0  0  0  0  0  0  0  0  0  0  0
    4.2378    1.9204   18.7218 H   0  0  0  0  0  0  0  0  0  0  0  0
    3.1169   -0.1213   19.5635 O   0  0  0  0  0  0  0  0  0  0  0  0
    2.8665    0.3628   20.7633 C   0  0  0  0  0  0  0  0  0  0  0  0
    3.9172    0.8871   21.6374 C   0  0  0  0  0  0  0  0  0  0  0  0
    5.2265    0.7954   21.0715 C   0  0  0  0  0  0  0  0  0  0  0  0
    6.2646    1.2872   21.8116 C   0  0  0  0  0  0  0  0  0  0  0  0
    6.1095    1.8410   23.0219 C   0  0  0  0  0  0  0  0  0  0  0  0
    4.8607    1.9402   23.5905 C   0  0  0  0  0  0  0  0  0  0  0  0
    3.7906    1.4458   22.8545 C   0  0  0  0  0  0  0  0  0  0  0  0
    2.3338    2.7003   16.1538 C   0  0  0  0  0  0  0  0  0  0  0  0
    2.2459    2.9208   14.7471 C   0  0  0  0  0  0  0  0  0  0  0  0
    2.5750    1.8916   13.8509 C   0  0  0  0  0  0  0  0  0  0  0  0
    2.6563    2.0651   12.5185 C   0  0  0  0  0  0  0  0  0  0  0  0
    2.4102    3.3107   11.9900 C   0  0  0  0  0  0  0  0  0  0  0  0
    2.0746    4.3578   12.8556 C   0  0  0  0  0  0  0  0  0  0  0  0
    1.9904    4.1853   14.1965 C   0  0  0  0  0  0  0  0  0  0  0  0
    5.3075    5.2015   19.8027 C   0  0  0  0  0  0  0  0  0  0  0  0
    6.4260    5.1133   21.9584 C   0  0  0  0  0  0  0  0  0  0  0  0
    5.1629    4.6938   21.1821 C   0  0  0  0  0  0  0  0  0  0  0  0
    3.9805    5.2637   21.9342 C   0  0  0  0  0  0  0  0  0  0  0  0
 56 57  1  0  0  0
 57 58  1  0  0  0
 57 55  1  0  0  0
 55  1  1  0  0  0
  1 31  1  0  0  0
 31 32  1  0  0  0
 32 33  2  0  0  0
 32 35  1  0  0  0
 35 48  1  0  0  0
 48 49  1  0  0  0
 49 50  2  0  0  0
 50 51  1  0  0  0
 51 52  2  0  0  0
 52 53  1  0  0  0
 53 54  2  0  0  0
 35 36  1  0  0  0
 36 37  1  0  0  0
 37 38  2  0  0  0
 37 40  1  0  0  0
 40 41  1  0  0  0
 41 42  1  0  0  0
 42 43  2  0  0  0
 43 44  1  0  0  0
 44 45  2  0  0  0
 45 46  1  0  0  0
 46 47  2  0  0  0
  1  2  1  0  0  0
  2  3  2  0  0  0
  2  4  1  0  0  0
  4  6  1  0  0  0
  6 27  1  0  0  0
 27 28  1  0  0  0
 28 29  1  0  0  0
 28 30  1  0  0  0
  6  7  1  0  0  0
  7  8  2  0  0  0
  7  9  1  0  0  0
  9 11  1  0  0  0
 11 12  1  0  0  0
 11 13  1  0  0  0
 13 14  2  0  0  0
 13 15  1  0  0  0
 15 17  1  0  0  0
 17 22  1  0  0  0
 22 23  1  0  0  0
 23 24  1  0  0  0
 23 25  2  0  0  0
 17 18  1  0  0  0
 18 19  1  0  0  0
 18 20  2  0  0  0
 54 49  1  0  0  0
 47 42  1  0  0  0
 31 34  1  0  0  0
 36 39  1  0  0  0
  4  5  1  0  0  0
  9 10  1  0  0  0
 15 16  1  0  0  0
 24 26  1  0  0  0
 19 21  1  0  0  0
M  END
> <minimizedAffinity>
-9.02258

> <CNNscore>
0.2353807092

> <CNNaffinity>
7.0444016457

> <CNN_VS>
1.6581162214

> <CNNaffinity_variance>
0.1816565692

$$$$
[H]OC(=O)C([H])([H])[C@@]([H])(C(=O)O[H])N([H])C(=O)[C@@]([H])(N([H])C(=O)[C@@]([H])(N([H])C(=O)[C@@]([H])(N([H])C(=O)[C@@]([H])(N([H])C(=O)OC([H])([H])c1c([H])c([H])c([H])c([H])c1[H])C([H])([H])c1c([H])c([H])c([H])c([H])c1[H])C([H])([H])C([H])(C([H])([H])[H])C([H])([H])[H])C([H])([H])C([H])(C([H])([H])[H])C([H])([H])[H])C([H])([H])[H]


 58 59  0  0  0  0  0  0  0  0999 V2000
    4.3198    5.7344   20.7100 C   0  0  0  0  0  0  0  0  0  0  0  0
    3.6740    5.1295   19.5525 C   0  0  0  0  0  0  0  0  0  0  0  0
    2.6824    5.6476   18.9776 O   0  0  0  0  0  0  0  0  0  0  0  0
    4.2386    3.8962   19.1065 N   0  0  0  0  0  0  0  0  0  0  0  0
    5.2468    3.9213   19.8414 H   0  0  0  0  0  0  0  0  0  0  0  0
    4.4307    2.7906   18.4178 C   0  0  0  0  0  0  0  0  0  0  0  0
    3.7717    2.5439   17.0723 C   0  0  0  0  0  0  0  0  0  0  0  0
    3.1002    1.5210   16.8743 O   0  0  0  0  0  0  0  0  0  0  0  0
    3.9663    3.5338   16.1376 N   0  0  0  0  0  0  0  0  0  0  0  0
    4.5658    4.3900   16.5429 H   0  0  0  0  0  0  0  0  0  0  0  0
    3.5946    3.8494   14.8156 C   0  0  0  0  0  0  0  0  0  0  0  0
    3.0707    2.6768   14.0764 C   0  0  0  0  0  0  0  0  0  0  0  0
    2.6639    5.0657   14.8141 C   0  0  0  0  0  0  0  0  0  0  0  0
    1.8635    5.1610   15.7439 O   0  0  0  0  0  0  0  0  0  0  0  0
    2.7602    5.9693   13.7556 N   0  0  0  0  0  0  0  0  0  0  0  0
    3.5058    5.5851   12.9882 H   0  0  0  0  0  0  0  0  0  0  0  0
    2.1970    7.1548   13.2996 C   0  0  0  0  0  0  0  0  0  0  0  0
    1.7455    7.2500   11.8653 C   0  0  0  0  0  0  0  0  0  0  0  0
    0.5787    8.0311   11.7126 O   0  0  0  0  0  0  0  0  0  0  0  0
    2.3138    6.7183   10.9391 O   0  0  0  0  0  0  0  0  0  0  0  0
   -0.1707    7.8966   12.3929 H   0  0  0  0  0  0  0  0  0  0  0  0
    3.0773    8.3640   13.5053 C   0  0  0  0  0  0  0  0  0  0  0  0
    4.4544    8.0349   13.9478 C   0  0  0  0  0  0  0  0  0  0  0  0
    5.4197    7.7083   13.0022 O   0  0  0  0  0  0  0  0  0  0  0  0
    4.8356    8.0313   15.1438 O   0  0  0  0  0  0  0  0  0  0  0  0
    5.7691    6.7311   12.9926 H   0  0  0  0  0  0  0  0  0  0  0  0
    4.3180    1.4293   19.1521 C   0  0  0  0  0  0  0  0  0  0  0  0
    4.4781    1.5526   20.6213 C   0  0  0  0  0  0  0  0  0  0  0  0
    5.7298    0.8586   21.0871 C   0  0  0  0  0  0  0  0  0  0  0  0
    3.3185    0.8550   21.3349 C   0  0  0  0  0  0  0  0  0  0  0  0
    4.5665    7.0436   21.0005 N   0  0  0  0  0  0  0  0  0  0  0  0
    5.0789    8.1165   20.2350 C   0  0  0  0  0  0  0  0  0  0  0  0
    5.5197    7.9609   19.1025 O   0  0  0  0  0  0  0  0  0  0  0  0
    4.3653    7.3497   22.0406 H   0  0  0  0  0  0  0  0  0  0  0  0
    5.0787    9.5656   20.7582 C   0  0  0  0  0  0  0  0  0  0  0  0
    5.7852    9.6315   21.9701 N   0  0  0  0  0  0  0  0  0  0  0  0
    6.6679   10.4161   22.6459 C   0  0  0  0  0  0  0  0  0  0  0  0
    7.1354   11.5308   22.2576 O   0  0  0  0  0  0  0  0  0  0  0  0
    5.4579    8.7292   22.6179 H   0  0  0  0  0  0  0  0  0  0  0  0
    7.1588   10.0110   23.8817 O   0  0  0  0  0  0  0  0  0  0  0  0
    7.2577    8.8770   24.5455 C   0  0  0  0  0  0  0  0  0  0  0  0
    8.1918    7.8172   24.1619 C   0  0  0  0  0  0  0  0  0  0  0  0
    9.1808    7.5430   25.1567 C   0  0  0  0  0  0  0  0  0  0  0  0
   10.0782    6.5476   24.8902 C   0  0  0  0  0  0  0  0  0  0  0  0
   10.0700    5.8318   23.7574 C   0  0  0  0  0  0  0  0  0  0  0  0
    9.1302    6.0762   22.7829 C   0  0  0  0  0  0  0  0  0  0  0  0
    8.2078    7.0849   23.0338 C   0  0  0  0  0  0  0  0  0  0  0  0
    5.8505   10.2606   19.6114 C   0  0  0  0  0  0  0  0  0  0  0  0
    5.2871   11.4320   19.0236 C   0  0  0  0  0  0  0  0  0  0  0  0
    4.0810   11.9562   19.5149 C   0  0  0  0  0  0  0  0  0  0  0  0
    3.4155   12.9666   18.9247 C   0  0  0  0  0  0  0  0  0  0  0  0
    3.9280   13.5247   17.7770 C   0  0  0  0  0  0  0  0  0  0  0  0
    5.1314   13.0286   17.2633 C   0  0  0  0  0  0  0  0  0  0  0  0
    5.8039   12.0132   17.8564 C   0  0  0  0  0  0  0  0  0  0  0  0
    3.6764    5.0882   21.9789 C   0  0  0  0  0  0  0  0  0  0  0  0
    4.0050    3.5190   23.8052 C   0  0  0  0  0  0  0  0  0  0  0  0
    4.6443    4.6778   23.0162 C   0  0  0  0  0  0  0  0  0  0  0  0
    5.9579    4.1611   22.4720 C   0  0  0  0  0  0  0  0  0  0  0  0
 56 57  1  0  0  0
 57 58  1  0  0  0
 57 55  1  0  0  0
 55  1  1  0  0  0
  1 31  1  0  0  0
 31 32  1  0  0  0
 32 33  2  0  0  0
 32 35  1  0  0  0
 35 48  1  0  0  0
 48 49  1  0  0  0
 49 50  2  0  0  0
 50 51  1  0  0  0
 51 52  2  0  0  0
 52 53  1  0  0  0
 53 54  2  0  0  0
 35 36  1  0  0  0
 36 37  1  0  0  0
 37 38  2  0  0  0
 37 40  1  0  0  0
 40 41  1  0  0  0
 41 42  1  0  0  0
 42 43  2  0  0  0
 43 44  1  0  0  0
 44 45  2  0  0  0
 45 46  1  0  0  0
 46 47  2  0  0  0
  1  2  1  0  0  0
  2  3  2  0  0  0
  2  4  1  0  0  0
  4  6  1  0  0  0
  6 27  1  0  0  0
 27 28  1  0  0  0
 28 29  1  0  0  0
 28 30  1  0  0  0
  6  7  1  0  0  0
  7  8  2  0  0  0
  7  9  1  0  0  0
  9 11  1  0  0  0
 11 12  1  0  0  0
 11 13  1  0  0  0
 13 14  2  0  0  0
 13 15  1  0  0  0
 15 17  1  0  0  0
 17 22  1  0  0  0
 22 23  1  0  0  0
 23 24  1  0  0  0
 23 25  2  0  0  0
 17 18  1  0  0  0
 18 19  1  0  0  0
 18 20  2  0  0  0
 54 49  1  0  0  0
 47 42  1  0  0  0
 31 34  1  0  0  0
 36 39  1  0  0  0
  4  5  1  0  0  0
  9 10  1  0  0  0
 15 16  1  0  0  0
 24 26  1  0  0  0
 19 21  1  0  0  0
M  END
> <minimizedAffinity>
-8.57242

> <CNNscore>
0.2351486683

> <CNNaffinity>
6.9172806740

> <CNN_VS>
1.6265892982

> <CNNaffinity_variance>
0.2041927278

$$$$
[H]OC(=O)C([H])([H])[C@@]([H])(C(=O)O[H])N([H])C(=O)[C@@]([H])(N([H])C(=O)[C@@]([H])(N([H])C(=O)[C@@]([H])(N([H])C(=O)[C@@]([H])(N([H])C(=O)OC([H])([H])c1c([H])c([H])c([H])c([H])c1[H])C([H])([H])c1c([H])c([H])c([H])c([H])c1[H])C([H])([H])C([H])(C([H])([H])[H])C([H])([H])[H])C([H])([H])C([H])(C([H])([H])[H])C([H])([H])[H])C([H])([H])[H]


 58 59  0  0  0  0  0  0  0  0999 V2000
    4.8046    5.3019   20.2333 C   0  0  0  0  0  0  0  0  0  0  0  0
    5.6575    6.4829   20.2600 C   0  0  0  0  0  0  0  0  0  0  0  0
    6.8515    6.4699   19.8648 O   0  0  0  0  0  0  0  0  0  0  0  0
    5.0505    7.6697   20.7718 N   0  0  0  0  0  0  0  0  0  0  0  0
    3.8865    7.2244   20.8355 H   0  0  0  0  0  0  0  0  0  0  0  0
    4.8887    8.9138   21.1712 C   0  0  0  0  0  0  0  0  0  0  0  0
    4.6696   10.0597   20.1994 C   0  0  0  0  0  0  0  0  0  0  0  0
    5.3220   11.1089   20.3002 O   0  0  0  0  0  0  0  0  0  0  0  0
    3.7301    9.8245   19.2231 N   0  0  0  0  0  0  0  0  0  0  0  0
    3.2954    8.7933   19.2901 H   0  0  0  0  0  0  0  0  0  0  0  0
    3.1656   10.4630   18.1009 C   0  0  0  0  0  0  0  0  0  0  0  0
    2.7463   11.8546   18.3891 C   0  0  0  0  0  0  0  0  0  0  0  0
    4.1014   10.3206   16.8969 C   0  0  0  0  0  0  0  0  0  0  0  0
    4.7228   11.3237   16.5476 O   0  0  0  0  0  0  0  0  0  0  0  0
    4.1723    9.0821   16.2588 N   0  0  0  0  0  0  0  0  0  0  0  0
    3.4200    8.3667   16.7221 H   0  0  0  0  0  0  0  0  0  0  0  0
    4.8162    8.4537   15.1999 C   0  0  0  0  0  0  0  0  0  0  0  0
    5.8463    9.2173   14.4087 C   0  0  0  0  0  0  0  0  0  0  0  0
    5.2821   10.2672   13.6509 O   0  0  0  0  0  0  0  0  0  0  0  0
    7.0295    8.9654   14.4153 O   0  0  0  0  0  0  0  0  0  0  0  0
    4.4117   10.0742   13.1533 H   0  0  0  0  0  0  0  0  0  0  0  0
    3.8735    7.8936   14.1621 C   0  0  0  0  0  0  0  0  0  0  0  0
    2.5358    8.5347   14.1588 C   0  0  0  0  0  0  0  0  0  0  0  0
    1.4030    7.7606   14.3829 O   0  0  0  0  0  0  0  0  0  0  0  0
    2.3342    9.7591   13.9695 O   0  0  0  0  0  0  0  0  0  0  0  0
    0.7465    7.6320   13.5895 H   0  0  0  0  0  0  0  0  0  0  0  0
    5.8719    9.4898   22.2233 C   0  0  0  0  0  0  0  0  0  0  0  0
    6.8796    8.4988   22.6728 C   0  0  0  0  0  0  0  0  0  0  0  0
    7.0297    8.5241   24.1702 C   0  0  0  0  0  0  0  0  0  0  0  0
    8.2546    8.8558   22.1048 C   0  0  0  0  0  0  0  0  0  0  0  0
    4.1993    4.6726   19.1860 N   0  0  0  0  0  0  0  0  0  0  0  0
    4.6898    4.1498   17.9671 C   0  0  0  0  0  0  0  0  0  0  0  0
    5.8495    4.3098   17.6056 O   0  0  0  0  0  0  0  0  0  0  0  0
    3.1047    4.5621   19.2613 H   0  0  0  0  0  0  0  0  0  0  0  0
    3.8081    3.3047   17.0279 C   0  0  0  0  0  0  0  0  0  0  0  0
    4.0504    3.6712   15.6941 N   0  0  0  0  0  0  0  0  0  0  0  0
    3.4806    4.3370   14.6532 C   0  0  0  0  0  0  0  0  0  0  0  0
    2.3615    4.9365   14.6647 O   0  0  0  0  0  0  0  0  0  0  0  0
    5.1190    3.3186   15.4206 H   0  0  0  0  0  0  0  0  0  0  0  0
    4.1252    4.3933   13.4229 O   0  0  0  0  0  0  0  0  0  0  0  0
    3.7702    4.3421   12.1549 C   0  0  0  0  0  0  0  0  0  0  0  0
    2.7254    3.4420   11.6640 C   0  0  0  0  0  0  0  0  0  0  0  0
    2.1644    3.8496   10.4141 C   0  0  0  0  0  0  0  0  0  0  0  0
    1.1990    3.0499    9.8703 C   0  0  0  0  0  0  0  0  0  0  0  0
    0.7648    1.9217   10.4484 C   0  0  0  0  0  0  0  0  0  0  0  0
    1.2864    1.5073   11.6520 C   0  0  0  0  0  0  0  0  0  0  0  0
    2.2697    2.3065   12.2228 C   0  0  0  0  0  0  0  0  0  0  0  0
    4.3646    1.8952   17.3405 C   0  0  0  0  0  0  0  0  0  0  0  0
    3.7640    1.1445   18.3945 C   0  0  0  0  0  0  0  0  0  0  0  0
    4.3217    1.1684   19.6826 C   0  0  0  0  0  0  0  0  0  0  0  0
    3.9015    0.3786   20.6884 C   0  0  0  0  0  0  0  0  0  0  0  0
    2.8745   -0.5069   20.4590 C   0  0  0  0  0  0  0  0  0  0  0  0
    2.2930   -0.5526   19.1870 C   0  0  0  0  0  0  0  0  0  0  0  0
    2.7129    0.2424   18.1738 C   0  0  0  0  0  0  0  0  0  0  0  0
    5.5196    4.2053   21.0863 C   0  0  0  0  0  0  0  0  0  0  0  0
    5.6376    2.8418   23.0945 C   0  0  0  0  0  0  0  0  0  0  0  0
    4.6945    3.6375   22.1717 C   0  0  0  0  0  0  0  0  0  0  0  0
    4.0085    4.6711   23.0376 C   0  0  0  0  0  0  0  0  0  0  0  0
 56 57  1  0  0  0
 57 58  1  0  0  0
 57 55  1  0  0  0
 55  1  1  0  0  0
  1 31  1  0  0  0
 31 32  1  0  0  0
 32 33  2  0  0  0
 32 35  1  0  0  0
 35 48  1  0  0  0
 48 49  1  0  0  0
 49 50  2  0  0  0
 50 51  1  0  0  0
 51 52  2  0  0  0
 52 53  1  0  0  0
 53 54  2  0  0  0
 35 36  1  0  0  0
 36 37  1  0  0  0
 37 38  2  0  0  0
 37 40  1  0  0  0
 40 41  1  0  0  0
 41 42  1  0  0  0
 42 43  2  0  0  0
 43 44  1  0  0  0
 44 45  2  0  0  0
 45 46  1  0  0  0
 46 47  2  0  0  0
  1  2  1  0  0  0
  2  3  2  0  0  0
  2  4  1  0  0  0
  4  6  1  0  0  0
  6 27  1  0  0  0
 27 28  1  0  0  0
 28 29  1  0  0  0
 28 30  1  0  0  0
  6  7  1  0  0  0
  7  8  2  0  0  0
  7  9  1  0  0  0
  9 11  1  0  0  0
 11 12  1  0  0  0
 11 13  1  0  0  0
 13 14  2  0  0  0
 13 15  1  0  0  0
 15 17  1  0  0  0
 17 22  1  0  0  0
 22 23  1  0  0  0
 23 24  1  0  0  0
 23 25  2  0  0  0
 17 18  1  0  0  0
 18 19  1  0  0  0
 18 20  2  0  0  0
 54 49  1  0  0  0
 47 42  1  0  0  0
 31 34  1  0  0  0
 36 39  1  0  0  0
  4  5  1  0  0  0
  9 10  1  0  0  0
 15 16  1  0  0  0
 24 26  1  0  0  0
 19 21  1  0  0  0
M  END
> <minimizedAffinity>
-8.36036

> <CNNscore>
0.2170460075

> <CNNaffinity>
6.8787145615

> <CNN_VS>
1.4929975271

> <CNNaffinity_variance>
0.2120446265

$$$$
[H]OC(=O)C([H])([H])[C@@]([H])(C(=O)O[H])N([H])C(=O)[C@@]([H])(N([H])C(=O)[C@@]([H])(N([H])C(=O)[C@@]([H])(N([H])C(=O)[C@@]([H])(N([H])C(=O)OC([H])([H])c1c([H])c([H])c([H])c([H])c1[H])C([H])([H])c1c([H])c([H])c([H])c([H])c1[H])C([H])([H])C([H])(C([H])([H])[H])C([H])([H])[H])C([H])([H])C([H])(C([H])([H])[H])C([H])([H])[H])C([H])([H])[H]


 58 59  0  0  0  0  0  0  0  0999 V2000
    4.9675    5.9694   19.3438 C   0  0  0  0  0  0  0  0  0  0  0  0
    5.4843    7.2915   19.0156 C   0  0  0  0  0  0  0  0  0  0  0  0
    6.6661    7.6424   19.2657 O   0  0  0  0  0  0  0  0  0  0  0  0
    4.5565    8.1776   18.3888 N   0  0  0  0  0  0  0  0  0  0  0  0
    3.6527    7.3374   18.2031 H   0  0  0  0  0  0  0  0  0  0  0  0
    4.0406    9.2583   17.8416 C   0  0  0  0  0  0  0  0  0  0  0  0
    3.6516    9.3228   16.3753 C   0  0  0  0  0  0  0  0  0  0  0  0
    3.0395   10.3022   15.9252 O   0  0  0  0  0  0  0  0  0  0  0  0
    4.0448    8.2431   15.6198 N   0  0  0  0  0  0  0  0  0  0  0  0
    4.6259    7.4939   16.2180 H   0  0  0  0  0  0  0  0  0  0  0  0
    3.9982    7.7931   14.2853 C   0  0  0  0  0  0  0  0  0  0  0  0
    2.6768    8.0198   13.6542 C   0  0  0  0  0  0  0  0  0  0  0  0
    5.1810    8.3691   13.5013 C   0  0  0  0  0  0  0  0  0  0  0  0
    5.8215    9.2736   14.0361 O   0  0  0  0  0  0  0  0  0  0  0  0
    5.4423    7.8575   12.2301 N   0  0  0  0  0  0  0  0  0  0  0  0
    4.6372    7.1077   11.9440 H   0  0  0  0  0  0  0  0  0  0  0  0
    6.3290    8.0100   11.1713 C   0  0  0  0  0  0  0  0  0  0  0  0
    5.8151    7.8943    9.7597 C   0  0  0  0  0  0  0  0  0  0  0  0
    5.6514    9.1506    9.1353 O   0  0  0  0  0  0  0  0  0  0  0  0
    5.5665    6.8443    9.2128 O   0  0  0  0  0  0  0  0  0  0  0  0
    5.2318    9.9000    9.6873 H   0  0  0  0  0  0  0  0  0  0  0  0
    7.5095    7.0705   11.2276 C   0  0  0  0  0  0  0  0  0  0  0  0
    8.6717    7.6119   11.9737 C   0  0  0  0  0  0  0  0  0  0  0  0
    8.4843    8.6547   12.8738 O   0  0  0  0  0  0  0  0  0  0  0  0
    9.8486    7.1902   11.8609 O   0  0  0  0  0  0  0  0  0  0  0  0
    8.8975    9.5756   12.6322 H   0  0  0  0  0  0  0  0  0  0  0  0
    4.7191   10.6256   18.1158 C   0  0  0  0  0  0  0  0  0  0  0  0
    4.4870   11.1171   19.4957 C   0  0  0  0  0  0  0  0  0  0  0  0
    4.1184   12.5764   19.4931 C   0  0  0  0  0  0  0  0  0  0  0  0
    5.7752   11.0087   20.3139 C   0  0  0  0  0  0  0  0  0  0  0  0
    4.5225    4.9681   18.5323 N   0  0  0  0  0  0  0  0  0  0  0  0
    5.1574    4.1785   17.5458 C   0  0  0  0  0  0  0  0  0  0  0  0
    6.3055    4.3923   17.1750 O   0  0  0  0  0  0  0  0  0  0  0  0
    3.4507    4.7234   18.6170 H   0  0  0  0  0  0  0  0  0  0  0  0
    4.4616    2.9658   16.8987 C   0  0  0  0  0  0  0  0  0  0  0  0
    4.1770    2.0034   17.8810 N   0  0  0  0  0  0  0  0  0  0  0  0
    3.3774    0.9281   18.1171 C   0  0  0  0  0  0  0  0  0  0  0  0
    2.5394    0.4209   17.3094 O   0  0  0  0  0  0  0  0  0  0  0  0
    4.9127    2.1692   18.7598 H   0  0  0  0  0  0  0  0  0  0  0  0
    3.4196    0.2828   19.3475 O   0  0  0  0  0  0  0  0  0  0  0  0
    3.1915    0.6061   20.6045 C   0  0  0  0  0  0  0  0  0  0  0  0
    4.2304    1.1510   21.4799 C   0  0  0  0  0  0  0  0  0  0  0  0
    3.7298    1.6184   22.7345 C   0  0  0  0  0  0  0  0  0  0  0  0
    4.6382    2.1195   23.6239 C   0  0  0  0  0  0  0  0  0  0  0  0
    5.9528    2.1896   23.3741 C   0  0  0  0  0  0  0  0  0  0  0  0
    6.4609    1.7484   22.1742 C   0  0  0  0  0  0  0  0  0  0  0  0
    5.5539    1.2350   21.2549 C   0  0  0  0  0  0  0  0  0  0  0  0
    3.1729    3.6467   16.3794 C   0  0  0  0  0  0  0  0  0  0  0  0
    2.7943    3.4402   15.0196 C   0  0  0  0  0  0  0  0  0  0  0  0
    2.0044    4.3923   14.3560 C   0  0  0  0  0  0  0  0  0  0  0  0
    1.4883    4.2026   13.1273 C   0  0  0  0  0  0  0  0  0  0  0  0
    1.7351    3.0179   12.4739 C   0  0  0  0  0  0  0  0  0  0  0  0
    2.5232    2.0492   13.1055 C   0  0  0  0  0  0  0  0  0  0  0  0
    3.0451    2.2385   14.3411 C   0  0  0  0  0  0  0  0  0  0  0  0
    5.9628    5.3333   20.3667 C   0  0  0  0  0  0  0  0  0  0  0  0
    6.0940    6.4740   22.5085 C   0  0  0  0  0  0  0  0  0  0  0  0
    5.4662    5.2846   21.7568 C   0  0  0  0  0  0  0  0  0  0  0  0
    3.9661    5.4304   21.8871 C   0  0  0  0  0  0  0  0  0  0  0  0
 56 57  1  0  0  0
 57 58  1  0  0  0
 57 55  1  0  0  0
 55  1  1  0  0  0
  1 31  1  0  0  0
 31 32  1  0  0  0
 32 33  2  0  0  0
 32 35  1  0  0  0
 35 48  1  0  0  0
 48 49  1  0  0  0
 49 50  2  0  0  0
 50 51  1  0  0  0
 51 52  2  0  0  0
 52 53  1  0  0  0
 53 54  2  0  0  0
 35 36  1  0  0  0
 36 37  1  0  0  0
 37 38  2  0  0  0
 37 40  1  0  0  0
 40 41  1  0  0  0
 41 42  1  0  0  0
 42 43  2  0  0  0
 43 44  1  0  0  0
 44 45  2  0  0  0
 45 46  1  0  0  0
 46 47  2  0  0  0
  1  2  1  0  0  0
  2  3  2  0  0  0
  2  4  1  0  0  0
  4  6  1  0  0  0
  6 27  1  0  0  0
 27 28  1  0  0  0
 28 29  1  0  0  0
 28 30  1  0  0  0
  6  7  1  0  0  0
  7  8  2  0  0  0
  7  9  1  0  0  0
  9 11  1  0  0  0
 11 12  1  0  0  0
 11 13  1  0  0  0
 13 14  2  0  0  0
 13 15  1  0  0  0
 15 17  1  0  0  0
 17 22  1  0  0  0
 22 23  1  0  0  0
 23 24  1  0  0  0
 23 25  2  0  0  0
 17 18  1  0  0  0
 18 19  1  0  0  0
 18 20  2  0  0  0
 54 49  1  0  0  0
 47 42  1  0  0  0
 31 34  1  0  0  0
 36 39  1  0  0  0
  4  5  1  0  0  0
  9 10  1  0  0  0
 15 16  1  0  0  0
 24 26  1  0  0  0
 19 21  1  0  0  0
M  END
> <minimizedAffinity>
-8.69217

> <CNNscore>
0.1830334961

> <CNNaffinity>
6.7505097389

> <CNN_VS>
1.2355693579

> <CNNaffinity_variance>
0.4426933825

$$$$
[H]OC(=O)C([H])([H])[C@@]([H])(C(=O)O[H])N([H])C(=O)[C@@]([H])(N([H])C(=O)[C@@]([H])(N([H])C(=O)[C@@]([H])(N([H])C(=O)[C@@]([H])(N([H])C(=O)OC([H])([H])c1c([H])c([H])c([H])c([H])c1[H])C([H])([H])c1c([H])c([H])c([H])c([H])c1[H])C([H])([H])C([H])(C([H])([H])[H])C([H])([H])[H])C([H])([H])C([H])(C([H])([H])[H])C([H])([H])[H])C([H])([H])[H]


 58 59  0  0  0  0  0  0  0  0999 V2000
    4.0032    5.5855   18.3394 C   0  0  0  0  0  0  0  0  0  0  0  0
    4.0683    6.9157   17.7485 C   0  0  0  0  0  0  0  0  0  0  0  0
    4.4139    7.1150   16.5556 O   0  0  0  0  0  0  0  0  0  0  0  0
    3.7157    7.9933   18.6165 N   0  0  0  0  0  0  0  0  0  0  0  0
    3.2936    7.2919   19.5584 H   0  0  0  0  0  0  0  0  0  0  0  0
    3.4969    9.2118   19.0646 C   0  0  0  0  0  0  0  0  0  0  0  0
    3.0631   10.3485   18.1561 C   0  0  0  0  0  0  0  0  0  0  0  0
    2.4648   11.3324   18.6147 O   0  0  0  0  0  0  0  0  0  0  0  0
    3.4014   10.1977   16.8316 N   0  0  0  0  0  0  0  0  0  0  0  0
    3.9799    9.2558   16.6446 H   0  0  0  0  0  0  0  0  0  0  0  0
    3.2995   10.8958   15.6119 C   0  0  0  0  0  0  0  0  0  0  0  0
    3.8569   12.2663   15.6924 C   0  0  0  0  0  0  0  0  0  0  0  0
    3.8749   10.0443   14.4764 C   0  0  0  0  0  0  0  0  0  0  0  0
    4.9546   10.3968   14.0025 O   0  0  0  0  0  0  0  0  0  0  0  0
    3.1357    8.9471   14.0341 N   0  0  0  0  0  0  0  0  0  0  0  0
    2.1352    8.9146   14.5729 H   0  0  0  0  0  0  0  0  0  0  0  0
    3.1938    7.9158   13.1047 C   0  0  0  0  0  0  0  0  0  0  0  0
    2.4172    8.0401   11.8196 C   0  0  0  0  0  0  0  0  0  0  0  0
    3.0213    7.3443   10.7491 O   0  0  0  0  0  0  0  0  0  0  0  0
    1.3879    8.6658   11.7074 O   0  0  0  0  0  0  0  0  0  0  0  0
    4.0347    7.4201   10.6501 H   0  0  0  0  0  0  0  0  0  0  0  0
    2.7965    6.5710   13.6641 C   0  0  0  0  0  0  0  0  0  0  0  0
    1.3348    6.4107   13.8590 C   0  0  0  0  0  0  0  0  0  0  0  0
    0.6158    7.4062   14.5108 O   0  0  0  0  0  0  0  0  0  0  0  0
    0.6692    5.4211   13.4674 O   0  0  0  0  0  0  0  0  0  0  0  0
    0.2188    7.1781   15.4422 H   0  0  0  0  0  0  0  0  0  0  0  0
    4.5474    9.8566   20.0058 C   0  0  0  0  0  0  0  0  0  0  0  0
    5.3838    8.8534   20.7083 C   0  0  0  0  0  0  0  0  0  0  0  0
    5.4896    9.1722   22.1754 C   0  0  0  0  0  0  0  0  0  0  0  0
    6.8133    8.8902   20.1644 C   0  0  0  0  0  0  0  0  0  0  0  0
    3.6855    4.3840   17.7784 N   0  0  0  0  0  0  0  0  0  0  0  0
    4.4517    3.4105   17.0965 C   0  0  0  0  0  0  0  0  0  0  0  0
    5.6244    3.5948   16.7934 O   0  0  0  0  0  0  0  0  0  0  0  0
    2.6204    4.1017   17.8220 H   0  0  0  0  0  0  0  0  0  0  0  0
    3.8747    2.0312   16.7249 C   0  0  0  0  0  0  0  0  0  0  0  0
    3.6804    1.2700   17.8889 N   0  0  0  0  0  0  0  0  0  0  0  0
    2.9174    0.2576   18.3833 C   0  0  0  0  0  0  0  0  0  0  0  0
    2.0280   -0.3926   17.7523 O   0  0  0  0  0  0  0  0  0  0  0  0
    4.4783    1.5981   18.6614 H   0  0  0  0  0  0  0  0  0  0  0  0
    3.0630   -0.1455   19.7056 O   0  0  0  0  0  0  0  0  0  0  0  0
    2.9548    0.4156   20.8931 C   0  0  0  0  0  0  0  0  0  0  0  0
    4.0893    1.0371   21.5783 C   0  0  0  0  0  0  0  0  0  0  0  0
    3.7257    1.7091   22.7862 C   0  0  0  0  0  0  0  0  0  0  0  0
    4.7301    2.2954   23.5036 C   0  0  0  0  0  0  0  0  0  0  0  0
    6.0165    2.2672   23.1293 C   0  0  0  0  0  0  0  0  0  0  0  0
    6.3936    1.6289   21.9704 C   0  0  0  0  0  0  0  0  0  0  0  0
    5.3872    1.0259   21.2254 C   0  0  0  0  0  0  0  0  0  0  0  0
    2.5285    2.4677   16.0995 C   0  0  0  0  0  0  0  0  0  0  0  0
    2.4369    2.5635   14.6791 C   0  0  0  0  0  0  0  0  0  0  0  0
    1.4009    1.9088   13.9944 C   0  0  0  0  0  0  0  0  0  0  0  0
    1.3303    1.8319   12.6523 C   0  0  0  0  0  0  0  0  0  0  0  0
    2.3186    2.4174   11.8960 C   0  0  0  0  0  0  0  0  0  0  0  0
    3.3634    3.0825   12.5474 C   0  0  0  0  0  0  0  0  0  0  0  0
    3.4357    3.1627   13.8977 C   0  0  0  0  0  0  0  0  0  0  0  0
    5.3207    5.3855   19.1553 C   0  0  0  0  0  0  0  0  0  0  0  0
    6.3035    5.3559   21.3777 C   0  0  0  0  0  0  0  0  0  0  0  0
    5.1227    4.8598   20.5212 C   0  0  0  0  0  0  0  0  0  0  0  0
    3.8599    5.3457   21.1980 C   0  0  0  0  0  0  0  0  0  0  0  0
 56 57  1  0  0  0
 57 58  1  0  0  0
 57 55  1  0  0  0
 55  1  1  0  0  0
  1 31  1  0  0  0
 31 32  1  0  0  0
 32 33  2  0  0  0
 32 35  1  0  0  0
 35 48  1  0  0  0
 48 49  1  0  0  0
 49 50  2  0  0  0
 50 51  1  0  0  0
 51 52  2  0  0  0
 52 53  1  0  0  0
 53 54  2  0  0  0
 35 36  1  0  0  0
 36 37  1  0  0  0
 37 38  2  0  0  0
 37 40  1  0  0  0
 40 41  1  0  0  0
 41 42  1  0  0  0
 42 43  2  0  0  0
 43 44  1  0  0  0
 44 45  2  0  0  0
 45 46  1  0  0  0
 46 47  2  0  0  0
  1  2  1  0  0  0
  2  3  2  0  0  0
  2  4  1  0  0  0
  4  6  1  0  0  0
  6 27  1  0  0  0
 27 28  1  0  0  0
 28 29  1  0  0  0
 28 30  1  0  0  0
  6  7  1  0  0  0
  7  8  2  0  0  0
  7  9  1  0  0  0
  9 11  1  0  0  0
 11 12  1  0  0  0
 11 13  1  0  0  0
 13 14  2  0  0  0
 13 15  1  0  0  0
 15 17  1  0  0  0
 17 22  1  0  0  0
 22 23  1  0  0  0
 23 24  1  0  0  0
 23 25  2  0  0  0
 17 18  1  0  0  0
 18 19  1  0  0  0
 18 20  2  0  0  0
 54 49  1  0  0  0
 47 42  1  0  0  0
 31 34  1  0  0  0
 36 39  1  0  0  0
  4  5  1  0  0  0
  9 10  1  0  0  0
 15 16  1  0  0  0
 24 26  1  0  0  0
 19 21  1  0  0  0
M  END
> <minimizedAffinity>
-9.07023

> <CNNscore>
0.1822366863

> <CNNaffinity>
6.8970832825

> <CNN_VS>
1.2569016218

> <CNNaffinity_variance>
0.3906543851

$$$$
[H]OC(=O)C([H])([H])[C@@]([H])(C(=O)N([H])[H])N([H])C(=O)[C@@]([H])(N([H])C(=O)[C@@]([H])(N([H])C(=O)C([H])([H])[H])C([H])([H])c1c([H])n([H])c2c([H])c([H])c([H])c([H])c12)C([H])([H])c1c([H])c([H])c([H])c([H])c1[H]


 44 46  0  0  0  0  0  0  0  0999 V2000
    4.9154    5.7575   19.9111 C   0  0  0  0  0  0  0  0  0  0  0  0
    3.7649    5.0000   17.8227 C   0  0  0  0  0  0  0  0  0  0  0  0
    2.6501    5.1687   18.3646 O   0  0  0  0  0  0  0  0  0  0  0  0
    4.9299    5.2806   18.5669 N   0  0  0  0  0  0  0  0  0  0  0  0
    5.8613    5.1306   18.1072 H   0  0  0  0  0  0  0  0  0  0  0  0
    3.8402    4.5046   16.4010 C   0  0  0  0  0  0  0  0  0  0  0  0
    4.0313    7.4793   13.9137 C   0  0  0  0  0  0  0  0  0  0  0  0
    3.5129    6.3892   14.7699 C   0  0  0  0  0  0  0  0  0  0  0  0
    2.2764    6.1840   14.7927 O   0  0  0  0  0  0  0  0  0  0  0  0
    4.3462    5.5597   15.5710 N   0  0  0  0  0  0  0  0  0  0  0  0
    5.3911    5.7210   15.5683 H   0  0  0  0  0  0  0  0  0  0  0  0
    4.6252    3.2376   16.3987 C   0  0  0  0  0  0  0  0  0  0  0  0
    3.7950    2.0942   16.8121 C   0  0  0  0  0  0  0  0  0  0  0  0
    2.9668    1.3847   15.9228 C   0  0  0  0  0  0  0  0  0  0  0  0
    2.3753    0.3888   16.5918 N   0  0  0  0  0  0  0  0  0  0  0  0
    2.7797    0.4199   17.8689 C   0  0  0  0  0  0  0  0  0  0  0  0
    2.4466   -0.3919   18.9631 C   0  0  0  0  0  0  0  0  0  0  0  0
    2.9862   -0.1650   20.2262 C   0  0  0  0  0  0  0  0  0  0  0  0
    3.8540    0.8879   20.3410 C   0  0  0  0  0  0  0  0  0  0  0  0
    4.1914    1.6954   19.2745 C   0  0  0  0  0  0  0  0  0  0  0  0
    3.6536    1.4638   18.0231 C   0  0  0  0  0  0  0  0  0  0  0  0
    1.7123   -0.2953   16.1906 H   0  0  0  0  0  0  0  0  0  0  0  0
    5.0301    7.2203   20.0588 C   0  0  0  0  0  0  0  0  0  0  0  0
    4.1793    8.0023   19.5408 O   0  0  0  0  0  0  0  0  0  0  0  0
    6.1077    7.7913   20.7938 N   0  0  0  0  0  0  0  0  0  0  0  0
    6.8077    7.1490   21.2311 H   0  0  0  0  0  0  0  0  0  0  0  0
    6.2322    9.2504   20.9328 C   0  0  0  0  0  0  0  0  0  0  0  0
    7.2363    9.7570   20.0040 C   0  0  0  0  0  0  0  0  0  0  0  0
    8.6094    9.9933   20.2852 N   0  0  0  0  0  0  0  0  0  0  0  0
    6.8707   10.0243   18.8138 O   0  0  0  0  0  0  0  0  0  0  0  0
    9.3778    9.5733   19.7340 H   0  0  0  0  0  0  0  0  0  0  0  0
    8.8548   10.6161   21.0786 H   0  0  0  0  0  0  0  0  0  0  0  0
    6.5263    9.5398   22.3893 C   0  0  0  0  0  0  0  0  0  0  0  0
    7.2126    8.3658   22.9724 C   0  0  0  0  0  0  0  0  0  0  0  0
    6.4399    7.4666   23.7065 O   0  0  0  0  0  0  0  0  0  0  0  0
    8.4389    8.1122   22.8606 O   0  0  0  0  0  0  0  0  0  0  0  0
    6.6073    7.3464   24.7157 H   0  0  0  0  0  0  0  0  0  0  0  0
    5.9466    5.0659   20.7811 C   0  0  0  0  0  0  0  0  0  0  0  0
    5.4114    4.2670   21.8729 C   0  0  0  0  0  0  0  0  0  0  0  0
    4.2366    4.5587   22.5523 C   0  0  0  0  0  0  0  0  0  0  0  0
    3.8501    3.7194   23.5564 C   0  0  0  0  0  0  0  0  0  0  0  0
    4.5950    2.6102   23.8971 C   0  0  0  0  0  0  0  0  0  0  0  0
    5.7656    2.2934   23.2418 C   0  0  0  0  0  0  0  0  0  0  0  0
    6.1697    3.1319   22.2251 C   0  0  0  0  0  0  0  0  0  0  0  0
  7  8  1  0  0  0
  8  9  2  0  0  0
  8 10  1  0  0  0
 10  6  1  0  0  0
  6 12  1  0  0  0
 12 13  1  0  0  0
 13 14  2  0  0  0
 14 15  1  0  0  0
 15 16  1  0  0  0
 16 17  2  0  0  0
 17 18  1  0  0  0
 18 19  2  0  0  0
 19 20  1  0  0  0
 20 21  2  0  0  0
  6  2  1  0  0  0
  2  3  2  0  0  0
  2  4  1  0  0  0
  4  1  1  0  0  0
  1 38  1  0  0  0
 38 39  1  0  0  0
 39 40  2  0  0  0
 40 41  1  0  0  0
 41 42  2  0  0  0
 42 43  1  0  0  0
 43 44  2  0  0  0
  1 23  1  0  0  0
 23 24  2  0  0  0
 23 25  1  0  0  0
 25 27  1  0  0  0
 27 33  1  0  0  0
 33 34  1  0  0  0
 34 35  1  0  0  0
 34 36  2  0  0  0
 27 28  1  0  0  0
 28 29  1  0  0  0
 28 30  2  0  0  0
 21 13  1  0  0  0
 44 39  1  0  0  0
 21 16  1  0  0  0
 10 11  1  0  0  0
 15 22  1  0  0  0
  4  5  1  0  0  0
 25 26  1  0  0  0
 35 37  1  0  0  0
 29 31  1  0  0  0
 29 32  1  0  0  0
M  END
> <minimizedAffinity>
-9.00821

> <CNNscore>
0.5016576052

> <CNNaffinity>
6.8451819420

> <CNN_VS>
3.4339375496

> <CNNaffinity_variance>
0.2499769032

$$$$
[H]OC(=O)C([H])([H])[C@@]([H])(C(=O)N([H])[H])N([H])C(=O)[C@@]([H])(N([H])C(=O)[C@@]([H])(N([H])C(=O)C([H])([H])[H])C([H])([H])c1c([H])n([H])c2c([H])c([H])c([H])c([H])c12)C([H])([H])c1c([H])c([H])c([H])c([H])c1[H]


 44 46  0  0  0  0  0  0  0  0999 V2000
    5.4894    6.2522   21.4440 C   0  0  0  0  0  0  0  0  0  0  0  0
    5.0038    6.3975   18.9941 C   0  0  0  0  0  0  0  0  0  0  0  0
    4.8230    7.6313   19.0938 O   0  0  0  0  0  0  0  0  0  0  0  0
    5.3367    5.6653   20.1530 N   0  0  0  0  0  0  0  0  0  0  0  0
    5.4806    4.6298   20.0621 H   0  0  0  0  0  0  0  0  0  0  0  0
    4.8627    5.7250   17.6525 C   0  0  0  0  0  0  0  0  0  0  0  0
    4.7014    8.0876   14.5760 C   0  0  0  0  0  0  0  0  0  0  0  0
    4.3251    7.1235   15.6339 C   0  0  0  0  0  0  0  0  0  0  0  0
    3.1481    6.6928   15.6584 O   0  0  0  0  0  0  0  0  0  0  0  0
    5.2312    6.6587   16.6274 N   0  0  0  0  0  0  0  0  0  0  0  0
    6.2269    7.0145   16.6254 H   0  0  0  0  0  0  0  0  0  0  0  0
    5.6435    4.4561   17.6921 C   0  0  0  0  0  0  0  0  0  0  0  0
    4.7828    3.2910   17.4291 C   0  0  0  0  0  0  0  0  0  0  0  0
    4.5078    2.3052   18.3949 C   0  0  0  0  0  0  0  0  0  0  0  0
    3.6732    1.4058   17.8622 N   0  0  0  0  0  0  0  0  0  0  0  0
    3.3958    1.7611   16.6004 C   0  0  0  0  0  0  0  0  0  0  0  0
    2.5917    1.1529   15.6252 C   0  0  0  0  0  0  0  0  0  0  0  0
    2.4561    1.6995   14.3521 C   0  0  0  0  0  0  0  0  0  0  0  0
    3.1468    2.8557   14.1055 C   0  0  0  0  0  0  0  0  0  0  0  0
    3.9416    3.4658   15.0539 C   0  0  0  0  0  0  0  0  0  0  0  0
    4.0707    2.9190   16.3161 C   0  0  0  0  0  0  0  0  0  0  0  0
    3.3014    0.5702   18.3441 H   0  0  0  0  0  0  0  0  0  0  0  0
    6.8359    6.7758   21.7396 C   0  0  0  0  0  0  0  0  0  0  0  0
    7.7089    6.8965   20.8301 O   0  0  0  0  0  0  0  0  0  0  0  0
    7.1879    7.1615   23.0643 N   0  0  0  0  0  0  0  0  0  0  0  0
    6.4674    7.0720   23.8170 H   0  0  0  0  0  0  0  0  0  0  0  0
    8.5341    7.6725   23.3652 C   0  0  0  0  0  0  0  0  0  0  0  0
    9.1861    6.8146   24.3482 C   0  0  0  0  0  0  0  0  0  0  0  0
    9.1884    6.9903   25.7586 N   0  0  0  0  0  0  0  0  0  0  0  0
    9.8269    5.7986   23.9253 O   0  0  0  0  0  0  0  0  0  0  0  0
    8.8728    6.2580   26.4182 H   0  0  0  0  0  0  0  0  0  0  0  0
    9.5223    7.8931   26.1471 H   0  0  0  0  0  0  0  0  0  0  0  0
    8.3809    9.1148   23.7989 C   0  0  0  0  0  0  0  0  0  0  0  0
    7.0228    9.2958   24.3574 C   0  0  0  0  0  0  0  0  0  0  0  0
    6.0255    9.7468   23.4935 O   0  0  0  0  0  0  0  0  0  0  0  0
    6.6934    9.0764   25.5508 O   0  0  0  0  0  0  0  0  0  0  0  0
    5.5888   10.6673   23.6452 H   0  0  0  0  0  0  0  0  0  0  0  0
    5.0367    5.3272   22.5567 C   0  0  0  0  0  0  0  0  0  0  0  0
    5.1178    3.9049   22.2616 C   0  0  0  0  0  0  0  0  0  0  0  0
    4.0166    3.0720   22.1190 C   0  0  0  0  0  0  0  0  0  0  0  0
    4.2393    1.7553   21.8388 C   0  0  0  0  0  0  0  0  0  0  0  0
    5.5157    1.2529   21.6986 C   0  0  0  0  0  0  0  0  0  0  0  0
    6.6294    2.0538   21.8340 C   0  0  0  0  0  0  0  0  0  0  0  0
    6.4209    3.3865   22.1175 C   0  0  0  0  0  0  0  0  0  0  0  0
  7  8  1  0  0  0
  8  9  2  0  0  0
  8 10  1  0  0  0
 10  6  1  0  0  0
  6 12  1  0  0  0
 12 13  1  0  0  0
 13 14  2  0  0  0
 14 15  1  0  0  0
 15 16  1  0  0  0
 16 17  2  0  0  0
 17 18  1  0  0  0
 18 19  2  0  0  0
 19 20  1  0  0  0
 20 21  2  0  0  0
  6  2  1  0  0  0
  2  3  2  0  0  0
  2  4  1  0  0  0
  4  1  1  0  0  0
  1 38  1  0  0  0
 38 39  1  0  0  0
 39 40  2  0  0  0
 40 41  1  0  0  0
 41 42  2  0  0  0
 42 43  1  0  0  0
 43 44  2  0  0  0
  1 23  1  0  0  0
 23 24  2  0  0  0
 23 25  1  0  0  0
 25 27  1  0  0  0
 27 33  1  0  0  0
 33 34  1  0  0  0
 34 35  1  0  0  0
 34 36  2  0  0  0
 27 28  1  0  0  0
 28 29  1  0  0  0
 28 30  2  0  0  0
 21 13  1  0  0  0
 44 39  1  0  0  0
 21 16  1  0  0  0
 10 11  1  0  0  0
 15 22  1  0  0  0
  4  5  1  0  0  0
 25 26  1  0  0  0
 35 37  1  0  0  0
 29 31  1  0  0  0
 29 32  1  0  0  0
M  END
> <minimizedAffinity>
-8.87888

> <CNNscore>
0.4829077125

> <CNNaffinity>
6.6275811195

> <CNN_VS>
3.2005100250

> <CNNaffinity_variance>
0.0676074550

$$$$
[H]OC(=O)C([H])([H])[C@@]([H])(C(=O)N([H])[H])N([H])C(=O)[C@@]([H])(N([H])C(=O)[C@@]([H])(N([H])C(=O)C([H])([H])[H])C([H])([H])c1c([H])n([H])c2c([H])c([H])c([H])c([H])c12)C([H])([H])c1c([H])c([H])c([H])c([H])c1[H]


 44 46  0  0  0  0  0  0  0  0999 V2000
    4.4318    6.3631   17.3903 C   0  0  0  0  0  0  0  0  0  0  0  0
    3.2011    4.2813   16.7500 C   0  0  0  0  0  0  0  0  0  0  0  0
    2.1595    4.7215   17.2849 O   0  0  0  0  0  0  0  0  0  0  0  0
    4.3677    5.0737   16.7840 N   0  0  0  0  0  0  0  0  0  0  0  0
    5.2389    4.6946   16.3385 H   0  0  0  0  0  0  0  0  0  0  0  0
    3.1892    2.9272   16.0879 C   0  0  0  0  0  0  0  0  0  0  0  0
    2.7045    2.5758   12.2520 C   0  0  0  0  0  0  0  0  0  0  0  0
    2.5588    2.3940   13.7135 C   0  0  0  0  0  0  0  0  0  0  0  0
    1.7095    1.5722   14.1315 O   0  0  0  0  0  0  0  0  0  0  0  0
    3.3340    3.1049   14.6716 N   0  0  0  0  0  0  0  0  0  0  0  0
    4.0519    3.8056   14.3378 H   0  0  0  0  0  0  0  0  0  0  0  0
    4.2251    2.0847   16.7501 C   0  0  0  0  0  0  0  0  0  0  0  0
    3.6284    1.2098   17.7727 C   0  0  0  0  0  0  0  0  0  0  0  0
    2.7657    0.1423   17.4622 C   0  0  0  0  0  0  0  0  0  0  0  0
    2.4247   -0.4762   18.5981 N   0  0  0  0  0  0  0  0  0  0  0  0
    3.0237    0.1388   19.6270 C   0  0  0  0  0  0  0  0  0  0  0  0
    2.9807   -0.1141   21.0059 C   0  0  0  0  0  0  0  0  0  0  0  0
    3.6842    0.6758   21.9111 C   0  0  0  0  0  0  0  0  0  0  0  0
    4.4154    1.7068   21.3846 C   0  0  0  0  0  0  0  0  0  0  0  0
    4.4676    1.9683   20.0310 C   0  0  0  0  0  0  0  0  0  0  0  0
    3.7683    1.1796   19.1378 C   0  0  0  0  0  0  0  0  0  0  0  0
    1.7996   -1.2961   18.6728 H   0  0  0  0  0  0  0  0  0  0  0  0
    4.4819    7.4970   16.4488 C   0  0  0  0  0  0  0  0  0  0  0  0
    4.6858    8.6795   16.8536 O   0  0  0  0  0  0  0  0  0  0  0  0
    4.3018    7.2866   15.0521 N   0  0  0  0  0  0  0  0  0  0  0  0
    4.1421    6.3106   14.7120 H   0  0  0  0  0  0  0  0  0  0  0  0
    4.3387    8.4169   14.1113 C   0  0  0  0  0  0  0  0  0  0  0  0
    2.9864    8.7522   13.6797 C   0  0  0  0  0  0  0  0  0  0  0  0
    2.3352    8.2982   12.5007 N   0  0  0  0  0  0  0  0  0  0  0  0
    2.2985    9.5311   14.4159 O   0  0  0  0  0  0  0  0  0  0  0  0
    1.4198    7.8158   12.5129 H   0  0  0  0  0  0  0  0  0  0  0  0
    2.7965    8.4577   11.5846 H   0  0  0  0  0  0  0  0  0  0  0  0
    5.2766    8.0347   12.9861 C   0  0  0  0  0  0  0  0  0  0  0  0
    6.5891    8.6723   13.2314 C   0  0  0  0  0  0  0  0  0  0  0  0
    6.8544    9.1244   14.5235 O   0  0  0  0  0  0  0  0  0  0  0  0
    7.4870    8.8410   12.3677 O   0  0  0  0  0  0  0  0  0  0  0  0
    6.9751   10.1314   14.7033 H   0  0  0  0  0  0  0  0  0  0  0  0
    5.5611    6.4737   18.3958 C   0  0  0  0  0  0  0  0  0  0  0  0
    5.2409    6.0428   19.7481 C   0  0  0  0  0  0  0  0  0  0  0  0
    3.9577    5.7597   20.1952 C   0  0  0  0  0  0  0  0  0  0  0  0
    3.8024    5.3617   21.4911 C   0  0  0  0  0  0  0  0  0  0  0  0
    4.8797    5.2400   22.3430 C   0  0  0  0  0  0  0  0  0  0  0  0
    6.1660    5.5135   21.9294 C   0  0  0  0  0  0  0  0  0  0  0  0
    6.3393    5.9171   20.6230 C   0  0  0  0  0  0  0  0  0  0  0  0
  7  8  1  0  0  0
  8  9  2  0  0  0
  8 10  1  0  0  0
 10  6  1  0  0  0
  6 12  1  0  0  0
 12 13  1  0  0  0
 13 14  2  0  0  0
 14 15  1  0  0  0
 15 16  1  0  0  0
 16 17  2  0  0  0
 17 18  1  0  0  0
 18 19  2  0  0  0
 19 20  1  0  0  0
 20 21  2  0  0  0
  6  2  1  0  0  0
  2  3  2  0  0  0
  2  4  1  0  0  0
  4  1  1  0  0  0
  1 38  1  0  0  0
 38 39  1  0  0  0
 39 40  2  0  0  0
 40 41  1  0  0  0
 41 42  2  0  0  0
 42 43  1  0  0  0
 43 44  2  0  0  0
  1 23  1  0  0  0
 23 24  2  0  0  0
 23 25  1  0  0  0
 25 27  1  0  0  0
 27 33  1  0  0  0
 33 34  1  0  0  0
 34 35  1  0  0  0
 34 36  2  0  0  0
 27 28  1  0  0  0
 28 29  1  0  0  0
 28 30  2  0  0  0
 21 13  1  0  0  0
 44 39  1  0  0  0
 21 16  1  0  0  0
 10 11  1  0  0  0
 15 22  1  0  0  0
  4  5  1  0  0  0
 25 26  1  0  0  0
 35 37  1  0  0  0
 29 31  1  0  0  0
 29 32  1  0  0  0
M  END
> <minimizedAffinity>
-8.61780

> <CNNscore>
0.4584505558

> <CNNaffinity>
6.5703849792

> <CNN_VS>
3.0121965408

> <CNNaffinity_variance>
0.4908234179

$$$$
[H]OC(=O)C([H])([H])[C@@]([H])(C(=O)N([H])[H])N([H])C(=O)[C@@]([H])(N([H])C(=O)[C@@]([H])(N([H])C(=O)C([H])([H])[H])C([H])([H])c1c([H])n([H])c2c([H])c([H])c([H])c([H])c12)C([H])([H])c1c([H])c([H])c([H])c([H])c1[H]


 44 46  0  0  0  0  0  0  0  0999 V2000
    4.2536    2.9692   16.9678 C   0  0  0  0  0  0  0  0  0  0  0  0
    3.6044    5.3736   17.2048 C   0  0  0  0  0  0  0  0  0  0  0  0
    2.3941    5.0573   17.1951 O   0  0  0  0  0  0  0  0  0  0  0  0
    4.5725    4.3541   17.0889 N   0  0  0  0  0  0  0  0  0  0  0  0
    5.5854    4.6284   17.0916 H   0  0  0  0  0  0  0  0  0  0  0  0
    3.9997    6.8221   17.3377 C   0  0  0  0  0  0  0  0  0  0  0  0
    3.3646    9.4372   14.5393 C   0  0  0  0  0  0  0  0  0  0  0  0
    4.0038    8.6656   15.6285 C   0  0  0  0  0  0  0  0  0  0  0  0
    5.1571    8.9926   15.9951 O   0  0  0  0  0  0  0  0  0  0  0  0
    3.3766    7.5690   16.2830 N   0  0  0  0  0  0  0  0  0  0  0  0
    2.4058    7.2757   15.9840 H   0  0  0  0  0  0  0  0  0  0  0  0
    3.6783    7.2590   18.7259 C   0  0  0  0  0  0  0  0  0  0  0  0
    4.6996    6.7981   19.6809 C   0  0  0  0  0  0  0  0  0  0  0  0
    6.0519    7.1798   19.6033 C   0  0  0  0  0  0  0  0  0  0  0  0
    6.7116    6.6265   20.6270 N   0  0  0  0  0  0  0  0  0  0  0  0
    5.8531    5.9061   21.3616 C   0  0  0  0  0  0  0  0  0  0  0  0
    6.0474    5.1346   22.5167 C   0  0  0  0  0  0  0  0  0  0  0  0
    4.9958    4.4466   23.1155 C   0  0  0  0  0  0  0  0  0  0  0  0
    3.7691    4.5633   22.5184 C   0  0  0  0  0  0  0  0  0  0  0  0
    3.5620    5.3179   21.3822 C   0  0  0  0  0  0  0  0  0  0  0  0
    4.6098    5.9996   20.7936 C   0  0  0  0  0  0  0  0  0  0  0  0
    7.7210    6.7351   20.8216 H   0  0  0  0  0  0  0  0  0  0  0  0
    3.6403    2.5767   15.6855 C   0  0  0  0  0  0  0  0  0  0  0  0
    3.1748    1.4123   15.5082 O   0  0  0  0  0  0  0  0  0  0  0  0
    3.5558    3.5051   14.6093 N   0  0  0  0  0  0  0  0  0  0  0  0
    3.9306    4.4707   14.7540 H   0  0  0  0  0  0  0  0  0  0  0  0
    2.9559    3.1133   13.3245 C   0  0  0  0  0  0  0  0  0  0  0  0
    3.7332    3.6656   12.2209 C   0  0  0  0  0  0  0  0  0  0  0  0
    4.7337    4.6714   12.3079 N   0  0  0  0  0  0  0  0  0  0  0  0
    3.5105    3.2193   11.0491 O   0  0  0  0  0  0  0  0  0  0  0  0
    5.6960    4.5412   11.9502 H   0  0  0  0  0  0  0  0  0  0  0  0
    4.4900    5.5789   12.7489 H   0  0  0  0  0  0  0  0  0  0  0  0
    1.5081    3.5549   13.3511 C   0  0  0  0  0  0  0  0  0  0  0  0
    1.4651    5.0306   13.2525 C   0  0  0  0  0  0  0  0  0  0  0  0
    0.7216    5.5854   12.2114 O   0  0  0  0  0  0  0  0  0  0  0  0
    2.0463    5.8275   14.0320 O   0  0  0  0  0  0  0  0  0  0  0  0
    1.1932    6.1218   11.4692 H   0  0  0  0  0  0  0  0  0  0  0  0
    3.4083    2.4676   18.1221 C   0  0  0  0  0  0  0  0  0  0  0  0
    4.1486    1.9594   19.2668 C   0  0  0  0  0  0  0  0  0  0  0  0
    5.3206    2.5226   19.7527 C   0  0  0  0  0  0  0  0  0  0  0  0
    5.9096    1.9429   20.8385 C   0  0  0  0  0  0  0  0  0  0  0  0
    5.3676    0.8298   21.4455 C   0  0  0  0  0  0  0  0  0  0  0  0
    4.2053    0.2473   20.9873 C   0  0  0  0  0  0  0  0  0  0  0  0
    3.5984    0.8211   19.8908 C   0  0  0  0  0  0  0  0  0  0  0  0
  7  8  1  0  0  0
  8  9  2  0  0  0
  8 10  1  0  0  0
 10  6  1  0  0  0
  6 12  1  0  0  0
 12 13  1  0  0  0
 13 14  2  0  0  0
 14 15  1  0  0  0
 15 16  1  0  0  0
 16 17  2  0  0  0
 17 18  1  0  0  0
 18 19  2  0  0  0
 19 20  1  0  0  0
 20 21  2  0  0  0
  6  2  1  0  0  0
  2  3  2  0  0  0
  2  4  1  0  0  0
  4  1  1  0  0  0
  1 38  1  0  0  0
 38 39  1  0  0  0
 39 40  2  0  0  0
 40 41  1  0  0  0
 41 42  2  0  0  0
 42 43  1  0  0  0
 43 44  2  0  0  0
  1 23  1  0  0  0
 23 24  2  0  0  0
 23 25  1  0  0  0
 25 27  1  0  0  0
 27 33  1  0  0  0
 33 34  1  0  0  0
 34 35  1  0  0  0
 34 36  2  0  0  0
 27 28  1  0  0  0
 28 29  1  0  0  0
 28 30  2  0  0  0
 21 13  1  0  0  0
 44 39  1  0  0  0
 21 16  1  0  0  0
 10 11  1  0  0  0
 15 22  1  0  0  0
  4  5  1  0  0  0
 25 26  1  0  0  0
 35 37  1  0  0  0
 29 31  1  0  0  0
 29 32  1  0  0  0
M  END
> <minimizedAffinity>
-7.39150

> <CNNscore>
0.3668058515

> <CNNaffinity>
6.4171409607

> <CNN_VS>
2.3538448811

> <CNNaffinity_variance>
0.3905336559

$$$$
[H]OC(=O)C([H])([H])[C@@]([H])(C(=O)N([H])[H])N([H])C(=O)[C@@]([H])(N([H])C(=O)[C@@]([H])(N([H])C(=O)C([H])([H])[H])C([H])([H])c1c([H])n([H])c2c([H])c([H])c([H])c([H])c12)C([H])([H])c1c([H])c([H])c([H])c([H])c1[H]


 44 46  0  0  0  0  0  0  0  0999 V2000
    4.3953    5.9320   19.8077 C   0  0  0  0  0  0  0  0  0  0  0  0
    4.0733    6.2309   17.3448 C   0  0  0  0  0  0  0  0  0  0  0  0
    4.2631    7.4620   17.4601 O   0  0  0  0  0  0  0  0  0  0  0  0
    4.1271    5.4254   18.5016 N   0  0  0  0  0  0  0  0  0  0  0  0
    3.9607    4.3945   18.3973 H   0  0  0  0  0  0  0  0  0  0  0  0
    3.7928    5.6394   15.9870 C   0  0  0  0  0  0  0  0  0  0  0  0
    4.0520    7.9489   12.8771 C   0  0  0  0  0  0  0  0  0  0  0  0
    3.5222    7.0353   13.9139 C   0  0  0  0  0  0  0  0  0  0  0  0
    2.3181    6.6928   13.8496 O   0  0  0  0  0  0  0  0  0  0  0  0
    4.3098    6.5239   14.9827 N   0  0  0  0  0  0  0  0  0  0  0  0
    5.3263    6.8055   15.0559 H   0  0  0  0  0  0  0  0  0  0  0  0
    4.3304    4.2494   15.9732 C   0  0  0  0  0  0  0  0  0  0  0  0
    3.3327    3.2959   15.4606 C   0  0  0  0  0  0  0  0  0  0  0  0
    2.5447    2.4841   16.2974 C   0  0  0  0  0  0  0  0  0  0  0  0
    1.7180    1.7596   15.5352 N   0  0  0  0  0  0  0  0  0  0  0  0
    1.9329    2.0627   14.2477 C   0  0  0  0  0  0  0  0  0  0  0  0
    1.3400    1.5767   13.0732 C   0  0  0  0  0  0  0  0  0  0  0  0
    1.7357    2.0315   11.8184 C   0  0  0  0  0  0  0  0  0  0  0  0
    2.7296    2.9730   11.7940 C   0  0  0  0  0  0  0  0  0  0  0  0
    3.3226    3.4607   12.9402 C   0  0  0  0  0  0  0  0  0  0  0  0
    2.9241    3.0062   14.1826 C   0  0  0  0  0  0  0  0  0  0  0  0
    1.0248    1.0754   15.8812 H   0  0  0  0  0  0  0  0  0  0  0  0
    5.7991    6.3077   20.0585 C   0  0  0  0  0  0  0  0  0  0  0  0
    6.7336    5.8981   19.3084 O   0  0  0  0  0  0  0  0  0  0  0  0
    6.1385    7.1469   21.1576 N   0  0  0  0  0  0  0  0  0  0  0  0
    5.3691    7.4950   21.7746 H   0  0  0  0  0  0  0  0  0  0  0  0
    7.5390    7.5136   21.4182 C   0  0  0  0  0  0  0  0  0  0  0  0
    7.8446    7.3448   22.8344 C   0  0  0  0  0  0  0  0  0  0  0  0
    6.9696    7.5935   23.9265 N   0  0  0  0  0  0  0  0  0  0  0  0
    9.0082    6.9358   23.1515 O   0  0  0  0  0  0  0  0  0  0  0  0
    6.7496    6.8824   24.6454 H   0  0  0  0  0  0  0  0  0  0  0  0
    6.5309    8.5306   24.0093 H   0  0  0  0  0  0  0  0  0  0  0  0
    7.7390    8.9218   20.8997 C   0  0  0  0  0  0  0  0  0  0  0  0
    6.4683    9.6640   21.0536 C   0  0  0  0  0  0  0  0  0  0  0  0
    5.7707    9.9951   19.8925 O   0  0  0  0  0  0  0  0  0  0  0  0
    5.9649   10.0225   22.1486 O   0  0  0  0  0  0  0  0  0  0  0  0
    5.6509   10.9829   19.6264 H   0  0  0  0  0  0  0  0  0  0  0  0
    3.9039    5.0029   20.9003 C   0  0  0  0  0  0  0  0  0  0  0  0
    4.6918    3.7960   21.0984 C   0  0  0  0  0  0  0  0  0  0  0  0
    5.6507    3.6423   22.0902 C   0  0  0  0  0  0  0  0  0  0  0  0
    6.3144    2.4523   22.1629 C   0  0  0  0  0  0  0  0  0  0  0  0
    6.0506    1.4236   21.2834 C   0  0  0  0  0  0  0  0  0  0  0  0
    5.1048    1.5450   20.2880 C   0  0  0  0  0  0  0  0  0  0  0  0
    4.4259    2.7414   20.2013 C   0  0  0  0  0  0  0  0  0  0  0  0
  7  8  1  0  0  0
  8  9  2  0  0  0
  8 10  1  0  0  0
 10  6  1  0  0  0
  6 12  1  0  0  0
 12 13  1  0  0  0
 13 14  2  0  0  0
 14 15  1  0  0  0
 15 16  1  0  0  0
 16 17  2  0  0  0
 17 18  1  0  0  0
 18 19  2  0  0  0
 19 20  1  0  0  0
 20 21  2  0  0  0
  6  2  1  0  0  0
  2  3  2  0  0  0
  2  4  1  0  0  0
  4  1  1  0  0  0
  1 38  1  0  0  0
 38 39  1  0  0  0
 39 40  2  0  0  0
 40 41  1  0  0  0
 41 42  2  0  0  0
 42 43  1  0  0  0
 43 44  2  0  0  0
  1 23  1  0  0  0
 23 24  2  0  0  0
 23 25  1  0  0  0
 25 27  1  0  0  0
 27 33  1  0  0  0
 33 34  1  0  0  0
 34 35  1  0  0  0
 34 36  2  0  0  0
 27 28  1  0  0  0
 28 29  1  0  0  0
 28 30  2  0  0  0
 21 13  1  0  0  0
 44 39  1  0  0  0
 21 16  1  0  0  0
 10 11  1  0  0  0
 15 22  1  0  0  0
  4  5  1  0  0  0
 25 26  1  0  0  0
 35 37  1  0  0  0
 29 31  1  0  0  0
 29 32  1  0  0  0
M  END
> <minimizedAffinity>
-7.81954

> <CNNscore>
0.3213018775

> <CNNaffinity>
6.3400888443

> <CNN_VS>
2.0370824337

> <CNNaffinity_variance>
0.1602358371

$$$$
[H]OC(=O)C([H])([H])[C@@]([H])(C(=O)N([H])[H])N([H])C(=O)[C@@]([H])(N([H])C(=O)[C@@]([H])(N([H])C(=O)C([H])([H])[H])C([H])([H])c1c([H])n([H])c2c([H])c([H])c([H])c([H])c12)C([H])([H])c1c([H])c([H])c([H])c([H])c1[H]


 44 46  0  0  0  0  0  0  0  0999 V2000
    4.3341    5.1318   19.1293 C   0  0  0  0  0  0  0  0  0  0  0  0
    3.8269    4.4468   16.7772 C   0  0  0  0  0  0  0  0  0  0  0  0
    3.1582    5.4903   16.6077 O   0  0  0  0  0  0  0  0  0  0  0  0
    4.4320    4.2257   18.0322 N   0  0  0  0  0  0  0  0  0  0  0  0
    4.9861    3.3449   18.1683 H   0  0  0  0  0  0  0  0  0  0  0  0
    3.9703    3.4567   15.6497 C   0  0  0  0  0  0  0  0  0  0  0  0
    2.3393    0.1497   16.8647 C   0  0  0  0  0  0  0  0  0  0  0  0
    3.3061    1.2504   16.6551 C   0  0  0  0  0  0  0  0  0  0  0  0
    4.4254    1.1771   17.2147 O   0  0  0  0  0  0  0  0  0  0  0  0
    3.0312    2.3906   15.8497 N   0  0  0  0  0  0  0  0  0  0  0  0
    2.0907    2.4720   15.3736 H   0  0  0  0  0  0  0  0  0  0  0  0
    3.8471    4.2038   14.3660 C   0  0  0  0  0  0  0  0  0  0  0  0
    2.5625    3.9213   13.7046 C   0  0  0  0  0  0  0  0  0  0  0  0
    2.2531    2.6758   13.1272 C   0  0  0  0  0  0  0  0  0  0  0  0
    1.0076    2.7271   12.6422 N   0  0  0  0  0  0  0  0  0  0  0  0
    0.4971    3.9435   12.8771 C   0  0  0  0  0  0  0  0  0  0  0  0
   -0.7519    4.4978   12.5609 C   0  0  0  0  0  0  0  0  0  0  0  0
   -1.0688    5.8115   12.8953 C   0  0  0  0  0  0  0  0  0  0  0  0
   -0.1001    6.5284   13.5453 C   0  0  0  0  0  0  0  0  0  0  0  0
    1.1330    5.9976   13.8631 C   0  0  0  0  0  0  0  0  0  0  0  0
    1.4406    4.6925   13.5298 C   0  0  0  0  0  0  0  0  0  0  0  0
    0.5162    1.9544   12.1626 H   0  0  0  0  0  0  0  0  0  0  0  0
    5.5394    5.9430   19.3821 C   0  0  0  0  0  0  0  0  0  0  0  0
    6.5100    5.9500   18.5687 O   0  0  0  0  0  0  0  0  0  0  0  0
    5.6399    6.7440   20.5551 N   0  0  0  0  0  0  0  0  0  0  0  0
    4.8371    6.7485   21.2253 H   0  0  0  0  0  0  0  0  0  0  0  0
    6.8459    7.5448   20.8167 C   0  0  0  0  0  0  0  0  0  0  0  0
    7.4265    7.1688   22.1008 C   0  0  0  0  0  0  0  0  0  0  0  0
    6.7191    6.8716   23.2972 N   0  0  0  0  0  0  0  0  0  0  0  0
    8.6950    7.0939   22.1856 O   0  0  0  0  0  0  0  0  0  0  0  0
    6.8392    5.9851   23.8173 H   0  0  0  0  0  0  0  0  0  0  0  0
    6.0518    7.5747   23.6685 H   0  0  0  0  0  0  0  0  0  0  0  0
    6.4490    9.0021   20.7135 C   0  0  0  0  0  0  0  0  0  0  0  0
    4.9852    9.1050   20.9032 C   0  0  0  0  0  0  0  0  0  0  0  0
    4.4707    8.7530   22.1506 O   0  0  0  0  0  0  0  0  0  0  0  0
    4.1647    9.4839   20.0292 O   0  0  0  0  0  0  0  0  0  0  0  0
    3.8482    7.9374   22.2406 H   0  0  0  0  0  0  0  0  0  0  0  0
    3.8926    4.4465   20.4076 C   0  0  0  0  0  0  0  0  0  0  0  0
    4.6639    3.2732   20.7885 C   0  0  0  0  0  0  0  0  0  0  0  0
    5.8717    3.3193   21.4711 C   0  0  0  0  0  0  0  0  0  0  0  0
    6.4873    2.1381   21.7675 C   0  0  0  0  0  0  0  0  0  0  0  0
    5.9373    0.9266   21.4055 C   0  0  0  0  0  0  0  0  0  0  0  0
    4.7398    0.8473   20.7274 C   0  0  0  0  0  0  0  0  0  0  0  0
    4.1057    2.0320   20.4203 C   0  0  0  0  0  0  0  0  0  0  0  0
  7  8  1  0  0  0
  8  9  2  0  0  0
  8 10  1  0  0  0
 10  6  1  0  0  0
  6 12  1  0  0  0
 12 13  1  0  0  0
 13 14  2  0  0  0
 14 15  1  0  0  0
 15 16  1  0  0  0
 16 17  2  0  0  0
 17 18  1  0  0  0
 18 19  2  0  0  0
 19 20  1  0  0  0
 20 21  2  0  0  0
  6  2  1  0  0  0
  2  3  2  0  0  0
  2  4  1  0  0  0
  4  1  1  0  0  0
  1 38  1  0  0  0
 38 39  1  0  0  0
 39 40  2  0  0  0
 40 41  1  0  0  0
 41 42  2  0  0  0
 42 43  1  0  0  0
 43 44  2  0  0  0
  1 23  1  0  0  0
 23 24  2  0  0  0
 23 25  1  0  0  0
 25 27  1  0  0  0
 27 33  1  0  0  0
 33 34  1  0  0  0
 34 35  1  0  0  0
 34 36  2  0  0  0
 27 28  1  0  0  0
 28 29  1  0  0  0
 28 30  2  0  0  0
 21 13  1  0  0  0
 44 39  1  0  0  0
 21 16  1  0  0  0
 10 11  1  0  0  0
 15 22  1  0  0  0
  4  5  1  0  0  0
 25 26  1  0  0  0
 35 37  1  0  0  0
 29 31  1  0  0  0
 29 32  1  0  0  0
M  END
> <minimizedAffinity>
-8.44950

> <CNNscore>
0.3007295430

> <CNNaffinity>
6.2426238060

> <CNN_VS>
1.8773413897

> <CNNaffinity_variance>
0.3715212643

$$$$
[H]OC(=O)C([H])([H])[C@@]([H])(C(=O)N([H])[H])N([H])C(=O)[C@@]([H])(N([H])C(=O)[C@@]([H])(N([H])C(=O)C([H])([H])[H])C([H])([H])c1c([H])n([H])c2c([H])c([H])c([H])c([H])c12)C([H])([H])c1c([H])c([H])c([H])c([H])c1[H]


 44 46  0  0  0  0  0  0  0  0999 V2000
    4.5328    3.3679   18.3425 C   0  0  0  0  0  0  0  0  0  0  0  0
    5.3147    5.6115   19.1256 C   0  0  0  0  0  0  0  0  0  0  0  0
    5.9999    5.7453   18.0876 O   0  0  0  0  0  0  0  0  0  0  0  0
    4.5648    4.4288   19.2952 N   0  0  0  0  0  0  0  0  0  0  0  0
    3.9975    4.3217   20.1716 H   0  0  0  0  0  0  0  0  0  0  0  0
    5.3051    6.7045   20.1637 C   0  0  0  0  0  0  0  0  0  0  0  0
    3.2057    9.7458   18.9739 C   0  0  0  0  0  0  0  0  0  0  0  0
    4.3425    8.8391   19.2491 C   0  0  0  0  0  0  0  0  0  0  0  0
    5.4902    9.1944   18.8914 O   0  0  0  0  0  0  0  0  0  0  0  0
    4.2010    7.5817   19.8997 N   0  0  0  0  0  0  0  0  0  0  0  0
    3.2399    7.2631   20.2043 H   0  0  0  0  0  0  0  0  0  0  0  0
    5.3208    6.0598   21.5074 C   0  0  0  0  0  0  0  0  0  0  0  0
    6.5520    6.3902   22.2439 C   0  0  0  0  0  0  0  0  0  0  0  0
    7.5520    5.4433   22.5330 C   0  0  0  0  0  0  0  0  0  0  0  0
    8.5499    6.0584   23.1772 N   0  0  0  0  0  0  0  0  0  0  0  0
    8.2442    7.3554   23.3191 C   0  0  0  0  0  0  0  0  0  0  0  0
    8.9447    8.4083   23.9256 C   0  0  0  0  0  0  0  0  0  0  0  0
    8.4216    9.6976   23.9700 C   0  0  0  0  0  0  0  0  0  0  0  0
    7.1933    9.8801   23.3933 C   0  0  0  0  0  0  0  0  0  0  0  0
    6.4919    8.8548   22.7932 C   0  0  0  0  0  0  0  0  0  0  0  0
    7.0174    7.5777   22.7511 C   0  0  0  0  0  0  0  0  0  0  0  0
    9.4176    5.6080   23.5130 H   0  0  0  0  0  0  0  0  0  0  0  0
    3.5592    3.5371   17.2479 C   0  0  0  0  0  0  0  0  0  0  0  0
    2.4968    4.2069   17.4104 O   0  0  0  0  0  0  0  0  0  0  0  0
    3.7936    2.9476   15.9731 N   0  0  0  0  0  0  0  0  0  0  0  0
    4.6739    2.4011   15.8314 H   0  0  0  0  0  0  0  0  0  0  0  0
    2.8187    3.1039   14.8826 C   0  0  0  0  0  0  0  0  0  0  0  0
    2.0673    1.8668   14.7029 C   0  0  0  0  0  0  0  0  0  0  0  0
    0.9889    1.6525   13.8022 N   0  0  0  0  0  0  0  0  0  0  0  0
    2.3895    0.8614   15.4152 O   0  0  0  0  0  0  0  0  0  0  0  0
    0.9836    0.8921   13.1003 H   0  0  0  0  0  0  0  0  0  0  0  0
    0.1678    2.2857   13.8494 H   0  0  0  0  0  0  0  0  0  0  0  0
    3.5841    3.5535   13.6563 C   0  0  0  0  0  0  0  0  0  0  0  0
    3.5892    5.0327   13.6217 C   0  0  0  0  0  0  0  0  0  0  0  0
    4.2112    5.6998   14.6764 O   0  0  0  0  0  0  0  0  0  0  0  0
    3.0766    5.7395   12.7170 O   0  0  0  0  0  0  0  0  0  0  0  0
    3.6558    6.2875   15.3145 H   0  0  0  0  0  0  0  0  0  0  0  0
    4.3501    2.0111   18.9940 C   0  0  0  0  0  0  0  0  0  0  0  0
    4.5755    1.9701   20.4307 C   0  0  0  0  0  0  0  0  0  0  0  0
    3.5660    1.8669   21.3779 C   0  0  0  0  0  0  0  0  0  0  0  0
    3.9218    1.8360   22.6948 C   0  0  0  0  0  0  0  0  0  0  0  0
    5.2417    1.9046   23.0879 C   0  0  0  0  0  0  0  0  0  0  0  0
    6.2668    2.0074   22.1721 C   0  0  0  0  0  0  0  0  0  0  0  0
    5.9235    2.0401   20.8376 C   0  0  0  0  0  0  0  0  0  0  0  0
  7  8  1  0  0  0
  8  9  2  0  0  0
  8 10  1  0  0  0
 10  6  1  0  0  0
  6 12  1  0  0  0
 12 13  1  0  0  0
 13 14  2  0  0  0
 14 15  1  0  0  0
 15 16  1  0  0  0
 16 17  2  0  0  0
 17 18  1  0  0  0
 18 19  2  0  0  0
 19 20  1  0  0  0
 20 21  2  0  0  0
  6  2  1  0  0  0
  2  3  2  0  0  0
  2  4  1  0  0  0
  4  1  1  0  0  0
  1 38  1  0  0  0
 38 39  1  0  0  0
 39 40  2  0  0  0
 40 41  1  0  0  0
 41 42  2  0  0  0
 42 43  1  0  0  0
 43 44  2  0  0  0
  1 23  1  0  0  0
 23 24  2  0  0  0
 23 25  1  0  0  0
 25 27  1  0  0  0
 27 33  1  0  0  0
 33 34  1  0  0  0
 34 35  1  0  0  0
 34 36  2  0  0  0
 27 28  1  0  0  0
 28 29  1  0  0  0
 28 30  2  0  0  0
 21 13  1  0  0  0
 44 39  1  0  0  0
 21 16  1  0  0  0
 10 11  1  0  0  0
 15 22  1  0  0  0
  4  5  1  0  0  0
 25 26  1  0  0  0
 35 37  1  0  0  0
 29 31  1  0  0  0
 29 32  1  0  0  0
M  END
> <minimizedAffinity>
-8.26904

> <CNNscore>
0.3000121415

> <CNNaffinity>
6.3902578354

> <CNN_VS>
1.9171549082

> <CNNaffinity_variance>
0.2161464244

$$$$
[H]OC(=O)C([H])([H])[C@@]([H])(C(=O)N([H])[H])N([H])C(=O)[C@@]([H])(N([H])C(=O)[C@@]([H])(N([H])C(=O)C([H])([H])[H])C([H])([H])c1c([H])n([H])c2c([H])c([H])c([H])c([H])c12)C([H])([H])c1c([H])c([H])c([H])c([H])c1[H]


 44 46  0  0  0  0  0  0  0  0999 V2000
    4.8540    5.5879   21.1718 C   0  0  0  0  0  0  0  0  0  0  0  0
    5.1922    5.2181   18.7207 C   0  0  0  0  0  0  0  0  0  0  0  0
    6.4054    5.5005   18.8362 O   0  0  0  0  0  0  0  0  0  0  0  0
    4.3755    5.2538   19.8704 N   0  0  0  0  0  0  0  0  0  0  0  0
    3.3576    5.0216   19.7640 H   0  0  0  0  0  0  0  0  0  0  0  0
    4.6332    4.8504   17.3700 C   0  0  0  0  0  0  0  0  0  0  0  0
    5.0324    8.2308   15.5029 C   0  0  0  0  0  0  0  0  0  0  0  0
    4.6170    7.2025   16.4828 C   0  0  0  0  0  0  0  0  0  0  0  0
    3.8564    7.5424   17.4194 O   0  0  0  0  0  0  0  0  0  0  0  0
    5.0368    5.8446   16.4176 N   0  0  0  0  0  0  0  0  0  0  0  0
    5.6822    5.5404   15.6373 H   0  0  0  0  0  0  0  0  0  0  0  0
    5.0472    3.4507   17.0688 C   0  0  0  0  0  0  0  0  0  0  0  0
    3.9627    2.7026   16.4117 C   0  0  0  0  0  0  0  0  0  0  0  0
    3.1983    1.7210   17.0693 C   0  0  0  0  0  0  0  0  0  0  0  0
    2.2773    1.2552   16.2184 N   0  0  0  0  0  0  0  0  0  0  0  0
    2.4090    1.8866   15.0438 C   0  0  0  0  0  0  0  0  0  0  0  0
    1.7021    1.7538   13.8397 C   0  0  0  0  0  0  0  0  0  0  0  0
    2.0246    2.5167   12.7208 C   0  0  0  0  0  0  0  0  0  0  0  0
    3.0634    3.3979   12.8593 C   0  0  0  0  0  0  0  0  0  0  0  0
    3.7683    3.5400   14.0367 C   0  0  0  0  0  0  0  0  0  0  0  0
    3.4421    2.7808   15.1441 C   0  0  0  0  0  0  0  0  0  0  0  0
    1.5765    0.5255   16.4302 H   0  0  0  0  0  0  0  0  0  0  0  0
    5.5593    6.8794   21.2682 C   0  0  0  0  0  0  0  0  0  0  0  0
    4.9235    7.9727   21.3323 O   0  0  0  0  0  0  0  0  0  0  0  0
    6.9822    6.9270   21.2927 N   0  0  0  0  0  0  0  0  0  0  0  0
    7.5114    6.0261   21.2491 H   0  0  0  0  0  0  0  0  0  0  0  0
    7.6893    8.2143   21.3763 C   0  0  0  0  0  0  0  0  0  0  0  0
    7.9400    8.7346   20.0369 C   0  0  0  0  0  0  0  0  0  0  0  0
    8.4258    8.0025   18.9197 N   0  0  0  0  0  0  0  0  0  0  0  0
    7.7099    9.9683   19.8208 O   0  0  0  0  0  0  0  0  0  0  0  0
    7.9297    7.9641   18.0123 H   0  0  0  0  0  0  0  0  0  0  0  0
    9.3192    7.4827   19.0157 H   0  0  0  0  0  0  0  0  0  0  0  0
    8.9377    7.9887   22.2024 C   0  0  0  0  0  0  0  0  0  0  0  0
    8.6141    7.0442   23.2945 C   0  0  0  0  0  0  0  0  0  0  0  0
    7.6225    7.4210   24.1996 O   0  0  0  0  0  0  0  0  0  0  0  0
    9.1621    5.9271   23.4743 O   0  0  0  0  0  0  0  0  0  0  0  0
    7.8617    7.5873   25.1875 H   0  0  0  0  0  0  0  0  0  0  0  0
    5.7034    4.4867   21.7757 C   0  0  0  0  0  0  0  0  0  0  0  0
    5.0968    3.1644   21.7917 C   0  0  0  0  0  0  0  0  0  0  0  0
    3.9851    2.8233   22.5497 C   0  0  0  0  0  0  0  0  0  0  0  0
    3.5188    1.5437   22.4659 C   0  0  0  0  0  0  0  0  0  0  0  0
    4.1242    0.6062   21.6561 C   0  0  0  0  0  0  0  0  0  0  0  0
    5.2292    0.9136   20.8913 C   0  0  0  0  0  0  0  0  0  0  0  0
    5.7126    2.2023   20.9653 C   0  0  0  0  0  0  0  0  0  0  0  0
  7  8  1  0  0  0
  8  9  2  0  0  0
  8 10  1  0  0  0
 10  6  1  0  0  0
  6 12  1  0  0  0
 12 13  1  0  0  0
 13 14  2  0  0  0
 14 15  1  0  0  0
 15 16  1  0  0  0
 16 17  2  0  0  0
 17 18  1  0  0  0
 18 19  2  0  0  0
 19 20  1  0  0  0
 20 21  2  0  0  0
  6  2  1  0  0  0
  2  3  2  0  0  0
  2  4  1  0  0  0
  4  1  1  0  0  0
  1 38  1  0  0  0
 38 39  1  0  0  0
 39 40  2  0  0  0
 40 41  1  0  0  0
 41 42  2  0  0  0
 42 43  1  0  0  0
 43 44  2  0  0  0
  1 23  1  0  0  0
 23 24  2  0  0  0
 23 25  1  0  0  0
 25 27  1  0  0  0
 27 33  1  0  0  0
 33 34  1  0  0  0
 34 35  1  0  0  0
 34 36  2  0  0  0
 27 28  1  0  0  0
 28 29  1  0  0  0
 28 30  2  0  0  0
 21 13  1  0  0  0
 44 39  1  0  0  0
 21 16  1  0  0  0
 10 11  1  0  0  0
 15 22  1  0  0  0
  4  5  1  0  0  0
 25 26  1  0  0  0
 35 37  1  0  0  0
 29 31  1  0  0  0
 29 32  1  0  0  0
M  END
> <minimizedAffinity>
-8.37115

> <CNNscore>
0.2956588864

> <CNNaffinity>
6.4627103806

> <CNN_VS>
1.9107577801

> <CNNaffinity_variance>
0.2441906184

$$$$
[H]OC(=O)C([H])([H])[C@@]([H])(C(=O)N([H])[H])N([H])C(=O)[C@@]([H])(N([H])C(=O)[C@@]([H])(N([H])C(=O)C([H])([H])[H])C([H])([H])c1c([H])n([H])c2c([H])c([H])c([H])c([H])c12)C([H])([H])c1c([H])c([H])c([H])c([H])c1[H]


 44 46  0  0  0  0  0  0  0  0999 V2000
    5.9200    5.0207   21.6622 C   0  0  0  0  0  0  0  0  0  0  0  0
    5.0121    5.6397   19.4147 C   0  0  0  0  0  0  0  0  0  0  0  0
    4.3944    6.6033   19.9194 O   0  0  0  0  0  0  0  0  0  0  0  0
    5.7882    4.8160   20.2568 N   0  0  0  0  0  0  0  0  0  0  0  0
    6.2982    4.0060   19.8266 H   0  0  0  0  0  0  0  0  0  0  0  0
    4.9148    5.3801   17.9330 C   0  0  0  0  0  0  0  0  0  0  0  0
    5.0907    8.4181   15.5223 C   0  0  0  0  0  0  0  0  0  0  0  0
    4.6110    7.2212   16.2485 C   0  0  0  0  0  0  0  0  0  0  0  0
    3.4657    6.7833   15.9879 O   0  0  0  0  0  0  0  0  0  0  0  0
    5.3834    6.5394   17.2298 N   0  0  0  0  0  0  0  0  0  0  0  0
    6.3499    6.8970   17.4663 H   0  0  0  0  0  0  0  0  0  0  0  0
    5.6318    4.1059   17.6434 C   0  0  0  0  0  0  0  0  0  0  0  0
    4.6946    3.0463   17.2358 C   0  0  0  0  0  0  0  0  0  0  0  0
    4.3160    1.9879   18.0823 C   0  0  0  0  0  0  0  0  0  0  0  0
    3.4332    1.2183   17.4361 N   0  0  0  0  0  0  0  0  0  0  0  0
    3.2229    1.7266   16.2142 C   0  0  0  0  0  0  0  0  0  0  0  0
    2.4063    1.2905   15.1605 C   0  0  0  0  0  0  0  0  0  0  0  0
    2.3522    1.9783   13.9515 C   0  0  0  0  0  0  0  0  0  0  0  0
    3.1353    3.0967   13.8478 C   0  0  0  0  0  0  0  0  0  0  0  0
    3.9438    3.5383   14.8748 C   0  0  0  0  0  0  0  0  0  0  0  0
    3.9917    2.8518   16.0729 C   0  0  0  0  0  0  0  0  0  0  0  0
    2.9846    0.3679   17.8157 H   0  0  0  0  0  0  0  0  0  0  0  0
    6.7966    6.1403   22.0533 C   0  0  0  0  0  0  0  0  0  0  0  0
    8.0502    6.0847   21.8827 O   0  0  0  0  0  0  0  0  0  0  0  0
    6.2492    7.3190   22.6351 N   0  0  0  0  0  0  0  0  0  0  0  0
    5.2135    7.3732   22.7696 H   0  0  0  0  0  0  0  0  0  0  0  0
    7.1217    8.4327   23.0379 C   0  0  0  0  0  0  0  0  0  0  0  0
    7.4326    8.3351   24.4596 C   0  0  0  0  0  0  0  0  0  0  0  0
    6.6777    8.8821   25.5325 N   0  0  0  0  0  0  0  0  0  0  0  0
    8.4834    7.7016   24.8008 O   0  0  0  0  0  0  0  0  0  0  0  0
    6.3282    8.3132   26.3231 H   0  0  0  0  0  0  0  0  0  0  0  0
    6.4671    9.8985   25.5253 H   0  0  0  0  0  0  0  0  0  0  0  0
    6.4261    9.7163   22.6375 C   0  0  0  0  0  0  0  0  0  0  0  0
    5.7309    9.4923   21.3507 C   0  0  0  0  0  0  0  0  0  0  0  0
    4.4136    9.0378   21.4004 O   0  0  0  0  0  0  0  0  0  0  0  0
    6.2324    9.6779   20.2127 O   0  0  0  0  0  0  0  0  0  0  0  0
    4.1755    8.1046   21.0352 H   0  0  0  0  0  0  0  0  0  0  0  0
    6.3329    3.7587   22.3940 C   0  0  0  0  0  0  0  0  0  0  0  0
    5.5875    2.5591   22.0446 C   0  0  0  0  0  0  0  0  0  0  0  0
    4.2291    2.3883   22.2730 C   0  0  0  0  0  0  0  0  0  0  0  0
    3.6567    1.2101   21.8909 C   0  0  0  0  0  0  0  0  0  0  0  0
    4.3941    0.2093   21.2942 C   0  0  0  0  0  0  0  0  0  0  0  0
    5.7443    0.3482   21.0537 C   0  0  0  0  0  0  0  0  0  0  0  0
    6.3373    1.5328   21.4343 C   0  0  0  0  0  0  0  0  0  0  0  0
  7  8  1  0  0  0
  8  9  2  0  0  0
  8 10  1  0  0  0
 10  6  1  0  0  0
  6 12  1  0  0  0
 12 13  1  0  0  0
 13 14  2  0  0  0
 14 15  1  0  0  0
 15 16  1  0  0  0
 16 17  2  0  0  0
 17 18  1  0  0  0
 18 19  2  0  0  0
 19 20  1  0  0  0
 20 21  2  0  0  0
  6  2  1  0  0  0
  2  3  2  0  0  0
  2  4  1  0  0  0
  4  1  1  0  0  0
  1 38  1  0  0  0
 38 39  1  0  0  0
 39 40  2  0  0  0
 40 41  1  0  0  0
 41 42  2  0  0  0
 42 43  1  0  0  0
 43 44  2  0  0  0
  1 23  1  0  0  0
 23 24  2  0  0  0
 23 25  1  0  0  0
 25 27  1  0  0  0
 27 33  1  0  0  0
 33 34  1  0  0  0
 34 35  1  0  0  0
 34 36  2  0  0  0
 27 28  1  0  0  0
 28 29  1  0  0  0
 28 30  2  0  0  0
 21 13  1  0  0  0
 44 39  1  0  0  0
 21 16  1  0  0  0
 10 11  1  0  0  0
 15 22  1  0  0  0
  4  5  1  0  0  0
 25 26  1  0  0  0
 35 37  1  0  0  0
 29 31  1  0  0  0
 29 32  1  0  0  0
M  END
> <minimizedAffinity>
-9.59232

> <CNNscore>
0.2742862701

> <CNNaffinity>
6.3402729034

> <CNN_VS>
1.7390497923

> <CNNaffinity_variance>
0.2444016188

$$$$
[H]C1=C(C([H])(C([H])([H])[H])C([H])([H])[H])C(=O)N(C#N)C(=O)c2c(-c3c(Br)c([H])c([H])c([H])c3C([H])([H])[H])c(nn2C([H])([H])[H])C(=O)N([H])C(S(=O)(=O)N([H])C([H])([H])C([H])(C([H])([H])[H])C([H])([H])[H])=C1[H]


 41 43  0  0  0  0  0  0  0  0999 V2000
    2.4124    2.8691   12.1554 C   0  0  0  0  0  0  0  0  0  0  0  0
    2.3795    1.7691   11.4370 C   0  0  0  0  0  0  0  0  0  0  0  0
    1.9353    1.0869   10.2706 C   0  0  0  0  0  0  0  0  0  0  0  0
    2.0567    0.6632    9.0558 C   0  0  0  0  0  0  0  0  0  0  0  0
    3.0620    0.7579    8.0448 N   0  0  0  0  0  0  0  0  0  0  0  0
    4.0670    1.7144    7.7543 C   0  0  0  0  0  0  0  0  0  0  0  0
    4.9863    1.3847    6.9625 O   0  0  0  0  0  0  0  0  0  0  0  0
    4.1070    3.0973    8.3431 C   0  0  0  0  0  0  0  0  0  0  0  0
    5.1799    3.2325    9.2240 N   0  0  0  0  0  0  0  0  0  0  0  0
    5.0126    4.2892    9.9127 N   0  0  0  0  0  0  0  0  0  0  0  0
    6.0643    4.8105   10.8477 C   0  0  0  0  0  0  0  0  0  0  0  0
    3.8412    4.8626    9.5211 C   0  0  0  0  0  0  0  0  0  0  0  0
    3.2487    4.1475    8.4846 C   0  0  0  0  0  0  0  0  0  0  0  0
    3.2007    5.7873   10.5419 C   0  0  0  0  0  0  0  0  0  0  0  0
    3.7199    6.8650   10.7378 O   0  0  0  0  0  0  0  0  0  0  0  0
    1.9886    5.4225   11.3039 N   0  0  0  0  0  0  0  0  0  0  0  0
    1.7710    4.1947   11.9931 C   0  0  0  0  0  0  0  0  0  0  0  0
    0.6607    4.2194   12.7304 O   0  0  0  0  0  0  0  0  0  0  0  0
    3.0345   -0.0813    7.3545 H   0  0  0  0  0  0  0  0  0  0  0  0
    2.2159    4.6437    7.4345 C   0  0  0  0  0  0  0  0  0  0  0  0
    2.8238    5.2908    6.3018 C   0  0  0  0  0  0  0  0  0  0  0  0
    4.3272    5.3206    6.3547 C   0  0  0  0  0  0  0  0  0  0  0  0
    2.1446    5.8302    5.2691 C   0  0  0  0  0  0  0  0  0  0  0  0
    0.7793    5.7609    5.2933 C   0  0  0  0  0  0  0  0  0  0  0  0
    0.1409    5.1566    6.3486 C   0  0  0  0  0  0  0  0  0  0  0  0
    0.9160    4.6112    7.4023 C   0  0  0  0  0  0  0  0  0  0  0  0
   -0.2223    3.9418    8.7746 Br  0  0  0  0  0  0  0  0  0  0  0  0
    2.5901    2.0427   14.6069 C   0  0  0  0  0  0  0  0  0  0  0  0
    3.2095    2.7437   13.4891 C   0  0  0  0  0  0  0  0  0  0  0  0
    3.7795    4.0115   14.0179 C   0  0  0  0  0  0  0  0  0  0  0  0
    0.6149   -0.3756    8.4897 S   0  0  0  0  0  0  0  0  0  0  0  0
   -0.1823   -0.8071    9.6378 O   0  0  0  0  0  0  0  0  0  0  0  0
    1.0874   -1.5886    7.8011 O   0  0  0  0  0  0  0  0  0  0  0  0
   -0.3799    0.6157    7.4854 N   0  0  0  0  0  0  0  0  0  0  0  0
   -1.3810    0.3851    7.7458 H   0  0  0  0  0  0  0  0  0  0  0  0
   -0.2218    0.3054    6.1030 C   0  0  0  0  0  0  0  0  0  0  0  0
    0.0295    1.6421    5.3819 C   0  0  0  0  0  0  0  0  0  0  0  0
   -0.8551    1.7426    4.1727 C   0  0  0  0  0  0  0  0  0  0  0  0
    1.5002    1.7581    5.0490 C   0  0  0  0  0  0  0  0  0  0  0  0
    0.9891    6.4317   11.3403 C   0  0  0  0  0  0  0  0  0  0  0  0
    0.1497    7.2502   11.3593 N   0  0  0  0  0  0  0  0  0  0  0  0
 28 29  1  0  0  0
 29 30  1  0  0  0
 29  1  1  0  0  0
  1  2  2  0  0  0
  2  3  1  0  0  0
  3  4  2  0  0  0
  4  5  1  0  0  0
  5  6  1  0  0  0
  6  7  2  0  0  0
  6  8  1  0  0  0
  8  9  2  0  0  0
  9 10  1  0  0  0
 10 11  1  0  0  0
 10 12  1  0  0  0
 12 13  2  0  0  0
 13 20  1  0  0  0
 20 21  2  0  0  0
 21 22  1  0  0  0
 21 23  1  0  0  0
 23 24  2  0  0  0
 24 25  1  0  0  0
 25 26  2  0  0  0
 26 27  1  0  0  0
 12 14  1  0  0  0
 14 15  2  0  0  0
 14 16  1  0  0  0
 16 17  1  0  0  0
 17 18  2  0  0  0
 16 40  1  0  0  0
 40 41  3  0  0  0
  4 31  1  0  0  0
 31 32  2  0  0  0
 31 33  2  0  0  0
 31 34  1  0  0  0
 34 36  1  0  0  0
 36 37  1  0  0  0
 37 38  1  0  0  0
 37 39  1  0  0  0
 17  1  1  0  0  0
 13  8  1  0  0  0
 26 20  1  0  0  0
  5 19  1  0  0  0
 34 35  1  0  0  0
M  END
> <minimizedAffinity>
-4.35389

> <CNNscore>
0.2362139672

> <CNNaffinity>
5.9070100784

> <CNN_VS>
1.3953182697

> <CNNaffinity_variance>
0.4251540303

$$$$
[H]C1=C(C([H])(C([H])([H])[H])C([H])([H])[H])C(=O)N(C#N)C(=O)c2c(-c3c(Br)c([H])c([H])c([H])c3C([H])([H])[H])c(nn2C([H])([H])[H])C(=O)N([H])C(S(=O)(=O)N([H])C([H])([H])C([H])(C([H])([H])[H])C([H])([H])[H])=C1[H]


 41 43  0  0  0  0  0  0  0  0999 V2000
    3.6239    5.1719   11.5090 C   0  0  0  0  0  0  0  0  0  0  0  0
    4.0269    5.1109   10.2595 C   0  0  0  0  0  0  0  0  0  0  0  0
    4.2108    4.3483    9.0731 C   0  0  0  0  0  0  0  0  0  0  0  0
    3.8579    3.9021    7.9127 C   0  0  0  0  0  0  0  0  0  0  0  0
    2.7191    4.0688    7.0659 N   0  0  0  0  0  0  0  0  0  0  0  0
    1.3522    4.3516    7.3129 C   0  0  0  0  0  0  0  0  0  0  0  0
    0.6392    4.7167    6.3439 O   0  0  0  0  0  0  0  0  0  0  0  0
    0.7039    4.2514    8.6658 C   0  0  0  0  0  0  0  0  0  0  0  0
    0.3556    5.5138    9.1458 N   0  0  0  0  0  0  0  0  0  0  0  0
    0.0904    5.4205   10.3866 N   0  0  0  0  0  0  0  0  0  0  0  0
   -0.4691    6.5686   11.1745 C   0  0  0  0  0  0  0  0  0  0  0  0
    0.2649    4.1212   10.7551 C   0  0  0  0  0  0  0  0  0  0  0  0
    0.6203    3.3295    9.6671 C   0  0  0  0  0  0  0  0  0  0  0  0
    0.5269    3.8980   12.2346 C   0  0  0  0  0  0  0  0  0  0  0  0
   -0.3982    4.0436   13.0042 O   0  0  0  0  0  0  0  0  0  0  0  0
    1.8541    3.5249   12.7658 N   0  0  0  0  0  0  0  0  0  0  0  0
    3.0915    4.1533   12.4438 C   0  0  0  0  0  0  0  0  0  0  0  0
    4.0940    3.7140   13.2048 O   0  0  0  0  0  0  0  0  0  0  0  0
    2.9634    3.9410    6.0146 H   0  0  0  0  0  0  0  0  0  0  0  0
    0.4606    1.7929    9.4965 C   0  0  0  0  0  0  0  0  0  0  0  0
   -0.8650    1.4008    9.0958 C   0  0  0  0  0  0  0  0  0  0  0  0
   -1.8050    2.5580    8.8936 C   0  0  0  0  0  0  0  0  0  0  0  0
   -1.2653    0.1269    8.9069 C   0  0  0  0  0  0  0  0  0  0  0  0
   -0.3509   -0.8693    9.1087 C   0  0  0  0  0  0  0  0  0  0  0  0
    0.9303   -0.5581    9.4934 C   0  0  0  0  0  0  0  0  0  0  0  0
    1.2840    0.8022    9.6755 C   0  0  0  0  0  0  0  0  0  0  0  0
    3.0739    0.9341   10.3127 Br  0  0  0  0  0  0  0  0  0  0  0  0
    2.6503    7.2428   12.7287 C   0  0  0  0  0  0  0  0  0  0  0  0
    3.8187    6.5647   12.1813 C   0  0  0  0  0  0  0  0  0  0  0  0
    4.5802    7.5619   11.3828 C   0  0  0  0  0  0  0  0  0  0  0  0
    5.1583    2.8360    7.1060 S   0  0  0  0  0  0  0  0  0  0  0  0
    5.0791    2.9524    5.6500 O   0  0  0  0  0  0  0  0  0  0  0  0
    4.9516    1.4181    7.4461 O   0  0  0  0  0  0  0  0  0  0  0  0
    6.7014    3.4238    7.6102 N   0  0  0  0  0  0  0  0  0  0  0  0
    6.5243    4.0031    8.4798 H   0  0  0  0  0  0  0  0  0  0  0  0
    7.2875    4.2884    6.6399 C   0  0  0  0  0  0  0  0  0  0  0  0
    7.4947    5.6466    7.3344 C   0  0  0  0  0  0  0  0  0  0  0  0
    7.6574    5.4428    8.8131 C   0  0  0  0  0  0  0  0  0  0  0  0
    6.3425    6.5627    6.9877 C   0  0  0  0  0  0  0  0  0  0  0  0
    1.8363    2.4506   13.6955 C   0  0  0  0  0  0  0  0  0  0  0  0
    1.8277    1.5788   14.4796 N   0  0  0  0  0  0  0  0  0  0  0  0
 28 29  1  0  0  0
 29 30  1  0  0  0
 29  1  1  0  0  0
  1  2  2  0  0  0
  2  3  1  0  0  0
  3  4  2  0  0  0
  4  5  1  0  0  0
  5  6  1  0  0  0
  6  7  2  0  0  0
  6  8  1  0  0  0
  8  9  2  0  0  0
  9 10  1  0  0  0
 10 11  1  0  0  0
 10 12  1  0  0  0
 12 13  2  0  0  0
 13 20  1  0  0  0
 20 21  2  0  0  0
 21 22  1  0  0  0
 21 23  1  0  0  0
 23 24  2  0  0  0
 24 25  1  0  0  0
 25 26  2  0  0  0
 26 27  1  0  0  0
 12 14  1  0  0  0
 14 15  2  0  0  0
 14 16  1  0  0  0
 16 17  1  0  0  0
 17 18  2  0  0  0
 16 40  1  0  0  0
 40 41  3  0  0  0
  4 31  1  0  0  0
 31 32  2  0  0  0
 31 33  2  0  0  0
 31 34  1  0  0  0
 34 36  1  0  0  0
 36 37  1  0  0  0
 37 38  1  0  0  0
 37 39  1  0  0  0
 17  1  1  0  0  0
 13  8  1  0  0  0
 26 20  1  0  0  0
  5 19  1  0  0  0
 34 35  1  0  0  0
M  END
> <minimizedAffinity>
-4.53845

> <CNNscore>
0.2076645046

> <CNNaffinity>
5.8505196571

> <CNN_VS>
1.2149453163

> <CNNaffinity_variance>
0.2467577457

$$$$
[H]C1=C(C([H])(C([H])([H])[H])C([H])([H])[H])C(=O)N(C#N)C(=O)c2c(-c3c(Br)c([H])c([H])c([H])c3C([H])([H])[H])c(nn2C([H])([H])[H])C(=O)N([H])C(S(=O)(=O)N([H])C([H])([H])C([H])(C([H])([H])[H])C([H])([H])[H])=C1[H]


 41 43  0  0  0  0  0  0  0  0999 V2000
    4.5157    1.6470    8.6397 C   0  0  0  0  0  0  0  0  0  0  0  0
    5.1119    2.6506    9.2433 C   0  0  0  0  0  0  0  0  0  0  0  0
    5.3856    4.0448    9.3105 C   0  0  0  0  0  0  0  0  0  0  0  0
    5.1755    5.2511    9.7235 C   0  0  0  0  0  0  0  0  0  0  0  0
    4.2313    5.8736   10.5968 N   0  0  0  0  0  0  0  0  0  0  0  0
    2.8954    5.5730   10.9639 C   0  0  0  0  0  0  0  0  0  0  0  0
    2.4151    6.1496   11.9726 O   0  0  0  0  0  0  0  0  0  0  0  0
    2.0198    4.5984   10.2262 C   0  0  0  0  0  0  0  0  0  0  0  0
    1.7753    3.4641   11.0002 N   0  0  0  0  0  0  0  0  0  0  0  0
    1.2934    2.5548   10.2521 N   0  0  0  0  0  0  0  0  0  0  0  0
    0.7748    1.2579   10.8006 C   0  0  0  0  0  0  0  0  0  0  0  0
    1.2194    3.0506    8.9859 C   0  0  0  0  0  0  0  0  0  0  0  0
    1.6397    4.3763    8.9356 C   0  0  0  0  0  0  0  0  0  0  0  0
    1.1932    2.0064    7.8830 C   0  0  0  0  0  0  0  0  0  0  0  0
    0.1807    1.3554    7.7402 O   0  0  0  0  0  0  0  0  0  0  0  0
    2.3458    1.7501    6.9949 N   0  0  0  0  0  0  0  0  0  0  0  0
    3.6954    1.5587    7.4091 C   0  0  0  0  0  0  0  0  0  0  0  0
    4.4830    1.1774    6.4035 O   0  0  0  0  0  0  0  0  0  0  0  0
    4.6298    6.7697   11.0655 H   0  0  0  0  0  0  0  0  0  0  0  0
    1.2977    5.4593    7.8745 C   0  0  0  0  0  0  0  0  0  0  0  0
    0.0410    6.1167    8.1187 C   0  0  0  0  0  0  0  0  0  0  0  0
   -0.6593    5.6441    9.3636 C   0  0  0  0  0  0  0  0  0  0  0  0
   -0.4919    7.0727    7.3306 C   0  0  0  0  0  0  0  0  0  0  0  0
    0.2069    7.4495    6.2176 C   0  0  0  0  0  0  0  0  0  0  0  0
    1.4124    6.8574    5.9303 C   0  0  0  0  0  0  0  0  0  0  0  0
    1.9141    5.8578    6.8007 C   0  0  0  0  0  0  0  0  0  0  0  0
    3.5337    5.1362    6.1054 Br  0  0  0  0  0  0  0  0  0  0  0  0
    6.0083   -0.4543    8.9247 C   0  0  0  0  0  0  0  0  0  0  0  0
    4.7867    0.2543    9.2854 C   0  0  0  0  0  0  0  0  0  0  0  0
    3.6655   -0.7195    9.2052 C   0  0  0  0  0  0  0  0  0  0  0  0
    6.4315    6.4763    9.0913 S   0  0  0  0  0  0  0  0  0  0  0  0
    6.9070    6.0785    7.7663 O   0  0  0  0  0  0  0  0  0  0  0  0
    7.6027    6.5261    9.9826 O   0  0  0  0  0  0  0  0  0  0  0  0
    5.6414    8.0043    8.9436 N   0  0  0  0  0  0  0  0  0  0  0  0
    4.7601    7.9362    9.5282 H   0  0  0  0  0  0  0  0  0  0  0  0
    5.2380    8.2704    7.6024 C   0  0  0  0  0  0  0  0  0  0  0  0
    4.0660    9.2649    7.6886 C   0  0  0  0  0  0  0  0  0  0  0  0
    3.0078    8.7264    8.6077 C   0  0  0  0  0  0  0  0  0  0  0  0
    3.5504    9.5469    6.2952 C   0  0  0  0  0  0  0  0  0  0  0  0
    2.0206    1.6746    5.6139 C   0  0  0  0  0  0  0  0  0  0  0  0
    1.7691    1.5966    4.4712 N   0  0  0  0  0  0  0  0  0  0  0  0
 28 29  1  0  0  0
 29 30  1  0  0  0
 29  1  1  0  0  0
  1  2  2  0  0  0
  2  3  1  0  0  0
  3  4  2  0  0  0
  4  5  1  0  0  0
  5  6  1  0  0  0
  6  7  2  0  0  0
  6  8  1  0  0  0
  8  9  2  0  0  0
  9 10  1  0  0  0
 10 11  1  0  0  0
 10 12  1  0  0  0
 12 13  2  0  0  0
 13 20  1  0  0  0
 20 21  2  0  0  0
 21 22  1  0  0  0
 21 23  1  0  0  0
 23 24  2  0  0  0
 24 25  1  0  0  0
 25 26  2  0  0  0
 26 27  1  0  0  0
 12 14  1  0  0  0
 14 15  2  0  0  0
 14 16  1  0  0  0
 16 17  1  0  0  0
 17 18  2  0  0  0
 16 40  1  0  0  0
 40 41  3  0  0  0
  4 31  1  0  0  0
 31 32  2  0  0  0
 31 33  2  0  0  0
 31 34  1  0  0  0
 34 36  1  0  0  0
 36 37  1  0  0  0
 37 38  1  0  0  0
 37 39  1  0  0  0
 17  1  1  0  0  0
 13  8  1  0  0  0
 26 20  1  0  0  0
  5 19  1  0  0  0
 34 35  1  0  0  0
M  END
> <minimizedAffinity>
-4.47298

> <CNNscore>
0.2058367729

> <CNNaffinity>
5.9307999611

> <CNN_VS>
1.2207766771

> <CNNaffinity_variance>
0.1309007853

$$$$
[H]C1=C(C([H])(C([H])([H])[H])C([H])([H])[H])C(=O)N(C#N)C(=O)c2c(-c3c(Br)c([H])c([H])c([H])c3C([H])([H])[H])c(nn2C([H])([H])[H])C(=O)N([H])C(S(=O)(=O)N([H])C([H])([H])C([H])(C([H])([H])[H])C([H])([H])[H])=C1[H]


 41 43  0  0  0  0  0  0  0  0999 V2000
    2.1317    2.7255    9.3610 C   0  0  0  0  0  0  0  0  0  0  0  0
    2.1682    3.4907   10.4288 C   0  0  0  0  0  0  0  0  0  0  0  0
    2.2052    4.7956   10.9936 C   0  0  0  0  0  0  0  0  0  0  0  0
    1.6709    5.8572   11.5011 C   0  0  0  0  0  0  0  0  0  0  0  0
    0.3380    6.2796   11.7956 N   0  0  0  0  0  0  0  0  0  0  0  0
   -0.9284    5.9752   11.2361 C   0  0  0  0  0  0  0  0  0  0  0  0
   -1.9550    6.2882   11.8909 O   0  0  0  0  0  0  0  0  0  0  0  0
   -1.1197    5.2913    9.9108 C   0  0  0  0  0  0  0  0  0  0  0  0
   -1.6389    4.0083   10.0830 N   0  0  0  0  0  0  0  0  0  0  0  0
   -1.5100    3.3655    8.9926 N   0  0  0  0  0  0  0  0  0  0  0  0
   -2.1073    2.0038    8.7904 C   0  0  0  0  0  0  0  0  0  0  0  0
   -0.9030    4.1870    8.0920 C   0  0  0  0  0  0  0  0  0  0  0  0
   -0.6723    5.4486    8.6323 C   0  0  0  0  0  0  0  0  0  0  0  0
   -0.1864    3.4815    6.9535 C   0  0  0  0  0  0  0  0  0  0  0  0
   -0.8619    2.9573    6.0944 O   0  0  0  0  0  0  0  0  0  0  0  0
    1.2861    3.4020    6.8607 N   0  0  0  0  0  0  0  0  0  0  0  0
    2.1717    3.0226    7.9101 C   0  0  0  0  0  0  0  0  0  0  0  0
    3.4265    2.8774    7.4842 O   0  0  0  0  0  0  0  0  0  0  0  0
    0.3015    6.9900   12.6174 H   0  0  0  0  0  0  0  0  0  0  0  0
   -0.4628    6.7961    7.8866 C   0  0  0  0  0  0  0  0  0  0  0  0
   -1.6962    7.4281    7.4986 C   0  0  0  0  0  0  0  0  0  0  0  0
   -2.9255    6.6724    7.9244 C   0  0  0  0  0  0  0  0  0  0  0  0
   -1.7836    8.5894    6.8185 C   0  0  0  0  0  0  0  0  0  0  0  0
   -0.6204    9.2173    6.4691 C   0  0  0  0  0  0  0  0  0  0  0  0
    0.5888    8.6624    6.8101 C   0  0  0  0  0  0  0  0  0  0  0  0
    0.6086    7.4384    7.5243 C   0  0  0  0  0  0  0  0  0  0  0  0
    2.4035    6.8482    7.7634 Br  0  0  0  0  0  0  0  0  0  0  0  0
    1.0690    0.6508   10.4971 C   0  0  0  0  0  0  0  0  0  0  0  0
    2.1334    1.1964    9.6641 C   0  0  0  0  0  0  0  0  0  0  0  0
    3.4199    0.6426   10.1642 C   0  0  0  0  0  0  0  0  0  0  0  0
    2.9249    7.1264   12.0441 S   0  0  0  0  0  0  0  0  0  0  0  0
    3.3855    6.8370   13.4020 O   0  0  0  0  0  0  0  0  0  0  0  0
    2.3282    8.4726   12.0593 O   0  0  0  0  0  0  0  0  0  0  0  0
    4.2794    7.0102   10.9798 N   0  0  0  0  0  0  0  0  0  0  0  0
    3.9763    6.3738   10.1884 H   0  0  0  0  0  0  0  0  0  0  0  0
    5.4022    6.3961   11.6080 C   0  0  0  0  0  0  0  0  0  0  0  0
    6.1976    5.6956   10.4915 C   0  0  0  0  0  0  0  0  0  0  0  0
    5.8987    6.3431    9.1702 C   0  0  0  0  0  0  0  0  0  0  0  0
    5.8815    4.2167   10.5094 C   0  0  0  0  0  0  0  0  0  0  0  0
    1.8141    3.7210    5.5808 C   0  0  0  0  0  0  0  0  0  0  0  0
    2.2530    3.9616    4.5203 N   0  0  0  0  0  0  0  0  0  0  0  0
 28 29  1  0  0  0
 29 30  1  0  0  0
 29  1  1  0  0  0
  1  2  2  0  0  0
  2  3  1  0  0  0
  3  4  2  0  0  0
  4  5  1  0  0  0
  5  6  1  0  0  0
  6  7  2  0  0  0
  6  8  1  0  0  0
  8  9  2  0  0  0
  9 10  1  0  0  0
 10 11  1  0  0  0
 10 12  1  0  0  0
 12 13  2  0  0  0
 13 20  1  0  0  0
 20 21  2  0  0  0
 21 22  1  0  0  0
 21 23  1  0  0  0
 23 24  2  0  0  0
 24 25  1  0  0  0
 25 26  2  0  0  0
 26 27  1  0  0  0
 12 14  1  0  0  0
 14 15  2  0  0  0
 14 16  1  0  0  0
 16 17  1  0  0  0
 17 18  2  0  0  0
 16 40  1  0  0  0
 40 41  3  0  0  0
  4 31  1  0  0  0
 31 32  2  0  0  0
 31 33  2  0  0  0
 31 34  1  0  0  0
 34 36  1  0  0  0
 36 37  1  0  0  0
 37 38  1  0  0  0
 37 39  1  0  0  0
 17  1  1  0  0  0
 13  8  1  0  0  0
 26 20  1  0  0  0
  5 19  1  0  0  0
 34 35  1  0  0  0
M  END
> <minimizedAffinity>
-4.44219

> <CNNscore>
0.1898650378

> <CNNaffinity>
5.9022817612

> <CNN_VS>
1.1206369400

> <CNNaffinity_variance>
0.4168331027

$$$$
[H]C1=C(C([H])(C([H])([H])[H])C([H])([H])[H])C(=O)N(C#N)C(=O)c2c(-c3c(Br)c([H])c([H])c([H])c3C([H])([H])[H])c(nn2C([H])([H])[H])C(=O)N([H])C(S(=O)(=O)N([H])C([H])([H])C([H])(C([H])([H])[H])C([H])([H])[H])=C1[H]


 41 43  0  0  0  0  0  0  0  0999 V2000
    4.8568    2.8875    9.1506 C   0  0  0  0  0  0  0  0  0  0  0  0
    3.6096    3.2820    9.2776 C   0  0  0  0  0  0  0  0  0  0  0  0
    2.6683    4.3457    9.3515 C   0  0  0  0  0  0  0  0  0  0  0  0
    1.8091    5.1730    8.8542 C   0  0  0  0  0  0  0  0  0  0  0  0
    1.2845    5.4276    7.5497 N   0  0  0  0  0  0  0  0  0  0  0  0
    1.8015    5.2616    6.2403 C   0  0  0  0  0  0  0  0  0  0  0  0
    0.9968    5.3123    5.2757 O   0  0  0  0  0  0  0  0  0  0  0  0
    3.2534    5.0184    5.9341 C   0  0  0  0  0  0  0  0  0  0  0  0
    3.4501    3.7257    5.4489 N   0  0  0  0  0  0  0  0  0  0  0  0
    4.6942    3.4612    5.4830 N   0  0  0  0  0  0  0  0  0  0  0  0
    5.2630    2.2075    4.8859 C   0  0  0  0  0  0  0  0  0  0  0  0
    5.3387    4.5469    5.9931 C   0  0  0  0  0  0  0  0  0  0  0  0
    4.4507    5.5851    6.2581 C   0  0  0  0  0  0  0  0  0  0  0  0
    6.6979    4.2620    6.6086 C   0  0  0  0  0  0  0  0  0  0  0  0
    7.6177    4.0050    5.8620 O   0  0  0  0  0  0  0  0  0  0  0  0
    6.9359    4.2757    8.0667 N   0  0  0  0  0  0  0  0  0  0  0  0
    6.1384    3.6241    9.0512 C   0  0  0  0  0  0  0  0  0  0  0  0
    6.6935    3.6705   10.2623 O   0  0  0  0  0  0  0  0  0  0  0  0
    0.2810    5.8438    7.5817 H   0  0  0  0  0  0  0  0  0  0  0  0
    4.7495    7.1054    6.3807 C   0  0  0  0  0  0  0  0  0  0  0  0
    4.8468    7.7695    5.1075 C   0  0  0  0  0  0  0  0  0  0  0  0
    4.6057    6.8637    3.9306 C   0  0  0  0  0  0  0  0  0  0  0  0
    5.1239    9.0790    4.9432 C   0  0  0  0  0  0  0  0  0  0  0  0
    5.3284    9.8368    6.0628 C   0  0  0  0  0  0  0  0  0  0  0  0
    5.2502    9.2595    7.3065 C   0  0  0  0  0  0  0  0  0  0  0  0
    4.9563    7.8767    7.4073 C   0  0  0  0  0  0  0  0  0  0  0  0
    5.0207    7.3242    9.2289 Br  0  0  0  0  0  0  0  0  0  0  0  0
    5.9763    0.7266    8.2552 C   0  0  0  0  0  0  0  0  0  0  0  0
    5.0515    1.3417    9.1991 C   0  0  0  0  0  0  0  0  0  0  0  0
    3.8010    0.5366    9.1877 C   0  0  0  0  0  0  0  0  0  0  0  0
    1.0030    6.2594   10.1381 S   0  0  0  0  0  0  0  0  0  0  0  0
   -0.4508    6.2435    9.9770 O   0  0  0  0  0  0  0  0  0  0  0  0
    1.4470    7.6557    9.9898 O   0  0  0  0  0  0  0  0  0  0  0  0
    1.3801    5.6018   11.6894 N   0  0  0  0  0  0  0  0  0  0  0  0
    0.4525    5.3398   12.1298 H   0  0  0  0  0  0  0  0  0  0  0  0
    1.9953    6.5637   12.5429 C   0  0  0  0  0  0  0  0  0  0  0  0
    3.5105    6.2996   12.4770 C   0  0  0  0  0  0  0  0  0  0  0  0
    3.7917    4.8621   12.8071 C   0  0  0  0  0  0  0  0  0  0  0  0
    4.2237    7.2669   13.3950 C   0  0  0  0  0  0  0  0  0  0  0  0
    8.0905    4.9995    8.4689 C   0  0  0  0  0  0  0  0  0  0  0  0
    9.0296    5.6128    8.8106 N   0  0  0  0  0  0  0  0  0  0  0  0
 28 29  1  0  0  0
 29 30  1  0  0  0
 29  1  1  0  0  0
  1  2  2  0  0  0
  2  3  1  0  0  0
  3  4  2  0  0  0
  4  5  1  0  0  0
  5  6  1  0  0  0
  6  7  2  0  0  0
  6  8  1  0  0  0
  8  9  2  0  0  0
  9 10  1  0  0  0
 10 11  1  0  0  0
 10 12  1  0  0  0
 12 13  2  0  0  0
 13 20  1  0  0  0
 20 21  2  0  0  0
 21 22  1  0  0  0
 21 23  1  0  0  0
 23 24  2  0  0  0
 24 25  1  0  0  0
 25 26  2  0  0  0
 26 27  1  0  0  0
 12 14  1  0  0  0
 14 15  2  0  0  0
 14 16  1  0  0  0
 16 17  1  0  0  0
 17 18  2  0  0  0
 16 40  1  0  0  0
 40 41  3  0  0  0
  4 31  1  0  0  0
 31 32  2  0  0  0
 31 33  2  0  0  0
 31 34  1  0  0  0
 34 36  1  0  0  0
 36 37  1  0  0  0
 37 38  1  0  0  0
 37 39  1  0  0  0
 17  1  1  0  0  0
 13  8  1  0  0  0
 26 20  1  0  0  0
  5 19  1  0  0  0
 34 35  1  0  0  0
M  END
> <minimizedAffinity>
-4.59146

> <CNNscore>
0.1713635623

> <CNNaffinity>
5.7938013077

> <CNN_VS>
0.9928464293

> <CNNaffinity_variance>
0.2601577342

$$$$
[H]C1=C(C([H])(C([H])([H])[H])C([H])([H])[H])C(=O)N(C#N)C(=O)c2c(-c3c(Br)c([H])c([H])c([H])c3C([H])([H])[H])c(nn2C([H])([H])[H])C(=O)N([H])C(S(=O)(=O)N([H])C([H])([H])C([H])(C([H])([H])[H])C([H])([H])[H])=C1[H]


 41 43  0  0  0  0  0  0  0  0999 V2000
    3.6420    7.8148    6.4500 C   0  0  0  0  0  0  0  0  0  0  0  0
    3.7207    8.1214    7.7255 C   0  0  0  0  0  0  0  0  0  0  0  0
    3.4296    7.7943    9.0788 C   0  0  0  0  0  0  0  0  0  0  0  0
    3.6985    7.2783   10.2327 C   0  0  0  0  0  0  0  0  0  0  0  0
    4.8081    6.5752   10.7951 N   0  0  0  0  0  0  0  0  0  0  0  0
    5.8124    5.7382   10.2471 C   0  0  0  0  0  0  0  0  0  0  0  0
    6.8236    5.4888   10.9512 O   0  0  0  0  0  0  0  0  0  0  0  0
    5.7474    5.1376    8.8702 C   0  0  0  0  0  0  0  0  0  0  0  0
    6.7103    5.7031    8.0345 N   0  0  0  0  0  0  0  0  0  0  0  0
    6.4373    5.3963    6.8302 N   0  0  0  0  0  0  0  0  0  0  0  0
    7.3623    5.7167    5.6929 C   0  0  0  0  0  0  0  0  0  0  0  0
    5.3019    4.6446    6.8373 C   0  0  0  0  0  0  0  0  0  0  0  0
    4.8498    4.4218    8.1345 C   0  0  0  0  0  0  0  0  0  0  0  0
    4.5252    4.6339    5.5319 C   0  0  0  0  0  0  0  0  0  0  0  0
    4.9889    4.0139    4.5992 O   0  0  0  0  0  0  0  0  0  0  0  0
    3.2457    5.3514    5.3551 N   0  0  0  0  0  0  0  0  0  0  0  0
    2.9863    6.7032    5.7224 C   0  0  0  0  0  0  0  0  0  0  0  0
    1.7999    7.1263    5.2860 O   0  0  0  0  0  0  0  0  0  0  0  0
    4.8817    6.7116   11.8709 H   0  0  0  0  0  0  0  0  0  0  0  0
    3.9281    3.2837    8.6550 C   0  0  0  0  0  0  0  0  0  0  0  0
    4.6442    2.0805    8.9879 C   0  0  0  0  0  0  0  0  0  0  0  0
    6.1326    2.1874    8.7957 C   0  0  0  0  0  0  0  0  0  0  0  0
    4.0716    0.9444    9.4351 C   0  0  0  0  0  0  0  0  0  0  0  0
    2.7128    0.9271    9.5856 C   0  0  0  0  0  0  0  0  0  0  0  0
    1.9740    2.0447    9.2828 C   0  0  0  0  0  0  0  0  0  0  0  0
    2.6398    3.2054    8.8159 C   0  0  0  0  0  0  0  0  0  0  0  0
    1.3711    4.5541    8.3704 Br  0  0  0  0  0  0  0  0  0  0  0  0
    4.9290    8.3916    4.2739 C   0  0  0  0  0  0  0  0  0  0  0  0
    4.2874    8.8638    5.4945 C   0  0  0  0  0  0  0  0  0  0  0  0
    5.2120    9.8348    6.1380 C   0  0  0  0  0  0  0  0  0  0  0  0
    2.3590    7.5642   11.4985 S   0  0  0  0  0  0  0  0  0  0  0  0
    1.5084    8.6836   11.0943 O   0  0  0  0  0  0  0  0  0  0  0  0
    2.9443    7.9059   12.8059 O   0  0  0  0  0  0  0  0  0  0  0  0
    1.3838    6.1406   11.5569 N   0  0  0  0  0  0  0  0  0  0  0  0
    1.7255    5.5190   10.7694 H   0  0  0  0  0  0  0  0  0  0  0  0
    0.0094    6.4230   11.3049 C   0  0  0  0  0  0  0  0  0  0  0  0
   -0.7782    5.8593   12.5016 C   0  0  0  0  0  0  0  0  0  0  0  0
   -2.2268    5.7133   12.1344 C   0  0  0  0  0  0  0  0  0  0  0  0
   -0.5606    6.7507   13.7037 C   0  0  0  0  0  0  0  0  0  0  0  0
    2.2208    4.5854    4.7374 C   0  0  0  0  0  0  0  0  0  0  0  0
    1.3605    3.9714    4.2294 N   0  0  0  0  0  0  0  0  0  0  0  0
 28 29  1  0  0  0
 29 30  1  0  0  0
 29  1  1  0  0  0
  1  2  2  0  0  0
  2  3  1  0  0  0
  3  4  2  0  0  0
  4  5  1  0  0  0
  5  6  1  0  0  0
  6  7  2  0  0  0
  6  8  1  0  0  0
  8  9  2  0  0  0
  9 10  1  0  0  0
 10 11  1  0  0  0
 10 12  1  0  0  0
 12 13  2  0  0  0
 13 20  1  0  0  0
 20 21  2  0  0  0
 21 22  1  0  0  0
 21 23  1  0  0  0
 23 24  2  0  0  0
 24 25  1  0  0  0
 25 26  2  0  0  0
 26 27  1  0  0  0
 12 14  1  0  0  0
 14 15  2  0  0  0
 14 16  1  0  0  0
 16 17  1  0  0  0
 17 18  2  0  0  0
 16 40  1  0  0  0
 40 41  3  0  0  0
  4 31  1  0  0  0
 31 32  2  0  0  0
 31 33  2  0  0  0
 31 34  1  0  0  0
 34 36  1  0  0  0
 36 37  1  0  0  0
 37 38  1  0  0  0
 37 39  1  0  0  0
 17  1  1  0  0  0
 13  8  1  0  0  0
 26 20  1  0  0  0
  5 19  1  0  0  0
 34 35  1  0  0  0
M  END
> <minimizedAffinity>
-5.29858

> <CNNscore>
0.1619457752

> <CNNaffinity>
5.9310655594

> <CNN_VS>
0.9605110288

> <CNNaffinity_variance>
0.1357182562

$$$$
[H]C1=C(C([H])(C([H])([H])[H])C([H])([H])[H])C(=O)N(C#N)C(=O)c2c(-c3c(Br)c([H])c([H])c([H])c3C([H])([H])[H])c(nn2C([H])([H])[H])C(=O)N([H])C(S(=O)(=O)N([H])C([H])([H])C([H])(C([H])([H])[H])C([H])([H])[H])=C1[H]


 41 43  0  0  0  0  0  0  0  0999 V2000
    4.9133    2.4287    8.1949 C   0  0  0  0  0  0  0  0  0  0  0  0
    6.0573    3.0753    8.1747 C   0  0  0  0  0  0  0  0  0  0  0  0
    6.8179    4.1951    7.7382 C   0  0  0  0  0  0  0  0  0  0  0  0
    7.3169    5.3805    7.8640 C   0  0  0  0  0  0  0  0  0  0  0  0
    7.2751    6.3967    8.8676 N   0  0  0  0  0  0  0  0  0  0  0  0
    6.3272    6.7490    9.8610 C   0  0  0  0  0  0  0  0  0  0  0  0
    6.6959    7.5192   10.7838 O   0  0  0  0  0  0  0  0  0  0  0  0
    4.9091    6.2498    9.8848 C   0  0  0  0  0  0  0  0  0  0  0  0
    4.7052    5.3807   10.9564 N   0  0  0  0  0  0  0  0  0  0  0  0
    3.6087    4.7607   10.7769 N   0  0  0  0  0  0  0  0  0  0  0  0
    3.0163    3.8623   11.8227 C   0  0  0  0  0  0  0  0  0  0  0  0
    3.0754    5.1867    9.5986 C   0  0  0  0  0  0  0  0  0  0  0  0
    3.8623    6.1747    9.0141 C   0  0  0  0  0  0  0  0  0  0  0  0
    2.0951    4.2263    8.9476 C   0  0  0  0  0  0  0  0  0  0  0  0
    1.0010    4.1003    9.4540 O   0  0  0  0  0  0  0  0  0  0  0  0
    2.4248    3.4410    7.7402 N   0  0  0  0  0  0  0  0  0  0  0  0
    3.6085    2.6745    7.5377 C   0  0  0  0  0  0  0  0  0  0  0  0
    3.5500    1.9390    6.4275 O   0  0  0  0  0  0  0  0  0  0  0  0
    8.1569    7.0320    8.8498 H   0  0  0  0  0  0  0  0  0  0  0  0
    3.4464    7.2530    7.9749 C   0  0  0  0  0  0  0  0  0  0  0  0
    2.6984    8.3389    8.5517 C   0  0  0  0  0  0  0  0  0  0  0  0
    2.5060    8.2205   10.0392 C   0  0  0  0  0  0  0  0  0  0  0  0
    2.2016    9.3833    7.8582 C   0  0  0  0  0  0  0  0  0  0  0  0
    2.4207    9.4200    6.5091 C   0  0  0  0  0  0  0  0  0  0  0  0
    3.1269    8.4115    5.9004 C   0  0  0  0  0  0  0  0  0  0  0  0
    3.6200    7.3421    6.6890 C   0  0  0  0  0  0  0  0  0  0  0  0
    4.4564    6.0404    5.5785 Br  0  0  0  0  0  0  0  0  0  0  0  0
    5.5593   -0.0763    8.3745 C   0  0  0  0  0  0  0  0  0  0  0  0
    4.9438    1.0907    8.9941 C   0  0  0  0  0  0  0  0  0  0  0  0
    3.6427    0.6567    9.5692 C   0  0  0  0  0  0  0  0  0  0  0  0
    8.4068    5.8773    6.4344 S   0  0  0  0  0  0  0  0  0  0  0  0
    8.0868    5.0800    5.2505 O   0  0  0  0  0  0  0  0  0  0  0  0
    9.8243    5.6398    6.7550 O   0  0  0  0  0  0  0  0  0  0  0  0
    8.0735    7.5328    6.0749 N   0  0  0  0  0  0  0  0  0  0  0  0
    7.1447    7.7515    6.5362 H   0  0  0  0  0  0  0  0  0  0  0  0
    7.9117    7.7543    4.6760 C   0  0  0  0  0  0  0  0  0  0  0  0
    7.6828    9.2662    4.4973 C   0  0  0  0  0  0  0  0  0  0  0  0
    6.5955    9.7295    5.4234 C   0  0  0  0  0  0  0  0  0  0  0  0
    7.3831    9.5548    3.0433 C   0  0  0  0  0  0  0  0  0  0  0  0
    1.4273    3.4679    6.7288 C   0  0  0  0  0  0  0  0  0  0  0  0
    0.5975    3.4687    5.9003 N   0  0  0  0  0  0  0  0  0  0  0  0
 28 29  1  0  0  0
 29 30  1  0  0  0
 29  1  1  0  0  0
  1  2  2  0  0  0
  2  3  1  0  0  0
  3  4  2  0  0  0
  4  5  1  0  0  0
  5  6  1  0  0  0
  6  7  2  0  0  0
  6  8  1  0  0  0
  8  9  2  0  0  0
  9 10  1  0  0  0
 10 11  1  0  0  0
 10 12  1  0  0  0
 12 13  2  0  0  0
 13 20  1  0  0  0
 20 21  2  0  0  0
 21 22  1  0  0  0
 21 23  1  0  0  0
 23 24  2  0  0  0
 24 25  1  0  0  0
 25 26  2  0  0  0
 26 27  1  0  0  0
 12 14  1  0  0  0
 14 15  2  0  0  0
 14 16  1  0  0  0
 16 17  1  0  0  0
 17 18  2  0  0  0
 16 40  1  0  0  0
 40 41  3  0  0  0
  4 31  1  0  0  0
 31 32  2  0  0  0
 31 33  2  0  0  0
 31 34  1  0  0  0
 34 36  1  0  0  0
 36 37  1  0  0  0
 37 38  1  0  0  0
 37 39  1  0  0  0
 17  1  1  0  0  0
 13  8  1  0  0  0
 26 20  1  0  0  0
  5 19  1  0  0  0
 34 35  1  0  0  0
M  END
> <minimizedAffinity>
-5.53949

> <CNNscore>
0.1571029425

> <CNNaffinity>
5.8862867355

> <CNN_VS>
0.9247529507

> <CNNaffinity_variance>
0.1402420253

$$$$
[H]C1=C(C([H])(C([H])([H])[H])C([H])([H])[H])C(=O)N(C#N)C(=O)c2c(-c3c(Br)c([H])c([H])c([H])c3C([H])([H])[H])c(nn2C([H])([H])[H])C(=O)N([H])C(S(=O)(=O)N([H])C([H])([H])C([H])(C([H])([H])[H])C([H])([H])[H])=C1[H]


 41 43  0  0  0  0  0  0  0  0999 V2000
    2.0502    3.6590   12.0426 C   0  0  0  0  0  0  0  0  0  0  0  0
    1.4867    2.8898   11.1382 C   0  0  0  0  0  0  0  0  0  0  0  0
    0.6976    2.7679    9.9611 C   0  0  0  0  0  0  0  0  0  0  0  0
    0.5241    2.6599    8.6851 C   0  0  0  0  0  0  0  0  0  0  0  0
    1.3852    2.6023    7.5462 N   0  0  0  0  0  0  0  0  0  0  0  0
    2.6773    3.1172    7.2725 C   0  0  0  0  0  0  0  0  0  0  0  0
    3.2957    2.6640    6.2761 O   0  0  0  0  0  0  0  0  0  0  0  0
    3.3587    4.1658    8.1071 C   0  0  0  0  0  0  0  0  0  0  0  0
    4.4529    3.6289    8.7853 N   0  0  0  0  0  0  0  0  0  0  0  0
    4.8154    4.4477    9.6891 N   0  0  0  0  0  0  0  0  0  0  0  0
    6.0618    4.2450   10.5000 C   0  0  0  0  0  0  0  0  0  0  0  0
    3.9790    5.5212    9.6410 C   0  0  0  0  0  0  0  0  0  0  0  0
    3.0531    5.3961    8.6096 C   0  0  0  0  0  0  0  0  0  0  0  0
    3.8867    6.3272   10.9252 C   0  0  0  0  0  0  0  0  0  0  0  0
    4.8346    7.0173   11.2329 O   0  0  0  0  0  0  0  0  0  0  0  0
    2.7028    6.2941   11.8086 N   0  0  0  0  0  0  0  0  0  0  0  0
    2.0335    5.1232   12.2677 C   0  0  0  0  0  0  0  0  0  0  0  0
    1.1073    5.3984   13.1860 O   0  0  0  0  0  0  0  0  0  0  0  0
    0.9415    2.0532    6.7198 H   0  0  0  0  0  0  0  0  0  0  0  0
    2.2537    6.5162    7.8869 C   0  0  0  0  0  0  0  0  0  0  0  0
    3.0233    7.2078    6.8865 C   0  0  0  0  0  0  0  0  0  0  0  0
    4.4235    6.6812    6.7265 C   0  0  0  0  0  0  0  0  0  0  0  0
    2.5674    8.2345    6.1403 C   0  0  0  0  0  0  0  0  0  0  0  0
    1.2820    8.6539    6.3435 C   0  0  0  0  0  0  0  0  0  0  0  0
    0.4981    8.0340    7.2856 C   0  0  0  0  0  0  0  0  0  0  0  0
    1.0409    6.9615    8.0363 C   0  0  0  0  0  0  0  0  0  0  0  0
   -0.2181    6.3686    9.3366 Br  0  0  0  0  0  0  0  0  0  0  0  0
    2.0548    2.1127   14.1243 C   0  0  0  0  0  0  0  0  0  0  0  0
    2.8212    2.8862   13.1554 C   0  0  0  0  0  0  0  0  0  0  0  0
    3.8240    3.6819   13.9124 C   0  0  0  0  0  0  0  0  0  0  0  0
   -1.2659    2.4682    8.1979 S   0  0  0  0  0  0  0  0  0  0  0  0
   -1.6030    3.4023    7.1238 O   0  0  0  0  0  0  0  0  0  0  0  0
   -2.1493    2.7699    9.3369 O   0  0  0  0  0  0  0  0  0  0  0  0
   -1.4748    0.8620    7.6001 N   0  0  0  0  0  0  0  0  0  0  0  0
   -2.3187    0.8952    6.9598 H   0  0  0  0  0  0  0  0  0  0  0  0
   -1.7735   -0.0624    8.6434 C   0  0  0  0  0  0  0  0  0  0  0  0
   -0.6965   -1.1603    8.5749 C   0  0  0  0  0  0  0  0  0  0  0  0
   -1.3424   -2.5132    8.6596 C   0  0  0  0  0  0  0  0  0  0  0  0
    0.3241   -0.9238    9.6656 C   0  0  0  0  0  0  0  0  0  0  0  0
    2.2440    7.5718   12.2277 C   0  0  0  0  0  0  0  0  0  0  0  0
    1.8724    8.6215   12.5952 N   0  0  0  0  0  0  0  0  0  0  0  0
 28 29  1  0  0  0
 29 30  1  0  0  0
 29  1  1  0  0  0
  1  2  2  0  0  0
  2  3  1  0  0  0
  3  4  2  0  0  0
  4  5  1  0  0  0
  5  6  1  0  0  0
  6  7  2  0  0  0
  6  8  1  0  0  0
  8  9  2  0  0  0
  9 10  1  0  0  0
 10 11  1  0  0  0
 10 12  1  0  0  0
 12 13  2  0  0  0
 13 20  1  0  0  0
 20 21  2  0  0  0
 21 22  1  0  0  0
 21 23  1  0  0  0
 23 24  2  0  0  0
 24 25  1  0  0  0
 25 26  2  0  0  0
 26 27  1  0  0  0
 12 14  1  0  0  0
 14 15  2  0  0  0
 14 16  1  0  0  0
 16 17  1  0  0  0
 17 18  2  0  0  0
 16 40  1  0  0  0
 40 41  3  0  0  0
  4 31  1  0  0  0
 31 32  2  0  0  0
 31 33  2  0  0  0
 31 34  1  0  0  0
 34 36  1  0  0  0
 36 37  1  0  0  0
 37 38  1  0  0  0
 37 39  1  0  0  0
 17  1  1  0  0  0
 13  8  1  0  0  0
 26 20  1  0  0  0
  5 19  1  0  0  0
 34 35  1  0  0  0
M  END
> <minimizedAffinity>
-4.90602

> <CNNscore>
0.1538585275

> <CNNaffinity>
6.0386352539

> <CNN_VS>
0.9290955067

> <CNNaffinity_variance>
0.3555791974

$$$$
[H]C1=C(C([H])(C([H])([H])[H])C([H])([H])[H])C(=O)N(C#N)C(=O)c2c(-c3c(Br)c([H])c([H])c([H])c3C([H])([H])[H])c(nn2C([H])([H])[H])C(=O)N([H])C(S(=O)(=O)N([H])C([H])([H])C([H])(C([H])([H])[H])C([H])([H])[H])=C1[H]


 41 43  0  0  0  0  0  0  0  0999 V2000
    2.3912    3.8731   11.0895 C   0  0  0  0  0  0  0  0  0  0  0  0
    3.2766    3.5951   10.1589 C   0  0  0  0  0  0  0  0  0  0  0  0
    3.6361    3.5804    8.7828 C   0  0  0  0  0  0  0  0  0  0  0  0
    4.1804    4.0728    7.7192 C   0  0  0  0  0  0  0  0  0  0  0  0
    4.8939    5.2709    7.4072 N   0  0  0  0  0  0  0  0  0  0  0  0
    4.8773    6.5839    7.9412 C   0  0  0  0  0  0  0  0  0  0  0  0
    5.8234    7.3561    7.6422 O   0  0  0  0  0  0  0  0  0  0  0  0
    3.8019    7.1076    8.8522 C   0  0  0  0  0  0  0  0  0  0  0  0
    4.2973    7.3152   10.1394 N   0  0  0  0  0  0  0  0  0  0  0  0
    3.3165    7.4686   10.9351 N   0  0  0  0  0  0  0  0  0  0  0  0
    3.5039    7.8653   12.3702 C   0  0  0  0  0  0  0  0  0  0  0  0
    2.1688    7.3565   10.2107 C   0  0  0  0  0  0  0  0  0  0  0  0
    2.4395    7.1643    8.8592 C   0  0  0  0  0  0  0  0  0  0  0  0
    0.9347    6.9736   11.0094 C   0  0  0  0  0  0  0  0  0  0  0  0
    0.4494    7.8089   11.7415 O   0  0  0  0  0  0  0  0  0  0  0  0
    0.3171    5.6334   10.9362 N   0  0  0  0  0  0  0  0  0  0  0  0
    1.0035    4.3888   11.0341 C   0  0  0  0  0  0  0  0  0  0  0  0
    0.1658    3.3543   11.1051 O   0  0  0  0  0  0  0  0  0  0  0  0
    5.5852    5.1367    6.5793 H   0  0  0  0  0  0  0  0  0  0  0  0
    1.5211    7.4523    7.6388 C   0  0  0  0  0  0  0  0  0  0  0  0
    1.5574    8.8264    7.2126 C   0  0  0  0  0  0  0  0  0  0  0  0
    2.4988    9.6853    8.0124 C   0  0  0  0  0  0  0  0  0  0  0  0
    0.8325    9.3346    6.1952 C   0  0  0  0  0  0  0  0  0  0  0  0
    0.0010    8.4890    5.5149 C   0  0  0  0  0  0  0  0  0  0  0  0
   -0.0782    7.1662    5.8758 C   0  0  0  0  0  0  0  0  0  0  0  0
    0.7106    6.6981    6.9562 C   0  0  0  0  0  0  0  0  0  0  0  0
    0.3208    4.8672    7.3071 Br  0  0  0  0  0  0  0  0  0  0  0  0
    2.5162    2.1940   13.0617 C   0  0  0  0  0  0  0  0  0  0  0  0
    2.8441    3.5138   12.5372 C   0  0  0  0  0  0  0  0  0  0  0  0
    2.4947    4.5099   13.5848 C   0  0  0  0  0  0  0  0  0  0  0  0
    4.0767    2.9363    6.2441 S   0  0  0  0  0  0  0  0  0  0  0  0
    3.2319    3.5269    5.2061 O   0  0  0  0  0  0  0  0  0  0  0  0
    3.4728    1.6477    6.6227 O   0  0  0  0  0  0  0  0  0  0  0  0
    5.6716    2.7626    5.6061 N   0  0  0  0  0  0  0  0  0  0  0  0
    5.5586    2.3118    4.6536 H   0  0  0  0  0  0  0  0  0  0  0  0
    6.4709    1.8852    6.3957 C   0  0  0  0  0  0  0  0  0  0  0  0
    7.4635    2.7743    7.1665 C   0  0  0  0  0  0  0  0  0  0  0  0
    8.8018    2.7520    6.4859 C   0  0  0  0  0  0  0  0  0  0  0  0
    7.5256    2.3166    8.6066 C   0  0  0  0  0  0  0  0  0  0  0  0
   -1.0947    5.6428   10.7759 C   0  0  0  0  0  0  0  0  0  0  0  0
   -2.2576    5.6354   10.6262 N   0  0  0  0  0  0  0  0  0  0  0  0
 28 29  1  0  0  0
 29 30  1  0  0  0
 29  1  1  0  0  0
  1  2  2  0  0  0
  2  3  1  0  0  0
  3  4  2  0  0  0
  4  5  1  0  0  0
  5  6  1  0  0  0
  6  7  2  0  0  0
  6  8  1  0  0  0
  8  9  2  0  0  0
  9 10  1  0  0  0
 10 11  1  0  0  0
 10 12  1  0  0  0
 12 13  2  0  0  0
 13 20  1  0  0  0
 20 21  2  0  0  0
 21 22  1  0  0  0
 21 23  1  0  0  0
 23 24  2  0  0  0
 24 25  1  0  0  0
 25 26  2  0  0  0
 26 27  1  0  0  0
 12 14  1  0  0  0
 14 15  2  0  0  0
 14 16  1  0  0  0
 16 17  1  0  0  0
 17 18  2  0  0  0
 16 40  1  0  0  0
 40 41  3  0  0  0
  4 31  1  0  0  0
 31 32  2  0  0  0
 31 33  2  0  0  0
 31 34  1  0  0  0
 34 36  1  0  0  0
 36 37  1  0  0  0
 37 38  1  0  0  0
 37 39  1  0  0  0
 17  1  1  0  0  0
 13  8  1  0  0  0
 26 20  1  0  0  0
  5 19  1  0  0  0
 34 35  1  0  0  0
M  END
> <minimizedAffinity>
-5.24615

> <CNNscore>
0.1507131010

> <CNNaffinity>
5.8223457336

> <CNN_VS>
0.8775037527

> <CNNaffinity_variance>
0.2705284655

$$$$
[H]c1nc(N([H])c2nc3c(C#N)c([H])nn3c(N([H])C3([H])C([H])([H])C3([H])[H])c2[H])c([H])c(N2C([H])([H])C([H])([H])N(C([H])([H])[H])C([H])([H])C2([H])[H])c1C#N


 33 37  0  0  0  0  0  0  0  0999 V2000
    3.4155    0.9556   16.4484 N   0  0  0  0  0  0  0  0  0  0  0  0
    3.7032    0.0990   15.9585 H   0  0  0  0  0  0  0  0  0  0  0  0
    3.0041    2.0832   15.6892 C   0  0  0  0  0  0  0  0  0  0  0  0
    3.1378    3.3470   16.2034 C   0  0  0  0  0  0  0  0  0  0  0  0
    2.7449    4.5005   15.4895 C   0  0  0  0  0  0  0  0  0  0  0  0
    2.2339    4.2180   14.2713 N   0  0  0  0  0  0  0  0  0  0  0  0
    1.7553    5.0068   13.3433 N   0  0  0  0  0  0  0  0  0  0  0  0
    1.3204    4.3533   12.2627 C   0  0  0  0  0  0  0  0  0  0  0  0
    1.5275    3.0117   12.4919 C   0  0  0  0  0  0  0  0  0  0  0  0
    2.1044    2.9775   13.7711 C   0  0  0  0  0  0  0  0  0  0  0  0
    2.4845    1.9015   14.4661 N   0  0  0  0  0  0  0  0  0  0  0  0
    2.8770    5.7454   16.0936 N   0  0  0  0  0  0  0  0  0  0  0  0
    1.8459    6.1375   16.3566 H   0  0  0  0  0  0  0  0  0  0  0  0
    3.8463    6.6628   16.4576 C   0  0  0  0  0  0  0  0  0  0  0  0
    5.1393    6.4700   17.1149 C   0  0  0  0  0  0  0  0  0  0  0  0
    4.0462    7.2694   17.7960 C   0  0  0  0  0  0  0  0  0  0  0  0
    1.2359    1.8889   11.6486 C   0  0  0  0  0  0  0  0  0  0  0  0
    0.9865    0.9821   10.9661 N   0  0  0  0  0  0  0  0  0  0  0  0
    4.0933    2.0272   19.9640 C   0  0  0  0  0  0  0  0  0  0  0  0
    4.0518    1.9896   18.5662 C   0  0  0  0  0  0  0  0  0  0  0  0
    3.4437    0.9696   17.8678 C   0  0  0  0  0  0  0  0  0  0  0  0
    2.8799   -0.0095   18.6117 N   0  0  0  0  0  0  0  0  0  0  0  0
    2.8992   -0.0082   19.9561 C   0  0  0  0  0  0  0  0  0  0  0  0
    3.5050    1.0076   20.6788 C   0  0  0  0  0  0  0  0  0  0  0  0
    6.0330    6.3424   21.8521 C   0  0  0  0  0  0  0  0  0  0  0  0
    5.5371    5.0812   22.4176 N   0  0  0  0  0  0  0  0  0  0  0  0
    4.1730    4.8847   22.0660 C   0  0  0  0  0  0  0  0  0  0  0  0
    4.1477    4.4087   20.6008 C   0  0  0  0  0  0  0  0  0  0  0  0
    4.7300    3.0902   20.6430 N   0  0  0  0  0  0  0  0  0  0  0  0
    5.9323    2.8665   21.3691 C   0  0  0  0  0  0  0  0  0  0  0  0
    6.4476    4.0361   22.1220 C   0  0  0  0  0  0  0  0  0  0  0  0
    3.4993    0.9704   22.1317 C   0  0  0  0  0  0  0  0  0  0  0  0
    3.4755    0.9316   23.2873 N   0  0  0  0  0  0  0  0  0  0  0  0
 25 26  1  0  0  0
 26 27  1  0  0  0
 27 28  1  0  0  0
 28 29  1  0  0  0
 29 30  1  0  0  0
 30 31  1  0  0  0
 29 19  1  0  0  0
 19 20  2  0  0  0
 20 21  1  0  0  0
 21  1  1  0  0  0
  1  3  1  0  0  0
  3  4  1  0  0  0
  4  5  2  0  0  0
  5 12  1  0  0  0
 12 14  1  0  0  0
 14 15  1  0  0  0
 15 16  1  0  0  0
  5  6  1  0  0  0
  6  7  1  0  0  0
  7  8  2  0  0  0
  8  9  1  0  0  0
  9 17  1  0  0  0
 17 18  3  0  0  0
  9 10  2  0  0  0
 10 11  1  0  0  0
 21 22  2  0  0  0
 22 23  1  0  0  0
 23 24  2  0  0  0
 24 32  1  0  0  0
 32 33  3  0  0  0
 31 26  1  0  0  0
 24 19  1  0  0  0
 11  3  2  0  0  0
 16 14  1  0  0  0
 10  6  1  0  0  0
  1  2  1  0  0  0
 12 13  1  0  0  0
M  END
> <minimizedAffinity>
-7.40684

> <CNNscore>
0.5745317936

> <CNNaffinity>
7.4165024757

> <CNN_VS>
4.2610163689

> <CNNaffinity_variance>
0.4315180182

$$$$
[H]c1nc(N([H])c2nc3c(C#N)c([H])nn3c(N([H])C3([H])C([H])([H])C3([H])[H])c2[H])c([H])c(N2C([H])([H])C([H])([H])N(C([H])([H])[H])C([H])([H])C2([H])[H])c1C#N


 33 37  0  0  0  0  0  0  0  0999 V2000
    2.4193    5.9542   16.4172 N   0  0  0  0  0  0  0  0  0  0  0  0
    1.8558    6.8129   16.4549 H   0  0  0  0  0  0  0  0  0  0  0  0
    3.0315    5.4743   17.6056 C   0  0  0  0  0  0  0  0  0  0  0  0
    3.3866    6.3487   18.6001 C   0  0  0  0  0  0  0  0  0  0  0  0
    3.9970    5.9229   19.8004 C   0  0  0  0  0  0  0  0  0  0  0  0
    4.1856    4.5861   19.8506 N   0  0  0  0  0  0  0  0  0  0  0  0
    4.7268    3.8353   20.7758 N   0  0  0  0  0  0  0  0  0  0  0  0
    4.7509    2.5377   20.4603 C   0  0  0  0  0  0  0  0  0  0  0  0
    4.1754    2.4142   19.2157 C   0  0  0  0  0  0  0  0  0  0  0  0
    3.8362    3.7326   18.8733 C   0  0  0  0  0  0  0  0  0  0  0  0
    3.2589    4.1601   17.7467 N   0  0  0  0  0  0  0  0  0  0  0  0
    4.3625    6.8741   20.7458 N   0  0  0  0  0  0  0  0  0  0  0  0
    3.8594    6.6251   21.7311 H   0  0  0  0  0  0  0  0  0  0  0  0
    5.1175    8.0265   20.8704 C   0  0  0  0  0  0  0  0  0  0  0  0
    5.1248    9.0504   21.9158 C   0  0  0  0  0  0  0  0  0  0  0  0
    4.7138    9.4047   20.5004 C   0  0  0  0  0  0  0  0  0  0  0  0
    3.9578    1.2366   18.4266 C   0  0  0  0  0  0  0  0  0  0  0  0
    3.7901    0.2872   17.7780 N   0  0  0  0  0  0  0  0  0  0  0  0
    3.1287    5.3153   12.8039 C   0  0  0  0  0  0  0  0  0  0  0  0
    2.9828    5.9501   14.0421 C   0  0  0  0  0  0  0  0  0  0  0  0
    2.5589    5.2861   15.1723 C   0  0  0  0  0  0  0  0  0  0  0  0
    2.2863    3.9695   15.0239 N   0  0  0  0  0  0  0  0  0  0  0  0
    2.4145    3.3248   13.8510 C   0  0  0  0  0  0  0  0  0  0  0  0
    2.8392    3.9727   12.7018 C   0  0  0  0  0  0  0  0  0  0  0  0
    5.3983    7.9999    9.1175 C   0  0  0  0  0  0  0  0  0  0  0  0
    4.4604    6.8711    9.1656 N   0  0  0  0  0  0  0  0  0  0  0  0
    5.0451    5.7718    9.8529 C   0  0  0  0  0  0  0  0  0  0  0  0
    4.9708    6.0888   11.3589 C   0  0  0  0  0  0  0  0  0  0  0  0
    3.5633    6.0329   11.6670 N   0  0  0  0  0  0  0  0  0  0  0  0
    2.6243    6.6917   10.8261 C   0  0  0  0  0  0  0  0  0  0  0  0
    3.1930    7.3234    9.6104 C   0  0  0  0  0  0  0  0  0  0  0  0
    2.9669    3.2358   11.4556 C   0  0  0  0  0  0  0  0  0  0  0  0
    3.0850    2.6386   10.4723 N   0  0  0  0  0  0  0  0  0  0  0  0
 25 26  1  0  0  0
 26 27  1  0  0  0
 27 28  1  0  0  0
 28 29  1  0  0  0
 29 30  1  0  0  0
 30 31  1  0  0  0
 29 19  1  0  0  0
 19 20  2  0  0  0
 20 21  1  0  0  0
 21  1  1  0  0  0
  1  3  1  0  0  0
  3  4  1  0  0  0
  4  5  2  0  0  0
  5 12  1  0  0  0
 12 14  1  0  0  0
 14 15  1  0  0  0
 15 16  1  0  0  0
  5  6  1  0  0  0
  6  7  1  0  0  0
  7  8  2  0  0  0
  8  9  1  0  0  0
  9 17  1  0  0  0
 17 18  3  0  0  0
  9 10  2  0  0  0
 10 11  1  0  0  0
 21 22  2  0  0  0
 22 23  1  0  0  0
 23 24  2  0  0  0
 24 32  1  0  0  0
 32 33  3  0  0  0
 31 26  1  0  0  0
 24 19  1  0  0  0
 11  3  2  0  0  0
 16 14  1  0  0  0
 10  6  1  0  0  0
  1  2  1  0  0  0
 12 13  1  0  0  0
M  END
> <minimizedAffinity>
-7.03969

> <CNNscore>
0.3210626841

> <CNNaffinity>
6.2096571922

> <CNN_VS>
1.9936891794

> <CNNaffinity_variance>
0.9790648222

$$$$
[H]c1nc(N([H])c2nc3c(C#N)c([H])nn3c(N([H])C3([H])C([H])([H])C3([H])[H])c2[H])c([H])c(N2C([H])([H])C([H])([H])N(C([H])([H])[H])C([H])([H])C2([H])[H])c1C#N


 33 37  0  0  0  0  0  0  0  0999 V2000
    4.2999    1.5350   17.4234 N   0  0  0  0  0  0  0  0  0  0  0  0
    4.7159    0.6465   17.1167 H   0  0  0  0  0  0  0  0  0  0  0  0
    3.7331    2.4056   16.4548 C   0  0  0  0  0  0  0  0  0  0  0  0
    3.0749    1.8924   15.3672 C   0  0  0  0  0  0  0  0  0  0  0  0
    2.4937    2.7143   14.3767 C   0  0  0  0  0  0  0  0  0  0  0  0
    2.6598    4.0325   14.6212 N   0  0  0  0  0  0  0  0  0  0  0  0
    2.2837    5.0813   13.9348 N   0  0  0  0  0  0  0  0  0  0  0  0
    2.6461    6.2394   14.4928 C   0  0  0  0  0  0  0  0  0  0  0  0
    3.3232    5.9344   15.6521 C   0  0  0  0  0  0  0  0  0  0  0  0
    3.3060    4.5312   15.6886 C   0  0  0  0  0  0  0  0  0  0  0  0
    3.8470    3.7325   16.6129 N   0  0  0  0  0  0  0  0  0  0  0  0
    1.8756    2.1187   13.2832 N   0  0  0  0  0  0  0  0  0  0  0  0
    1.2537    1.2422   13.6450 H   0  0  0  0  0  0  0  0  0  0  0  0
    1.7882    2.2334   11.9075 C   0  0  0  0  0  0  0  0  0  0  0  0
    1.1400    1.3695   10.9202 C   0  0  0  0  0  0  0  0  0  0  0  0
    2.6432    1.5634   10.8978 C   0  0  0  0  0  0  0  0  0  0  0  0
    3.9179    6.8135   16.6166 C   0  0  0  0  0  0  0  0  0  0  0  0
    4.4115    7.5192   17.3968 N   0  0  0  0  0  0  0  0  0  0  0  0
    4.7399    3.4214   20.6195 C   0  0  0  0  0  0  0  0  0  0  0  0
    4.7185    3.0857   19.2616 C   0  0  0  0  0  0  0  0  0  0  0  0
    4.3122    1.8501   18.8076 C   0  0  0  0  0  0  0  0  0  0  0  0
    3.9288    0.9631   19.7544 N   0  0  0  0  0  0  0  0  0  0  0  0
    3.9354    1.2487   21.0682 C   0  0  0  0  0  0  0  0  0  0  0  0
    4.3401    2.4849   21.5469 C   0  0  0  0  0  0  0  0  0  0  0  0
    6.7519    7.6208   22.6845 C   0  0  0  0  0  0  0  0  0  0  0  0
    6.3313    7.2138   21.3378 N   0  0  0  0  0  0  0  0  0  0  0  0
    7.0735    6.0783   20.9104 C   0  0  0  0  0  0  0  0  0  0  0  0
    6.4768    4.8520   21.6275 C   0  0  0  0  0  0  0  0  0  0  0  0
    5.1667    4.6994   21.0448 N   0  0  0  0  0  0  0  0  0  0  0  0
    4.3180    5.8309   20.8962 C   0  0  0  0  0  0  0  0  0  0  0  0
    4.9175    7.1309   21.2851 C   0  0  0  0  0  0  0  0  0  0  0  0
    4.3281    2.7517   22.9755 C   0  0  0  0  0  0  0  0  0  0  0  0
    4.3113    2.9442   24.1157 N   0  0  0  0  0  0  0  0  0  0  0  0
 25 26  1  0  0  0
 26 27  1  0  0  0
 27 28  1  0  0  0
 28 29  1  0  0  0
 29 30  1  0  0  0
 30 31  1  0  0  0
 29 19  1  0  0  0
 19 20  2  0  0  0
 20 21  1  0  0  0
 21  1  1  0  0  0
  1  3  1  0  0  0
  3  4  1  0  0  0
  4  5  2  0  0  0
  5 12  1  0  0  0
 12 14  1  0  0  0
 14 15  1  0  0  0
 15 16  1  0  0  0
  5  6  1  0  0  0
  6  7  1  0  0  0
  7  8  2  0  0  0
  8  9  1  0  0  0
  9 17  1  0  0  0
 17 18  3  0  0  0
  9 10  2  0  0  0
 10 11  1  0  0  0
 21 22  2  0  0  0
 22 23  1  0  0  0
 23 24  2  0  0  0
 24 32  1  0  0  0
 32 33  3  0  0  0
 31 26  1  0  0  0
 24 19  1  0  0  0
 11  3  2  0  0  0
 16 14  1  0  0  0
 10  6  1  0  0  0
  1  2  1  0  0  0
 12 13  1  0  0  0
M  END
> <minimizedAffinity>
-7.63706

> <CNNscore>
0.3196729720

> <CNNaffinity>
6.9251527786

> <CNN_VS>
2.2137842178

> <CNNaffinity_variance>
0.8412612677

$$$$
[H]c1nc(N([H])c2nc3c(C#N)c([H])nn3c(N([H])C3([H])C([H])([H])C3([H])[H])c2[H])c([H])c(N2C([H])([H])C([H])([H])N(C([H])([H])[H])C([H])([H])C2([H])[H])c1C#N


 33 37  0  0  0  0  0  0  0  0999 V2000
    4.5884    4.8698   15.3870 N   0  0  0  0  0  0  0  0  0  0  0  0
    5.4629    4.9674   14.8556 H   0  0  0  0  0  0  0  0  0  0  0  0
    4.6282    4.3040   16.6891 C   0  0  0  0  0  0  0  0  0  0  0  0
    5.1980    4.9975   17.7254 C   0  0  0  0  0  0  0  0  0  0  0  0
    5.2625    4.4802   19.0379 C   0  0  0  0  0  0  0  0  0  0  0  0
    4.7110    3.2519   19.1482 N   0  0  0  0  0  0  0  0  0  0  0  0
    4.5985    2.4572   20.1818 N   0  0  0  0  0  0  0  0  0  0  0  0
    3.9979    1.2984   19.8983 C   0  0  0  0  0  0  0  0  0  0  0  0
    3.6834    1.3242   18.5581 C   0  0  0  0  0  0  0  0  0  0  0  0
    4.1536    2.5755   18.1296 C   0  0  0  0  0  0  0  0  0  0  0  0
    4.1041    3.0869   16.8963 N   0  0  0  0  0  0  0  0  0  0  0  0
    5.8903    5.2277   20.0276 N   0  0  0  0  0  0  0  0  0  0  0  0
    7.0091    5.2156   19.8431 H   0  0  0  0  0  0  0  0  0  0  0  0
    5.5995    5.9586   21.1655 C   0  0  0  0  0  0  0  0  0  0  0  0
    6.3941    6.1988   22.3705 C   0  0  0  0  0  0  0  0  0  0  0  0
    5.0855    5.4386   22.4557 C   0  0  0  0  0  0  0  0  0  0  0  0
    3.0315    0.3290   17.7572 C   0  0  0  0  0  0  0  0  0  0  0  0
    2.5150   -0.4795   17.1016 N   0  0  0  0  0  0  0  0  0  0  0  0
    2.1493    6.1569   12.8647 C   0  0  0  0  0  0  0  0  0  0  0  0
    3.3295    5.7210   13.4766 C   0  0  0  0  0  0  0  0  0  0  0  0
    3.3770    5.3077   14.7900 C   0  0  0  0  0  0  0  0  0  0  0  0
    2.2081    5.3445   15.4697 N   0  0  0  0  0  0  0  0  0  0  0  0
    1.0541    5.7567   14.9164 C   0  0  0  0  0  0  0  0  0  0  0  0
    0.9833    6.1766   13.5974 C   0  0  0  0  0  0  0  0  0  0  0  0
    2.2947    6.8840    7.8251 C   0  0  0  0  0  0  0  0  0  0  0  0
    1.5030    7.4219    8.9387 N   0  0  0  0  0  0  0  0  0  0  0  0
    0.7953    6.3756    9.5924 C   0  0  0  0  0  0  0  0  0  0  0  0
    1.8097    5.6293   10.4802 C   0  0  0  0  0  0  0  0  0  0  0  0
    2.1432    6.5760   11.5154 N   0  0  0  0  0  0  0  0  0  0  0  0
    2.4565    7.9210   11.1753 C   0  0  0  0  0  0  0  0  0  0  0  0
    2.3162    8.2629    9.7387 C   0  0  0  0  0  0  0  0  0  0  0  0
   -0.2862    6.6110   13.0389 C   0  0  0  0  0  0  0  0  0  0  0  0
   -1.2910    6.9769   12.5986 N   0  0  0  0  0  0  0  0  0  0  0  0
 25 26  1  0  0  0
 26 27  1  0  0  0
 27 28  1  0  0  0
 28 29  1  0  0  0
 29 30  1  0  0  0
 30 31  1  0  0  0
 29 19  1  0  0  0
 19 20  2  0  0  0
 20 21  1  0  0  0
 21  1  1  0  0  0
  1  3  1  0  0  0
  3  4  1  0  0  0
  4  5  2  0  0  0
  5 12  1  0  0  0
 12 14  1  0  0  0
 14 15  1  0  0  0
 15 16  1  0  0  0
  5  6  1  0  0  0
  6  7  1  0  0  0
  7  8  2  0  0  0
  8  9  1  0  0  0
  9 17  1  0  0  0
 17 18  3  0  0  0
  9 10  2  0  0  0
 10 11  1  0  0  0
 21 22  2  0  0  0
 22 23  1  0  0  0
 23 24  2  0  0  0
 24 32  1  0  0  0
 32 33  3  0  0  0
 31 26  1  0  0  0
 24 19  1  0  0  0
 11  3  2  0  0  0
 16 14  1  0  0  0
 10  6  1  0  0  0
  1  2  1  0  0  0
 12 13  1  0  0  0
M  END
> <minimizedAffinity>
-6.73937

> <CNNscore>
0.2242636383

> <CNNaffinity>
6.2249846458

> <CNN_VS>
1.3960376978

> <CNNaffinity_variance>
0.4994178712

$$$$
[H]c1nc(N([H])c2nc3c(C#N)c([H])nn3c(N([H])C3([H])C([H])([H])C3([H])[H])c2[H])c([H])c(N2C([H])([H])C([H])([H])N(C([H])([H])[H])C([H])([H])C2([H])[H])c1C#N


 33 37  0  0  0  0  0  0  0  0999 V2000
    3.8354    2.2181   15.5538 N   0  0  0  0  0  0  0  0  0  0  0  0
    4.3084    1.5623   14.9192 H   0  0  0  0  0  0  0  0  0  0  0  0
    3.2842    3.4164   15.0270 C   0  0  0  0  0  0  0  0  0  0  0  0
    2.2164    3.3654   14.1687 C   0  0  0  0  0  0  0  0  0  0  0  0
    1.6315    4.5269   13.6179 C   0  0  0  0  0  0  0  0  0  0  0  0
    2.2341    5.6650   14.0260 N   0  0  0  0  0  0  0  0  0  0  0  0
    1.9909    6.9147   13.7233 N   0  0  0  0  0  0  0  0  0  0  0  0
    2.8187    7.7768   14.3198 C   0  0  0  0  0  0  0  0  0  0  0  0
    3.6893    7.0354   15.0865 C   0  0  0  0  0  0  0  0  0  0  0  0
    3.2808    5.7104   14.8675 C   0  0  0  0  0  0  0  0  0  0  0  0
    3.8163    4.5970   15.3761 N   0  0  0  0  0  0  0  0  0  0  0  0
    0.5749    4.3917   12.7248 N   0  0  0  0  0  0  0  0  0  0  0  0
    0.9345    3.8199   11.8140 H   0  0  0  0  0  0  0  0  0  0  0  0
   -0.7554    4.7413   12.5773 C   0  0  0  0  0  0  0  0  0  0  0  0
   -1.4221    5.5308   11.5413 C   0  0  0  0  0  0  0  0  0  0  0  0
   -1.3941    6.0189   12.9761 C   0  0  0  0  0  0  0  0  0  0  0  0
    4.7682    7.4768   15.9219 C   0  0  0  0  0  0  0  0  0  0  0  0
    5.6431    7.8222   16.6043 N   0  0  0  0  0  0  0  0  0  0  0  0
    4.1985    2.4319   19.2673 C   0  0  0  0  0  0  0  0  0  0  0  0
    4.2642    2.7295   17.9019 C   0  0  0  0  0  0  0  0  0  0  0  0
    3.7558    1.8921   16.9333 C   0  0  0  0  0  0  0  0  0  0  0  0
    3.1807    0.7498   17.3742 N   0  0  0  0  0  0  0  0  0  0  0  0
    3.0986    0.4292   18.6773 C   0  0  0  0  0  0  0  0  0  0  0  0
    3.6031    1.2566   19.6683 C   0  0  0  0  0  0  0  0  0  0  0  0
    5.8533    6.2169   22.2478 C   0  0  0  0  0  0  0  0  0  0  0  0
    5.2912    4.8785   22.4691 N   0  0  0  0  0  0  0  0  0  0  0  0
    3.9869    4.7916   21.9087 C   0  0  0  0  0  0  0  0  0  0  0  0
    4.1588    4.6288   20.3862 C   0  0  0  0  0  0  0  0  0  0  0  0
    4.7351    3.3164   20.2297 N   0  0  0  0  0  0  0  0  0  0  0  0
    5.8308    2.9188   21.0447 C   0  0  0  0  0  0  0  0  0  0  0  0
    6.2368    3.8952   22.0850 C   0  0  0  0  0  0  0  0  0  0  0  0
    3.4895    0.8720   21.0652 C   0  0  0  0  0  0  0  0  0  0  0  0
    3.3949    0.5460   22.1708 N   0  0  0  0  0  0  0  0  0  0  0  0
 25 26  1  0  0  0
 26 27  1  0  0  0
 27 28  1  0  0  0
 28 29  1  0  0  0
 29 30  1  0  0  0
 30 31  1  0  0  0
 29 19  1  0  0  0
 19 20  2  0  0  0
 20 21  1  0  0  0
 21  1  1  0  0  0
  1  3  1  0  0  0
  3  4  1  0  0  0
  4  5  2  0  0  0
  5 12  1  0  0  0
 12 14  1  0  0  0
 14 15  1  0  0  0
 15 16  1  0  0  0
  5  6  1  0  0  0
  6  7  1  0  0  0
  7  8  2  0  0  0
  8  9  1  0  0  0
  9 17  1  0  0  0
 17 18  3  0  0  0
  9 10  2  0  0  0
 10 11  1  0  0  0
 21 22  2  0  0  0
 22 23  1  0  0  0
 23 24  2  0  0  0
 24 32  1  0  0  0
 32 33  3  0  0  0
 31 26  1  0  0  0
 24 19  1  0  0  0
 11  3  2  0  0  0
 16 14  1  0  0  0
 10  6  1  0  0  0
  1  2  1  0  0  0
 12 13  1  0  0  0
M  END
> <minimizedAffinity>
-7.29780

> <CNNscore>
0.1981331259

> <CNNaffinity>
6.6203246117

> <CNN_VS>
1.3117055893

> <CNNaffinity_variance>
0.7482678890

$$$$
[H]c1nc(N([H])c2nc3c(C#N)c([H])nn3c(N([H])C3([H])C([H])([H])C3([H])[H])c2[H])c([H])c(N2C([H])([H])C([H])([H])N(C([H])([H])[H])C([H])([H])C2([H])[H])c1C#N


 33 37  0  0  0  0  0  0  0  0999 V2000
    3.4153    4.0797   16.3846 N   0  0  0  0  0  0  0  0  0  0  0  0
    3.6975    3.1078   16.2050 H   0  0  0  0  0  0  0  0  0  0  0  0
    3.5759    4.6180   17.6891 C   0  0  0  0  0  0  0  0  0  0  0  0
    3.4122    5.9618   17.9057 C   0  0  0  0  0  0  0  0  0  0  0  0
    3.5601    6.5465   19.1827 C   0  0  0  0  0  0  0  0  0  0  0  0
    3.8749    5.6477   20.1409 N   0  0  0  0  0  0  0  0  0  0  0  0
    4.1047    5.8088   21.4191 N   0  0  0  0  0  0  0  0  0  0  0  0
    4.4052    4.6720   22.0525 C   0  0  0  0  0  0  0  0  0  0  0  0
    4.3727    3.6659   21.1131 C   0  0  0  0  0  0  0  0  0  0  0  0
    4.0347    4.3312   19.9241 C   0  0  0  0  0  0  0  0  0  0  0  0
    3.8885    3.8016   18.7062 N   0  0  0  0  0  0  0  0  0  0  0  0
    3.4155    7.9227   19.3156 N   0  0  0  0  0  0  0  0  0  0  0  0
    2.3584    8.2109   19.0236 H   0  0  0  0  0  0  0  0  0  0  0  0
    4.1402    9.0477   19.6658 C   0  0  0  0  0  0  0  0  0  0  0  0
    5.5691    9.3364   19.5385 C   0  0  0  0  0  0  0  0  0  0  0  0
    4.9235    9.2564   20.9076 C   0  0  0  0  0  0  0  0  0  0  0  0
    4.6198    2.2625   21.2741 C   0  0  0  0  0  0  0  0  0  0  0  0
    4.8148    1.1230   21.3923 N   0  0  0  0  0  0  0  0  0  0  0  0
    3.1186    5.8980   13.1330 C   0  0  0  0  0  0  0  0  0  0  0  0
    3.6260    5.1503   14.2010 C   0  0  0  0  0  0  0  0  0  0  0  0
    2.8759    4.8405   15.3142 C   0  0  0  0  0  0  0  0  0  0  0  0
    1.6043    5.3019   15.3241 N   0  0  0  0  0  0  0  0  0  0  0  0
    1.0812    6.0231   14.3172 C   0  0  0  0  0  0  0  0  0  0  0  0
    1.8175    6.3462   13.1883 C   0  0  0  0  0  0  0  0  0  0  0  0
    6.0113    6.1680    8.9489 C   0  0  0  0  0  0  0  0  0  0  0  0
    4.9602    6.9979    9.5512 N   0  0  0  0  0  0  0  0  0  0  0  0
    3.7495    6.2597    9.6601 C   0  0  0  0  0  0  0  0  0  0  0  0
    3.9023    5.3163   10.8688 C   0  0  0  0  0  0  0  0  0  0  0  0
    3.9219    6.1974   12.0099 N   0  0  0  0  0  0  0  0  0  0  0  0
    4.7407    7.3602   11.9968 C   0  0  0  0  0  0  0  0  0  0  0  0
    5.4573    7.6191   10.7240 C   0  0  0  0  0  0  0  0  0  0  0  0
    1.2107    7.1253   12.1219 C   0  0  0  0  0  0  0  0  0  0  0  0
    0.7194    7.7582   11.2879 N   0  0  0  0  0  0  0  0  0  0  0  0
 25 26  1  0  0  0
 26 27  1  0  0  0
 27 28  1  0  0  0
 28 29  1  0  0  0
 29 30  1  0  0  0
 30 31  1  0  0  0
 29 19  1  0  0  0
 19 20  2  0  0  0
 20 21  1  0  0  0
 21  1  1  0  0  0
  1  3  1  0  0  0
  3  4  1  0  0  0
  4  5  2  0  0  0
  5 12  1  0  0  0
 12 14  1  0  0  0
 14 15  1  0  0  0
 15 16  1  0  0  0
  5  6  1  0  0  0
  6  7  1  0  0  0
  7  8  2  0  0  0
  8  9  1  0  0  0
  9 17  1  0  0  0
 17 18  3  0  0  0
  9 10  2  0  0  0
 10 11  1  0  0  0
 21 22  2  0  0  0
 22 23  1  0  0  0
 23 24  2  0  0  0
 24 32  1  0  0  0
 32 33  3  0  0  0
 31 26  1  0  0  0
 24 19  1  0  0  0
 11  3  2  0  0  0
 16 14  1  0  0  0
 10  6  1  0  0  0
  1  2  1  0  0  0
 12 13  1  0  0  0
M  END
> <minimizedAffinity>
-7.29521

> <CNNscore>
0.1752178967

> <CNNaffinity>
5.9733853340

> <CNN_VS>
1.0466439724

> <CNNaffinity_variance>
0.7986391187

$$$$
[H]c1nc(N([H])c2nc3c(C#N)c([H])nn3c(N([H])C3([H])C([H])([H])C3([H])[H])c2[H])c([H])c(N2C([H])([H])C([H])([H])N(C([H])([H])[H])C([H])([H])C2([H])[H])c1C#N


 33 37  0  0  0  0  0  0  0  0999 V2000
    3.9119    2.7804   14.9171 N   0  0  0  0  0  0  0  0  0  0  0  0
    4.8772    3.0380   14.6755 H   0  0  0  0  0  0  0  0  0  0  0  0
    2.8605    3.1173   14.0235 C   0  0  0  0  0  0  0  0  0  0  0  0
    2.2625    2.1451   13.2642 C   0  0  0  0  0  0  0  0  0  0  0  0
    1.2134    2.4274   12.3618 C   0  0  0  0  0  0  0  0  0  0  0  0
    0.8783    3.7358   12.3356 N   0  0  0  0  0  0  0  0  0  0  0  0
   -0.0185    4.3725   11.6264 N   0  0  0  0  0  0  0  0  0  0  0  0
   -0.0511    5.6861   11.8662 C   0  0  0  0  0  0  0  0  0  0  0  0
    0.9086    5.9463   12.8186 C   0  0  0  0  0  0  0  0  0  0  0  0
    1.4673    4.6857   13.0816 C   0  0  0  0  0  0  0  0  0  0  0  0
    2.4579    4.3932   13.9291 N   0  0  0  0  0  0  0  0  0  0  0  0
    0.6834    1.3935   11.5986 N   0  0  0  0  0  0  0  0  0  0  0  0
    0.0091    0.7606   12.2550 H   0  0  0  0  0  0  0  0  0  0  0  0
    0.7254    0.8779   10.3157 C   0  0  0  0  0  0  0  0  0  0  0  0
   -0.3185    0.7815    9.2947 C   0  0  0  0  0  0  0  0  0  0  0  0
    0.2973   -0.4737    9.8803 C   0  0  0  0  0  0  0  0  0  0  0  0
    1.2774    7.1943   13.4212 C   0  0  0  0  0  0  0  0  0  0  0  0
    1.5760    8.1996   13.9217 N   0  0  0  0  0  0  0  0  0  0  0  0
    4.0999    1.8039   18.5196 C   0  0  0  0  0  0  0  0  0  0  0  0
    4.3150    2.4608   17.3033 C   0  0  0  0  0  0  0  0  0  0  0  0
    3.6756    2.0967   16.1386 C   0  0  0  0  0  0  0  0  0  0  0  0
    2.8159    1.0562   16.2302 N   0  0  0  0  0  0  0  0  0  0  0  0
    2.5829    0.4004   17.3805 C   0  0  0  0  0  0  0  0  0  0  0  0
    3.2148    0.7497   18.5636 C   0  0  0  0  0  0  0  0  0  0  0  0
    6.4470    4.0178   22.4614 C   0  0  0  0  0  0  0  0  0  0  0  0
    5.5663    2.8562   22.2844 N   0  0  0  0  0  0  0  0  0  0  0  0
    4.3140    3.2630   21.7469 C   0  0  0  0  0  0  0  0  0  0  0  0
    4.5284    3.5154   20.2420 C   0  0  0  0  0  0  0  0  0  0  0  0
    4.7784    2.2063   19.6919 N   0  0  0  0  0  0  0  0  0  0  0  0
    5.6969    1.3292   20.3320 C   0  0  0  0  0  0  0  0  0  0  0  0
    6.2667    1.8261   21.6083 C   0  0  0  0  0  0  0  0  0  0  0  0
    2.9304    0.0152   19.7851 C   0  0  0  0  0  0  0  0  0  0  0  0
    2.6834   -0.5644   20.7549 N   0  0  0  0  0  0  0  0  0  0  0  0
 25 26  1  0  0  0
 26 27  1  0  0  0
 27 28  1  0  0  0
 28 29  1  0  0  0
 29 30  1  0  0  0
 30 31  1  0  0  0
 29 19  1  0  0  0
 19 20  2  0  0  0
 20 21  1  0  0  0
 21  1  1  0  0  0
  1  3  1  0  0  0
  3  4  1  0  0  0
  4  5  2  0  0  0
  5 12  1  0  0  0
 12 14  1  0  0  0
 14 15  1  0  0  0
 15 16  1  0  0  0
  5  6  1  0  0  0
  6  7  1  0  0  0
  7  8  2  0  0  0
  8  9  1  0  0  0
  9 17  1  0  0  0
 17 18  3  0  0  0
  9 10  2  0  0  0
 10 11  1  0  0  0
 21 22  2  0  0  0
 22 23  1  0  0  0
 23 24  2  0  0  0
 24 32  1  0  0  0
 32 33  3  0  0  0
 31 26  1  0  0  0
 24 19  1  0  0  0
 11  3  2  0  0  0
 16 14  1  0  0  0
 10  6  1  0  0  0
  1  2  1  0  0  0
 12 13  1  0  0  0
M  END
> <minimizedAffinity>
-7.29641

> <CNNscore>
0.1486315727

> <CNNaffinity>
6.6075029373

> <CNN_VS>
0.9820835590

> <CNNaffinity_variance>
0.2772264183

$$$$
[H]c1nc(N([H])c2nc3c(C#N)c([H])nn3c(N([H])C3([H])C([H])([H])C3([H])[H])c2[H])c([H])c(N2C([H])([H])C([H])([H])N(C([H])([H])[H])C([H])([H])C2([H])[H])c1C#N


 33 37  0  0  0  0  0  0  0  0999 V2000
    4.5811    4.9648   15.5842 N   0  0  0  0  0  0  0  0  0  0  0  0
    5.4018    5.4874   15.2529 H   0  0  0  0  0  0  0  0  0  0  0  0
    4.6366    4.3146   16.8458 C   0  0  0  0  0  0  0  0  0  0  0  0
    5.2480    4.9253   17.9101 C   0  0  0  0  0  0  0  0  0  0  0  0
    5.3296    4.3222   19.1846 C   0  0  0  0  0  0  0  0  0  0  0  0
    4.7495    3.1030   19.2291 N   0  0  0  0  0  0  0  0  0  0  0  0
    4.6406    2.2456   20.2117 N   0  0  0  0  0  0  0  0  0  0  0  0
    4.0040    1.1226   19.8690 C   0  0  0  0  0  0  0  0  0  0  0  0
    3.6592    1.2432   18.5416 C   0  0  0  0  0  0  0  0  0  0  0  0
    4.1514    2.5080   18.1831 C   0  0  0  0  0  0  0  0  0  0  0  0
    4.0864    3.0997   16.9870 N   0  0  0  0  0  0  0  0  0  0  0  0
    5.9993    4.9883   20.2045 N   0  0  0  0  0  0  0  0  0  0  0  0
    7.0919    5.0928   19.9197 H   0  0  0  0  0  0  0  0  0  0  0  0
    5.7734    5.5428   21.4515 C   0  0  0  0  0  0  0  0  0  0  0  0
    4.9728    5.0590   22.5768 C   0  0  0  0  0  0  0  0  0  0  0  0
    4.6024    6.3494   21.8730 C   0  0  0  0  0  0  0  0  0  0  0  0
    2.9636    0.3183   17.6946 C   0  0  0  0  0  0  0  0  0  0  0  0
    2.4115   -0.4376   17.0059 N   0  0  0  0  0  0  0  0  0  0  0  0
    2.2509    4.0634   12.8048 C   0  0  0  0  0  0  0  0  0  0  0  0
    3.3765    4.1274   13.6332 C   0  0  0  0  0  0  0  0  0  0  0  0
    3.4260    4.9182   14.7602 C   0  0  0  0  0  0  0  0  0  0  0  0
    2.3152    5.6414   15.0308 N   0  0  0  0  0  0  0  0  0  0  0  0
    1.2149    5.6064   14.2591 C   0  0  0  0  0  0  0  0  0  0  0  0
    1.1432    4.8181   13.1213 C   0  0  0  0  0  0  0  0  0  0  0  0
    2.3514    0.4828    9.1832 C   0  0  0  0  0  0  0  0  0  0  0  0
    1.5966    1.7216    9.4109 N   0  0  0  0  0  0  0  0  0  0  0  0
    0.8593    1.6349   10.6241 C   0  0  0  0  0  0  0  0  0  0  0  0
    1.8575    1.8571   11.7767 C   0  0  0  0  0  0  0  0  0  0  0  0
    2.2412    3.2417   11.6554 N   0  0  0  0  0  0  0  0  0  0  0  0
    2.6001    3.7719   10.3854 C   0  0  0  0  0  0  0  0  0  0  0  0
    2.4522    2.8386    9.2419 C   0  0  0  0  0  0  0  0  0  0  0  0
   -0.0679    4.8081   12.3179 C   0  0  0  0  0  0  0  0  0  0  0  0
   -1.0365    4.8195   11.6860 N   0  0  0  0  0  0  0  0  0  0  0  0
 25 26  1  0  0  0
 26 27  1  0  0  0
 27 28  1  0  0  0
 28 29  1  0  0  0
 29 30  1  0  0  0
 30 31  1  0  0  0
 29 19  1  0  0  0
 19 20  2  0  0  0
 20 21  1  0  0  0
 21  1  1  0  0  0
  1  3  1  0  0  0
  3  4  1  0  0  0
  4  5  2  0  0  0
  5 12  1  0  0  0
 12 14  1  0  0  0
 14 15  1  0  0  0
 15 16  1  0  0  0
  5  6  1  0  0  0
  6  7  1  0  0  0
  7  8  2  0  0  0
  8  9  1  0  0  0
  9 17  1  0  0  0
 17 18  3  0  0  0
  9 10  2  0  0  0
 10 11  1  0  0  0
 21 22  2  0  0  0
 22 23  1  0  0  0
 23 24  2  0  0  0
 24 32  1  0  0  0
 32 33  3  0  0  0
 31 26  1  0  0  0
 24 19  1  0  0  0
 11  3  2  0  0  0
 16 14  1  0  0  0
 10  6  1  0  0  0
  1  2  1  0  0  0
 12 13  1  0  0  0
M  END
> <minimizedAffinity>
-6.81994

> <CNNscore>
0.1474602520

> <CNNaffinity>
6.3710732460

> <CNN_VS>
0.9394800663

> <CNNaffinity_variance>
0.4068948328

$$$$
[H]c1nc(N([H])c2nc3c(C#N)c([H])nn3c(N([H])C3([H])C([H])([H])C3([H])[H])c2[H])c([H])c(N2C([H])([H])C([H])([H])N(C([H])([H])[H])C([H])([H])C2([H])[H])c1C#N


 33 37  0  0  0  0  0  0  0  0999 V2000
    5.4366    4.6745   16.4587 N   0  0  0  0  0  0  0  0  0  0  0  0
    6.0923    4.4355   15.7041 H   0  0  0  0  0  0  0  0  0  0  0  0
    5.0839    6.0347   16.6653 C   0  0  0  0  0  0  0  0  0  0  0  0
    5.4112    6.6615   17.8398 C   0  0  0  0  0  0  0  0  0  0  0  0
    5.0842    8.0116   18.0944 C   0  0  0  0  0  0  0  0  0  0  0  0
    4.4266    8.5970   17.0698 N   0  0  0  0  0  0  0  0  0  0  0  0
    3.9522    9.8100   16.9428 N   0  0  0  0  0  0  0  0  0  0  0  0
    3.3410   10.0220   15.7743 C   0  0  0  0  0  0  0  0  0  0  0  0
    3.4150    8.8466   15.0611 C   0  0  0  0  0  0  0  0  0  0  0  0
    4.1076    7.9788   15.9201 C   0  0  0  0  0  0  0  0  0  0  0  0
    4.4288    6.7003   15.7026 N   0  0  0  0  0  0  0  0  0  0  0  0
    5.4167    8.5658   19.3251 N   0  0  0  0  0  0  0  0  0  0  0  0
    6.4794    8.9583   19.2763 H   0  0  0  0  0  0  0  0  0  0  0  0
    4.8853    8.7751   20.5850 C   0  0  0  0  0  0  0  0  0  0  0  0
    5.4624    9.4185   21.7658 C   0  0  0  0  0  0  0  0  0  0  0  0
    5.1014    7.9466   21.7959 C   0  0  0  0  0  0  0  0  0  0  0  0
    2.9153    8.5441   13.7514 C   0  0  0  0  0  0  0  0  0  0  0  0
    2.5015    8.2903   12.6956 N   0  0  0  0  0  0  0  0  0  0  0  0
    4.5689    2.5997   19.4436 C   0  0  0  0  0  0  0  0  0  0  0  0
    5.0752    3.6189   18.6298 C   0  0  0  0  0  0  0  0  0  0  0  0
    4.9127    3.6275   17.2618 C   0  0  0  0  0  0  0  0  0  0  0  0
    4.2288    2.5857   16.7356 N   0  0  0  0  0  0  0  0  0  0  0  0
    3.7274    1.5882   17.4846 C   0  0  0  0  0  0  0  0  0  0  0  0
    3.8789    1.5593   18.8621 C   0  0  0  0  0  0  0  0  0  0  0  0
    5.6666    1.9918   24.3805 C   0  0  0  0  0  0  0  0  0  0  0  0
    5.5537    3.1347   23.4654 N   0  0  0  0  0  0  0  0  0  0  0  0
    6.4876    3.0087   22.4002 C   0  0  0  0  0  0  0  0  0  0  0  0
    5.9121    1.9738   21.4143 C   0  0  0  0  0  0  0  0  0  0  0  0
    4.7599    2.6260   20.8433 N   0  0  0  0  0  0  0  0  0  0  0  0
    3.8298    3.2940   21.6868 C   0  0  0  0  0  0  0  0  0  0  0  0
    4.1934    3.3391   23.1243 C   0  0  0  0  0  0  0  0  0  0  0  0
    3.3174    0.4628   19.6333 C   0  0  0  0  0  0  0  0  0  0  0  0
    2.8596   -0.4159   20.2297 N   0  0  0  0  0  0  0  0  0  0  0  0
 25 26  1  0  0  0
 26 27  1  0  0  0
 27 28  1  0  0  0
 28 29  1  0  0  0
 29 30  1  0  0  0
 30 31  1  0  0  0
 29 19  1  0  0  0
 19 20  2  0  0  0
 20 21  1  0  0  0
 21  1  1  0  0  0
  1  3  1  0  0  0
  3  4  1  0  0  0
  4  5  2  0  0  0
  5 12  1  0  0  0
 12 14  1  0  0  0
 14 15  1  0  0  0
 15 16  1  0  0  0
  5  6  1  0  0  0
  6  7  1  0  0  0
  7  8  2  0  0  0
  8  9  1  0  0  0
  9 17  1  0  0  0
 17 18  3  0  0  0
  9 10  2  0  0  0
 10 11  1  0  0  0
 21 22  2  0  0  0
 22 23  1  0  0  0
 23 24  2  0  0  0
 24 32  1  0  0  0
 32 33  3  0  0  0
 31 26  1  0  0  0
 24 19  1  0  0  0
 11  3  2  0  0  0
 16 14  1  0  0  0
 10  6  1  0  0  0
  1  2  1  0  0  0
 12 13  1  0  0  0
M  END
> <minimizedAffinity>
-7.44066

> <CNNscore>
0.1245313510

> <CNNaffinity>
6.2095804214

> <CNN_VS>
0.7732874155

> <CNNaffinity_variance>
0.4797326028

$$$$
[H]c1nc2c(C([H])([H])[H])c(C([H])([H])[H])c(-c3c(C([H])(C([H])([H])[H])C([H])([H])[H])c4c([H])c(C5([H])C([H])([H])C([H])([H])N(C(=O)C([H])([H])N(C([H])([H])[H])C([H])([H])[H])C([H])([H])C5([H])[H])c([H])c([H])c4n3[H])c([H])n2n1


 36 40  0  0  0  0  0  0  0  0999 V2000
    4.2741    4.3073   16.9644 C   0  0  0  0  0  0  0  0  0  0  0  0
    4.0643    3.3316   17.9479 C   0  0  0  0  0  0  0  0  0  0  0  0
    3.5311    2.2868   17.2625 N   0  0  0  0  0  0  0  0  0  0  0  0
    3.4018    2.5374   15.9675 C   0  0  0  0  0  0  0  0  0  0  0  0
    2.9030    1.7308   14.9342 C   0  0  0  0  0  0  0  0  0  0  0  0
    2.8811    2.2458   13.6563 C   0  0  0  0  0  0  0  0  0  0  0  0
    3.3256    3.5078   13.3762 C   0  0  0  0  0  0  0  0  0  0  0  0
    3.8128    4.2737   14.4445 C   0  0  0  0  0  0  0  0  0  0  0  0
    3.8622    3.8132   15.7379 C   0  0  0  0  0  0  0  0  0  0  0  0
    3.2321    1.3909   17.7164 H   0  0  0  0  0  0  0  0  0  0  0  0
    4.4787    3.3110   19.3409 C   0  0  0  0  0  0  0  0  0  0  0  0
    5.2711    2.3171   19.8893 C   0  0  0  0  0  0  0  0  0  0  0  0
    5.6019    2.2313   21.1959 N   0  0  0  0  0  0  0  0  0  0  0  0
    6.3384    1.3524   21.8271 N   0  0  0  0  0  0  0  0  0  0  0  0
    6.3766    1.6998   23.1406 C   0  0  0  0  0  0  0  0  0  0  0  0
    5.6407    2.8107   23.2692 N   0  0  0  0  0  0  0  0  0  0  0  0
    5.1543    3.1441   22.0427 C   0  0  0  0  0  0  0  0  0  0  0  0
    4.3590    4.1606   21.5589 C   0  0  0  0  0  0  0  0  0  0  0  0
    3.8616    5.1776   22.5323 C   0  0  0  0  0  0  0  0  0  0  0  0
    4.0144    4.2602   20.2329 C   0  0  0  0  0  0  0  0  0  0  0  0
    3.1149    5.3570   19.8358 C   0  0  0  0  0  0  0  0  0  0  0  0
    3.3226    4.0589   11.9757 C   0  0  0  0  0  0  0  0  0  0  0  0
    1.9061    4.3237   11.5861 C   0  0  0  0  0  0  0  0  0  0  0  0
    1.6350    5.4923   10.7264 C   0  0  0  0  0  0  0  0  0  0  0  0
    2.7351    6.2122   10.1912 N   0  0  0  0  0  0  0  0  0  0  0  0
    4.0937    5.7917   10.4645 C   0  0  0  0  0  0  0  0  0  0  0  0
    4.1123    5.3198   11.9308 C   0  0  0  0  0  0  0  0  0  0  0  0
    2.4865    7.3627    9.3658 C   0  0  0  0  0  0  0  0  0  0  0  0
    1.2991    7.6810    9.1419 O   0  0  0  0  0  0  0  0  0  0  0  0
    3.6637    8.1106    8.8243 C   0  0  0  0  0  0  0  0  0  0  0  0
    3.7905    7.9242    7.4101 N   0  0  0  0  0  0  0  0  0  0  0  0
    3.6447    9.2420    6.7801 C   0  0  0  0  0  0  0  0  0  0  0  0
    5.0732    7.3643    7.0277 C   0  0  0  0  0  0  0  0  0  0  0  0
    6.3241    5.7237   17.3418 C   0  0  0  0  0  0  0  0  0  0  0  0
    4.7988    5.6785   17.2154 C   0  0  0  0  0  0  0  0  0  0  0  0
    4.5327    6.5334   15.9478 C   0  0  0  0  0  0  0  0  0  0  0  0
 34 35  1  0  0  0
 35 36  1  0  0  0
 35  1  1  0  0  0
  1  2  2  0  0  0
  2  3  1  0  0  0
  3  4  1  0  0  0
  4  5  2  0  0  0
  5  6  1  0  0  0
  6  7  2  0  0  0
  7  8  1  0  0  0
  8  9  2  0  0  0
  7 22  1  0  0  0
 22 23  1  0  0  0
 23 24  1  0  0  0
 24 25  1  0  0  0
 25 26  1  0  0  0
 26 27  1  0  0  0
 25 28  1  0  0  0
 28 29  2  0  0  0
 28 30  1  0  0  0
 30 31  1  0  0  0
 31 32  1  0  0  0
 31 33  1  0  0  0
  2 11  1  0  0  0
 11 12  2  0  0  0
 12 13  1  0  0  0
 13 14  1  0  0  0
 14 15  2  0  0  0
 15 16  1  0  0  0
 16 17  2  0  0  0
 17 18  1  0  0  0
 18 19  1  0  0  0
 18 20  2  0  0  0
 20 21  1  0  0  0
  9  1  1  0  0  0
 27 22  1  0  0  0
 20 11  1  0  0  0
  9  4  1  0  0  0
 17 13  1  0  0  0
  3 10  1  0  0  0
M  END
> <minimizedAffinity>
-8.20178

> <CNNscore>
0.3345178366

> <CNNaffinity>
6.7421593666

> <CNN_VS>
2.2553725243

> <CNNaffinity_variance>
0.5394870639

$$$$
[H]c1nc2c(C([H])([H])[H])c(C([H])([H])[H])c(-c3c(C([H])(C([H])([H])[H])C([H])([H])[H])c4c([H])c(C5([H])C([H])([H])C([H])([H])N(C(=O)C([H])([H])N(C([H])([H])[H])C([H])([H])[H])C([H])([H])C5([H])[H])c([H])c([H])c4n3[H])c([H])n2n1


 36 40  0  0  0  0  0  0  0  0999 V2000
    4.1846    4.5817   16.3666 C   0  0  0  0  0  0  0  0  0  0  0  0
    3.6130    3.7202   17.3124 C   0  0  0  0  0  0  0  0  0  0  0  0
    2.8224    2.9007   16.5715 N   0  0  0  0  0  0  0  0  0  0  0  0
    2.8636    3.1832   15.2773 C   0  0  0  0  0  0  0  0  0  0  0  0
    2.2035    2.5798   14.1969 C   0  0  0  0  0  0  0  0  0  0  0  0
    2.4291    3.0788   12.9325 C   0  0  0  0  0  0  0  0  0  0  0  0
    3.2675    4.1352   12.7096 C   0  0  0  0  0  0  0  0  0  0  0  0
    3.9014    4.7038   13.8232 C   0  0  0  0  0  0  0  0  0  0  0  0
    3.7181    4.2475   15.1060 C   0  0  0  0  0  0  0  0  0  0  0  0
    2.2262    2.1448   16.9853 H   0  0  0  0  0  0  0  0  0  0  0  0
    3.9080    3.5650   18.7271 C   0  0  0  0  0  0  0  0  0  0  0  0
    3.6713    4.5496   19.6711 C   0  0  0  0  0  0  0  0  0  0  0  0
    4.0109    4.4614   20.9753 N   0  0  0  0  0  0  0  0  0  0  0  0
    3.8387    5.3127   21.9546 N   0  0  0  0  0  0  0  0  0  0  0  0
    4.3506    4.7618   23.0869 C   0  0  0  0  0  0  0  0  0  0  0  0
    4.8314    3.5589   22.7495 N   0  0  0  0  0  0  0  0  0  0  0  0
    4.6156    3.3714   21.4189 C   0  0  0  0  0  0  0  0  0  0  0  0
    4.8807    2.3538   20.5279 C   0  0  0  0  0  0  0  0  0  0  0  0
    5.5673    1.1347   21.0488 C   0  0  0  0  0  0  0  0  0  0  0  0
    4.5413    2.4299   19.1990 C   0  0  0  0  0  0  0  0  0  0  0  0
    4.9212    1.3059   18.3259 C   0  0  0  0  0  0  0  0  0  0  0  0
    3.5303    4.6629   11.3248 C   0  0  0  0  0  0  0  0  0  0  0  0
    2.2566    5.2375   10.7995 C   0  0  0  0  0  0  0  0  0  0  0  0
    2.3439    6.4311    9.9358 C   0  0  0  0  0  0  0  0  0  0  0  0
    3.6261    6.8805    9.5250 N   0  0  0  0  0  0  0  0  0  0  0  0
    4.8205    6.1664    9.9262 C   0  0  0  0  0  0  0  0  0  0  0  0
    4.5839    5.7129   11.3794 C   0  0  0  0  0  0  0  0  0  0  0  0
    3.7276    8.0516    8.6974 C   0  0  0  0  0  0  0  0  0  0  0  0
    2.6713    8.6279    8.3607 O   0  0  0  0  0  0  0  0  0  0  0  0
    5.0916    8.5108    8.2885 C   0  0  0  0  0  0  0  0  0  0  0  0
    5.1760    8.6861    6.8697 N   0  0  0  0  0  0  0  0  0  0  0  0
    5.6945   10.0375    6.6257 C   0  0  0  0  0  0  0  0  0  0  0  0
    6.0593    7.7263    6.2343 C   0  0  0  0  0  0  0  0  0  0  0  0
    4.4589    6.7679   17.5898 C   0  0  0  0  0  0  0  0  0  0  0  0
    5.0989    5.7148   16.6811 C   0  0  0  0  0  0  0  0  0  0  0  0
    6.2597    5.1667   17.5531 C   0  0  0  0  0  0  0  0  0  0  0  0
 34 35  1  0  0  0
 35 36  1  0  0  0
 35  1  1  0  0  0
  1  2  2  0  0  0
  2  3  1  0  0  0
  3  4  1  0  0  0
  4  5  2  0  0  0
  5  6  1  0  0  0
  6  7  2  0  0  0
  7  8  1  0  0  0
  8  9  2  0  0  0
  7 22  1  0  0  0
 22 23  1  0  0  0
 23 24  1  0  0  0
 24 25  1  0  0  0
 25 26  1  0  0  0
 26 27  1  0  0  0
 25 28  1  0  0  0
 28 29  2  0  0  0
 28 30  1  0  0  0
 30 31  1  0  0  0
 31 32  1  0  0  0
 31 33  1  0  0  0
  2 11  1  0  0  0
 11 12  2  0  0  0
 12 13  1  0  0  0
 13 14  1  0  0  0
 14 15  2  0  0  0
 15 16  1  0  0  0
 16 17  2  0  0  0
 17 18  1  0  0  0
 18 19  1  0  0  0
 18 20  2  0  0  0
 20 21  1  0  0  0
  9  1  1  0  0  0
 27 22  1  0  0  0
 20 11  1  0  0  0
  9  4  1  0  0  0
 17 13  1  0  0  0
  3 10  1  0  0  0
M  END
> <minimizedAffinity>
-8.33286

> <CNNscore>
0.2965012491

> <CNNaffinity>
6.5379347801

> <CNN_VS>
1.9385058880

> <CNNaffinity_variance>
0.3974568546

$$$$
[H]c1nc2c(C([H])([H])[H])c(C([H])([H])[H])c(-c3c(C([H])(C([H])([H])[H])C([H])([H])[H])c4c([H])c(C5([H])C([H])([H])C([H])([H])N(C(=O)C([H])([H])N(C([H])([H])[H])C([H])([H])[H])C([H])([H])C5([H])[H])c([H])c([H])c4n3[H])c([H])n2n1


 36 40  0  0  0  0  0  0  0  0999 V2000
    4.2930    4.6738   17.1486 C   0  0  0  0  0  0  0  0  0  0  0  0
    4.5455    3.8282   18.2369 C   0  0  0  0  0  0  0  0  0  0  0  0
    4.1913    2.5977   17.7830 N   0  0  0  0  0  0  0  0  0  0  0  0
    3.7533    2.6204   16.5323 C   0  0  0  0  0  0  0  0  0  0  0  0
    3.3008    1.5768   15.7120 C   0  0  0  0  0  0  0  0  0  0  0  0
    2.8966    1.8818   14.4304 C   0  0  0  0  0  0  0  0  0  0  0  0
    2.9236    3.1602   13.9473 C   0  0  0  0  0  0  0  0  0  0  0  0
    3.3829    4.1671   14.8078 C   0  0  0  0  0  0  0  0  0  0  0  0
    3.8014    3.9233   16.0935 C   0  0  0  0  0  0  0  0  0  0  0  0
    4.2367    1.7308   18.3700 H   0  0  0  0  0  0  0  0  0  0  0  0
    5.2096    4.1096   19.4987 C   0  0  0  0  0  0  0  0  0  0  0  0
    5.9226    5.2702   19.7466 C   0  0  0  0  0  0  0  0  0  0  0  0
    6.6155    5.5194   20.8788 N   0  0  0  0  0  0  0  0  0  0  0  0
    7.3172    6.5675   21.2287 N   0  0  0  0  0  0  0  0  0  0  0  0
    7.8222    6.3414   22.4703 C   0  0  0  0  0  0  0  0  0  0  0  0
    7.3991    5.1280   22.8456 N   0  0  0  0  0  0  0  0  0  0  0  0
    6.6385    4.6124   21.8418 C   0  0  0  0  0  0  0  0  0  0  0  0
    5.9484    3.4338   21.6559 C   0  0  0  0  0  0  0  0  0  0  0  0
    5.9910    2.4226   22.7535 C   0  0  0  0  0  0  0  0  0  0  0  0
    5.2398    3.1668   20.5099 C   0  0  0  0  0  0  0  0  0  0  0  0
    4.5844    1.8524   20.3961 C   0  0  0  0  0  0  0  0  0  0  0  0
    2.5040    3.4869   12.5393 C   0  0  0  0  0  0  0  0  0  0  0  0
    1.0898    3.9633   12.5770 C   0  0  0  0  0  0  0  0  0  0  0  0
    0.6938    5.0213   11.6274 C   0  0  0  0  0  0  0  0  0  0  0  0
    1.6224    5.4239   10.6322 N   0  0  0  0  0  0  0  0  0  0  0  0
    2.9214    4.7905   10.5375 C   0  0  0  0  0  0  0  0  0  0  0  0
    3.3891    4.5475   11.9851 C   0  0  0  0  0  0  0  0  0  0  0  0
    1.2568    6.4650    9.7108 C   0  0  0  0  0  0  0  0  0  0  0  0
    0.1202    6.9731    9.8175 O   0  0  0  0  0  0  0  0  0  0  0  0
    2.2586    6.8786    8.6794 C   0  0  0  0  0  0  0  0  0  0  0  0
    2.8643    8.1314    9.0180 N   0  0  0  0  0  0  0  0  0  0  0  0
    4.3190    7.9458    8.9536 C   0  0  0  0  0  0  0  0  0  0  0  0
    2.4905    9.2017    8.1126 C   0  0  0  0  0  0  0  0  0  0  0  0
    4.1642    6.7978   15.7983 C   0  0  0  0  0  0  0  0  0  0  0  0
    4.4682    6.1530   17.1534 C   0  0  0  0  0  0  0  0  0  0  0  0
    3.3797    6.7620   18.0767 C   0  0  0  0  0  0  0  0  0  0  0  0
 34 35  1  0  0  0
 35 36  1  0  0  0
 35  1  1  0  0  0
  1  2  2  0  0  0
  2  3  1  0  0  0
  3  4  1  0  0  0
  4  5  2  0  0  0
  5  6  1  0  0  0
  6  7  2  0  0  0
  7  8  1  0  0  0
  8  9  2  0  0  0
  7 22  1  0  0  0
 22 23  1  0  0  0
 23 24  1  0  0  0
 24 25  1  0  0  0
 25 26  1  0  0  0
 26 27  1  0  0  0
 25 28  1  0  0  0
 28 29  2  0  0  0
 28 30  1  0  0  0
 30 31  1  0  0  0
 31 32  1  0  0  0
 31 33  1  0  0  0
  2 11  1  0  0  0
 11 12  2  0  0  0
 12 13  1  0  0  0
 13 14  1  0  0  0
 14 15  2  0  0  0
 15 16  1  0  0  0
 16 17  2  0  0  0
 17 18  1  0  0  0
 18 19  1  0  0  0
 18 20  2  0  0  0
 20 21  1  0  0  0
  9  1  1  0  0  0
 27 22  1  0  0  0
 20 11  1  0  0  0
  9  4  1  0  0  0
 17 13  1  0  0  0
  3 10  1  0  0  0
M  END
> <minimizedAffinity>
-8.30269

> <CNNscore>
0.1961739808

> <CNNaffinity>
6.4808435440

> <CNN_VS>
1.2713729143

> <CNNaffinity_variance>
0.3363993764

$$$$
[H]c1nc2c(C([H])([H])[H])c(C([H])([H])[H])c(-c3c(C([H])(C([H])([H])[H])C([H])([H])[H])c4c([H])c(C5([H])C([H])([H])C([H])([H])N(C(=O)C([H])([H])N(C([H])([H])[H])C([H])([H])[H])C([H])([H])C5([H])[H])c([H])c([H])c4n3[H])c([H])n2n1


 36 40  0  0  0  0  0  0  0  0999 V2000
    2.4653    4.4696   14.0987 C   0  0  0  0  0  0  0  0  0  0  0  0
    2.5758    5.0001   15.3908 C   0  0  0  0  0  0  0  0  0  0  0  0
    1.5649    5.9051   15.4595 N   0  0  0  0  0  0  0  0  0  0  0  0
    0.8590    5.9693   14.3397 C   0  0  0  0  0  0  0  0  0  0  0  0
   -0.2494    6.7636   14.0119 C   0  0  0  0  0  0  0  0  0  0  0  0
   -0.8012    6.6288   12.7565 C   0  0  0  0  0  0  0  0  0  0  0  0
   -0.2990    5.7531   11.8348 C   0  0  0  0  0  0  0  0  0  0  0  0
    0.8107    4.9838   12.2113 C   0  0  0  0  0  0  0  0  0  0  0  0
    1.4010    5.0722   13.4487 C   0  0  0  0  0  0  0  0  0  0  0  0
    1.3823    6.5040   16.2999 H   0  0  0  0  0  0  0  0  0  0  0  0
    3.4192    4.5827   16.4985 C   0  0  0  0  0  0  0  0  0  0  0  0
    3.2554    3.3874   17.1775 C   0  0  0  0  0  0  0  0  0  0  0  0
    3.9718    3.0138   18.2597 N   0  0  0  0  0  0  0  0  0  0  0  0
    3.9139    1.9208   18.9775 N   0  0  0  0  0  0  0  0  0  0  0  0
    4.8450    2.0141   19.9634 C   0  0  0  0  0  0  0  0  0  0  0  0
    5.4563    3.1950   19.8087 N   0  0  0  0  0  0  0  0  0  0  0  0
    4.9051    3.8227   18.7343 C   0  0  0  0  0  0  0  0  0  0  0  0
    5.1169    5.0295   18.1029 C   0  0  0  0  0  0  0  0  0  0  0  0
    6.1720    5.9286   18.6574 C   0  0  0  0  0  0  0  0  0  0  0  0
    4.3959    5.4224   17.0018 C   0  0  0  0  0  0  0  0  0  0  0  0
    4.6691    6.7565   16.4400 C   0  0  0  0  0  0  0  0  0  0  0  0
   -0.9183    5.5910   10.4726 C   0  0  0  0  0  0  0  0  0  0  0  0
   -0.5149    4.2573    9.9371 C   0  0  0  0  0  0  0  0  0  0  0  0
   -1.4928    3.5217    9.1120 C   0  0  0  0  0  0  0  0  0  0  0  0
   -2.6983    4.1742    8.7432 N   0  0  0  0  0  0  0  0  0  0  0  0
   -2.9496    5.5417    9.1489 C   0  0  0  0  0  0  0  0  0  0  0  0
   -2.4004    5.6740   10.5821 C   0  0  0  0  0  0  0  0  0  0  0  0
   -3.6676    3.4645    7.9538 C   0  0  0  0  0  0  0  0  0  0  0  0
   -3.4035    2.2921    7.6116 O   0  0  0  0  0  0  0  0  0  0  0  0
   -4.9349    4.1713    7.5891 C   0  0  0  0  0  0  0  0  0  0  0  0
   -4.8922    4.6490    6.2398 N   0  0  0  0  0  0  0  0  0  0  0  0
   -5.8424    3.8459    5.4608 C   0  0  0  0  0  0  0  0  0  0  0  0
   -5.2602    6.0478    6.1247 C   0  0  0  0  0  0  0  0  0  0  0  0
    2.6537    2.3016   12.8279 C   0  0  0  0  0  0  0  0  0  0  0  0
    3.3879    3.4631   13.5034 C   0  0  0  0  0  0  0  0  0  0  0  0
    4.1319    4.1356   12.3192 C   0  0  0  0  0  0  0  0  0  0  0  0
 34 35  1  0  0  0
 35 36  1  0  0  0
 35  1  1  0  0  0
  1  2  2  0  0  0
  2  3  1  0  0  0
  3  4  1  0  0  0
  4  5  2  0  0  0
  5  6  1  0  0  0
  6  7  2  0  0  0
  7  8  1  0  0  0
  8  9  2  0  0  0
  7 22  1  0  0  0
 22 23  1  0  0  0
 23 24  1  0  0  0
 24 25  1  0  0  0
 25 26  1  0  0  0
 26 27  1  0  0  0
 25 28  1  0  0  0
 28 29  2  0  0  0
 28 30  1  0  0  0
 30 31  1  0  0  0
 31 32  1  0  0  0
 31 33  1  0  0  0
  2 11  1  0  0  0
 11 12  2  0  0  0
 12 13  1  0  0  0
 13 14  1  0  0  0
 14 15  2  0  0  0
 15 16  1  0  0  0
 16 17  2  0  0  0
 17 18  1  0  0  0
 18 19  1  0  0  0
 18 20  2  0  0  0
 20 21  1  0  0  0
  9  1  1  0  0  0
 27 22  1  0  0  0
 20 11  1  0  0  0
  9  4  1  0  0  0
 17 13  1  0  0  0
  3 10  1  0  0  0
M  END
> <minimizedAffinity>
-7.26783

> <CNNscore>
0.1526922882

> <CNNaffinity>
6.1042327881

> <CNN_VS>
0.9320693016

> <CNNaffinity_variance>
0.2306520641

$$$$
[H]c1nc2c(C([H])([H])[H])c(C([H])([H])[H])c(-c3c(C([H])(C([H])([H])[H])C([H])([H])[H])c4c([H])c(C5([H])C([H])([H])C([H])([H])N(C(=O)C([H])([H])N(C([H])([H])[H])C([H])([H])[H])C([H])([H])C5([H])[H])c([H])c([H])c4n3[H])c([H])n2n1


 36 40  0  0  0  0  0  0  0  0999 V2000
    0.1150    5.2707   12.4537 C   0  0  0  0  0  0  0  0  0  0  0  0
   -0.5877    4.7551   11.3567 C   0  0  0  0  0  0  0  0  0  0  0  0
   -0.1164    3.4868   11.2342 N   0  0  0  0  0  0  0  0  0  0  0  0
    0.7965    3.1900   12.1480 C   0  0  0  0  0  0  0  0  0  0  0  0
    1.5135    2.0034   12.3600 C   0  0  0  0  0  0  0  0  0  0  0  0
    2.4170    1.9632   13.3996 C   0  0  0  0  0  0  0  0  0  0  0  0
    2.6300    3.0385   14.2162 C   0  0  0  0  0  0  0  0  0  0  0  0
    1.8893    4.2011   13.9610 C   0  0  0  0  0  0  0  0  0  0  0  0
    0.9729    4.2993   12.9422 C   0  0  0  0  0  0  0  0  0  0  0  0
   -0.4253    2.8263   10.4816 H   0  0  0  0  0  0  0  0  0  0  0  0
   -1.7021    5.3226   10.6160 C   0  0  0  0  0  0  0  0  0  0  0  0
   -3.0294    5.1034   10.9425 C   0  0  0  0  0  0  0  0  0  0  0  0
   -4.0817    5.5511   10.2240 N   0  0  0  0  0  0  0  0  0  0  0  0
   -5.3672    5.4143   10.4296 N   0  0  0  0  0  0  0  0  0  0  0  0
   -6.0249    6.0495    9.4238 C   0  0  0  0  0  0  0  0  0  0  0  0
   -5.0910    6.5667    8.6160 N   0  0  0  0  0  0  0  0  0  0  0  0
   -3.8676    6.2521    9.1225 C   0  0  0  0  0  0  0  0  0  0  0  0
   -2.5670    6.5043    8.7421 C   0  0  0  0  0  0  0  0  0  0  0  0
   -2.3482    7.2937    7.4938 C   0  0  0  0  0  0  0  0  0  0  0  0
   -1.4874    6.0551    9.4629 C   0  0  0  0  0  0  0  0  0  0  0  0
   -0.1415    6.3367    8.9345 C   0  0  0  0  0  0  0  0  0  0  0  0
    3.6002    2.9839   15.3656 C   0  0  0  0  0  0  0  0  0  0  0  0
    3.5568    4.2992   16.0702 C   0  0  0  0  0  0  0  0  0  0  0  0
    3.7256    4.3012   17.5364 C   0  0  0  0  0  0  0  0  0  0  0  0
    4.0698    3.0851   18.1826 N   0  0  0  0  0  0  0  0  0  0  0  0
    4.2745    1.8748   17.4140 C   0  0  0  0  0  0  0  0  0  0  0  0
    3.2139    1.8890   16.2968 C   0  0  0  0  0  0  0  0  0  0  0  0
    4.2212    3.0682   19.6120 C   0  0  0  0  0  0  0  0  0  0  0  0
    4.0516    4.1381   20.2347 O   0  0  0  0  0  0  0  0  0  0  0  0
    4.5724    1.7708   20.2693 C   0  0  0  0  0  0  0  0  0  0  0  0
    3.4760    1.2667   21.0404 N   0  0  0  0  0  0  0  0  0  0  0  0
    3.2089   -0.1011   20.5793 C   0  0  0  0  0  0  0  0  0  0  0  0
    3.7559    1.2324   22.4636 C   0  0  0  0  0  0  0  0  0  0  0  0
   -0.7526    6.7508   14.2997 C   0  0  0  0  0  0  0  0  0  0  0  0
   -0.0012    6.6636   12.9684 C   0  0  0  0  0  0  0  0  0  0  0  0
    1.4217    7.1570   13.3430 C   0  0  0  0  0  0  0  0  0  0  0  0
 34 35  1  0  0  0
 35 36  1  0  0  0
 35  1  1  0  0  0
  1  2  2  0  0  0
  2  3  1  0  0  0
  3  4  1  0  0  0
  4  5  2  0  0  0
  5  6  1  0  0  0
  6  7  2  0  0  0
  7  8  1  0  0  0
  8  9  2  0  0  0
  7 22  1  0  0  0
 22 23  1  0  0  0
 23 24  1  0  0  0
 24 25  1  0  0  0
 25 26  1  0  0  0
 26 27  1  0  0  0
 25 28  1  0  0  0
 28 29  2  0  0  0
 28 30  1  0  0  0
 30 31  1  0  0  0
 31 32  1  0  0  0
 31 33  1  0  0  0
  2 11  1  0  0  0
 11 12  2  0  0  0
 12 13  1  0  0  0
 13 14  1  0  0  0
 14 15  2  0  0  0
 15 16  1  0  0  0
 16 17  2  0  0  0
 17 18  1  0  0  0
 18 19  1  0  0  0
 18 20  2  0  0  0
 20 21  1  0  0  0
  9  1  1  0  0  0
 27 22  1  0  0  0
 20 11  1  0  0  0
  9  4  1  0  0  0
 17 13  1  0  0  0
  3 10  1  0  0  0
M  END
> <minimizedAffinity>
-9.00428

> <CNNscore>
0.1277980655

> <CNNaffinity>
5.9670510292

> <CNN_VS>
0.7625775933

> <CNNaffinity_variance>
0.2526885569

$$$$
[H]c1nc2c(C([H])([H])[H])c(C([H])([H])[H])c(-c3c(C([H])(C([H])([H])[H])C([H])([H])[H])c4c([H])c(C5([H])C([H])([H])C([H])([H])N(C(=O)C([H])([H])N(C([H])([H])[H])C([H])([H])[H])C([H])([H])C5([H])[H])c([H])c([H])c4n3[H])c([H])n2n1


 36 40  0  0  0  0  0  0  0  0999 V2000
    6.7786    7.0211   19.6838 C   0  0  0  0  0  0  0  0  0  0  0  0
    7.9637    7.5601   20.2019 C   0  0  0  0  0  0  0  0  0  0  0  0
    8.3534    8.4574   19.2593 N   0  0  0  0  0  0  0  0  0  0  0  0
    7.5209    8.5116   18.2295 C   0  0  0  0  0  0  0  0  0  0  0  0
    7.5654    9.2981   17.0692 C   0  0  0  0  0  0  0  0  0  0  0  0
    6.5549    9.1541   16.1434 C   0  0  0  0  0  0  0  0  0  0  0  0
    5.5258    8.2732   16.3257 C   0  0  0  0  0  0  0  0  0  0  0  0
    5.5287    7.5096   17.5013 C   0  0  0  0  0  0  0  0  0  0  0  0
    6.5065    7.6118   18.4609 C   0  0  0  0  0  0  0  0  0  0  0  0
    9.2316    9.0249   19.3306 H   0  0  0  0  0  0  0  0  0  0  0  0
    8.5700    7.3859   21.5113 C   0  0  0  0  0  0  0  0  0  0  0  0
    8.0528    7.9323   22.6734 C   0  0  0  0  0  0  0  0  0  0  0  0
    8.6399    7.8539   23.8871 N   0  0  0  0  0  0  0  0  0  0  0  0
    8.2521    8.3203   25.0471 N   0  0  0  0  0  0  0  0  0  0  0  0
    9.1870    7.9785   25.9727 C   0  0  0  0  0  0  0  0  0  0  0  0
   10.1404    7.2960   25.3268 N   0  0  0  0  0  0  0  0  0  0  0  0
    9.7932    7.2180   24.0132 C   0  0  0  0  0  0  0  0  0  0  0  0
   10.3616    6.6519   22.8924 C   0  0  0  0  0  0  0  0  0  0  0  0
   11.6651    5.9426   23.0565 C   0  0  0  0  0  0  0  0  0  0  0  0
    9.7760    6.7240   21.6519 C   0  0  0  0  0  0  0  0  0  0  0  0
   10.4985    6.1300   20.5139 C   0  0  0  0  0  0  0  0  0  0  0  0
    4.4109    8.1352   15.3240 C   0  0  0  0  0  0  0  0  0  0  0  0
    4.9788    8.3737   13.9643 C   0  0  0  0  0  0  0  0  0  0  0  0
    4.4268    7.5924   12.8404 C   0  0  0  0  0  0  0  0  0  0  0  0
    3.2922    6.7724   13.0751 N   0  0  0  0  0  0  0  0  0  0  0  0
    2.6762    6.7245   14.3850 C   0  0  0  0  0  0  0  0  0  0  0  0
    3.8294    6.7675   15.4055 C   0  0  0  0  0  0  0  0  0  0  0  0
    2.7538    5.9928   11.9940 C   0  0  0  0  0  0  0  0  0  0  0  0
    3.3058    6.0762   10.8761 O   0  0  0  0  0  0  0  0  0  0  0  0
    1.5649    5.1278   12.2713 C   0  0  0  0  0  0  0  0  0  0  0  0
    1.9076    3.7389   12.2050 N   0  0  0  0  0  0  0  0  0  0  0  0
    1.7306    3.1797   13.5506 C   0  0  0  0  0  0  0  0  0  0  0  0
    1.0742    2.9959   11.2784 C   0  0  0  0  0  0  0  0  0  0  0  0
    4.6341    6.4311   20.8685 C   0  0  0  0  0  0  0  0  0  0  0  0
    5.9775    5.9399   20.3223 C   0  0  0  0  0  0  0  0  0  0  0  0
    5.5539    4.9388   19.2148 C   0  0  0  0  0  0  0  0  0  0  0  0
 34 35  1  0  0  0
 35 36  1  0  0  0
 35  1  1  0  0  0
  1  2  2  0  0  0
  2  3  1  0  0  0
  3  4  1  0  0  0
  4  5  2  0  0  0
  5  6  1  0  0  0
  6  7  2  0  0  0
  7  8  1  0  0  0
  8  9  2  0  0  0
  7 22  1  0  0  0
 22 23  1  0  0  0
 23 24  1  0  0  0
 24 25  1  0  0  0
 25 26  1  0  0  0
 26 27  1  0  0  0
 25 28  1  0  0  0
 28 29  2  0  0  0
 28 30  1  0  0  0
 30 31  1  0  0  0
 31 32  1  0  0  0
 31 33  1  0  0  0
  2 11  1  0  0  0
 11 12  2  0  0  0
 12 13  1  0  0  0
 13 14  1  0  0  0
 14 15  2  0  0  0
 15 16  1  0  0  0
 16 17  2  0  0  0
 17 18  1  0  0  0
 18 19  1  0  0  0
 18 20  2  0  0  0
 20 21  1  0  0  0
  9  1  1  0  0  0
 27 22  1  0  0  0
 20 11  1  0  0  0
  9  4  1  0  0  0
 17 13  1  0  0  0
  3 10  1  0  0  0
M  END
> <minimizedAffinity>
-7.41607

> <CNNscore>
0.1154752374

> <CNNaffinity>
5.9777579308

> <CNN_VS>
0.6902830005

> <CNNaffinity_variance>
0.1349559724

$$$$
[H]c1nc2c(C([H])([H])[H])c(C([H])([H])[H])c(-c3c(C([H])(C([H])([H])[H])C([H])([H])[H])c4c([H])c(C5([H])C([H])([H])C([H])([H])N(C(=O)C([H])([H])N(C([H])([H])[H])C([H])([H])[H])C([H])([H])C5([H])[H])c([H])c([H])c4n3[H])c([H])n2n1


 36 40  0  0  0  0  0  0  0  0999 V2000
    5.2306    6.8284   17.9544 C   0  0  0  0  0  0  0  0  0  0  0  0
    6.0905    7.8785   18.3023 C   0  0  0  0  0  0  0  0  0  0  0  0
    5.9266    8.7803   17.2996 N   0  0  0  0  0  0  0  0  0  0  0  0
    5.0542    8.3774   16.3869 C   0  0  0  0  0  0  0  0  0  0  0  0
    4.6116    9.0093   15.2157 C   0  0  0  0  0  0  0  0  0  0  0  0
    3.6829    8.3581   14.4332 C   0  0  0  0  0  0  0  0  0  0  0  0
    3.1916    7.1266   14.7657 C   0  0  0  0  0  0  0  0  0  0  0  0
    3.6674    6.5374   15.9453 C   0  0  0  0  0  0  0  0  0  0  0  0
    4.5898    7.1394   16.7665 C   0  0  0  0  0  0  0  0  0  0  0  0
    6.4538    9.6843   17.2443 H   0  0  0  0  0  0  0  0  0  0  0  0
    6.8474    8.0947   19.5242 C   0  0  0  0  0  0  0  0  0  0  0  0
    8.1385    7.6338   19.7168 C   0  0  0  0  0  0  0  0  0  0  0  0
    8.8322    7.7502   20.8697 N   0  0  0  0  0  0  0  0  0  0  0  0
   10.0460    7.3634   21.1705 N   0  0  0  0  0  0  0  0  0  0  0  0
   10.2918    7.7120   22.4611 C   0  0  0  0  0  0  0  0  0  0  0  0
    9.1876    8.3167   22.9163 N   0  0  0  0  0  0  0  0  0  0  0  0
    8.2697    8.3403   21.9118 C   0  0  0  0  0  0  0  0  0  0  0  0
    6.9841    8.8208   21.7847 C   0  0  0  0  0  0  0  0  0  0  0  0
    6.3671    9.4794   22.9741 C   0  0  0  0  0  0  0  0  0  0  0  0
    6.2668    8.7091   20.6186 C   0  0  0  0  0  0  0  0  0  0  0  0
    4.8814    9.2096   20.6118 C   0  0  0  0  0  0  0  0  0  0  0  0
    2.1596    6.4282   13.9215 C   0  0  0  0  0  0  0  0  0  0  0  0
    1.1579    7.4438   13.4816 C   0  0  0  0  0  0  0  0  0  0  0  0
    0.5686    7.2925   12.1369 C   0  0  0  0  0  0  0  0  0  0  0  0
    0.8626    6.1193   11.3940 N   0  0  0  0  0  0  0  0  0  0  0  0
    1.7037    5.0828   11.9561 C   0  0  0  0  0  0  0  0  0  0  0  0
    2.8156    5.8072   12.7386 C   0  0  0  0  0  0  0  0  0  0  0  0
    0.3092    5.9658   10.0761 C   0  0  0  0  0  0  0  0  0  0  0  0
   -0.4245    6.8764    9.6360 O   0  0  0  0  0  0  0  0  0  0  0  0
    0.6447    4.7253    9.3098 C   0  0  0  0  0  0  0  0  0  0  0  0
   -0.3912    3.7441    9.4325 N   0  0  0  0  0  0  0  0  0  0  0  0
   -1.0989    3.6917    8.1475 C   0  0  0  0  0  0  0  0  0  0  0  0
    0.1189    2.4206    9.7378 C   0  0  0  0  0  0  0  0  0  0  0  0
    3.6235    5.2189   19.0396 C   0  0  0  0  0  0  0  0  0  0  0  0
    5.0811    5.5554   18.7131 C   0  0  0  0  0  0  0  0  0  0  0  0
    5.5036    4.3889   17.7809 C   0  0  0  0  0  0  0  0  0  0  0  0
 34 35  1  0  0  0
 35 36  1  0  0  0
 35  1  1  0  0  0
  1  2  2  0  0  0
  2  3  1  0  0  0
  3  4  1  0  0  0
  4  5  2  0  0  0
  5  6  1  0  0  0
  6  7  2  0  0  0
  7  8  1  0  0  0
  8  9  2  0  0  0
  7 22  1  0  0  0
 22 23  1  0  0  0
 23 24  1  0  0  0
 24 25  1  0  0  0
 25 26  1  0  0  0
 26 27  1  0  0  0
 25 28  1  0  0  0
 28 29  2  0  0  0
 28 30  1  0  0  0
 30 31  1  0  0  0
 31 32  1  0  0  0
 31 33  1  0  0  0
  2 11  1  0  0  0
 11 12  2  0  0  0
 12 13  1  0  0  0
 13 14  1  0  0  0
 14 15  2  0  0  0
 15 16  1  0  0  0
 16 17  2  0  0  0
 17 18  1  0  0  0
 18 19  1  0  0  0
 18 20  2  0  0  0
 20 21  1  0  0  0
  9  1  1  0  0  0
 27 22  1  0  0  0
 20 11  1  0  0  0
  9  4  1  0  0  0
 17 13  1  0  0  0
  3 10  1  0  0  0
M  END
> <minimizedAffinity>
-7.13387

> <CNNscore>
0.0966569111

> <CNNaffinity>
5.7422857285

> <CNN_VS>
0.5550315976

> <CNNaffinity_variance>
0.3347616196

$$$$
[H]c1nc2c(C([H])([H])[H])c(C([H])([H])[H])c(-c3c(C([H])(C([H])([H])[H])C([H])([H])[H])c4c([H])c(C5([H])C([H])([H])C([H])([H])N(C(=O)C([H])([H])N(C([H])([H])[H])C([H])([H])[H])C([H])([H])C5([H])[H])c([H])c([H])c4n3[H])c([H])n2n1


 36 40  0  0  0  0  0  0  0  0999 V2000
    3.9816    7.4056   16.3238 C   0  0  0  0  0  0  0  0  0  0  0  0
    3.5224    8.1461   15.2265 C   0  0  0  0  0  0  0  0  0  0  0  0
    3.3405    9.3951   15.7289 N   0  0  0  0  0  0  0  0  0  0  0  0
    3.6457    9.4781   17.0160 C   0  0  0  0  0  0  0  0  0  0  0  0
    3.5972   10.5743   17.8895 C   0  0  0  0  0  0  0  0  0  0  0  0
    3.9767   10.3821   19.2002 C   0  0  0  0  0  0  0  0  0  0  0  0
    4.3911    9.1646   19.6633 C   0  0  0  0  0  0  0  0  0  0  0  0
    4.4199    8.1012   18.7504 C   0  0  0  0  0  0  0  0  0  0  0  0
    4.0566    8.2330   17.4320 C   0  0  0  0  0  0  0  0  0  0  0  0
    2.9739   10.1973   15.1630 H   0  0  0  0  0  0  0  0  0  0  0  0
    3.4324    7.7728   13.8247 C   0  0  0  0  0  0  0  0  0  0  0  0
    4.4946    7.8553   12.9406 C   0  0  0  0  0  0  0  0  0  0  0  0
    4.4159    7.5927   11.6182 N   0  0  0  0  0  0  0  0  0  0  0  0
    5.3391    7.6306   10.6910 N   0  0  0  0  0  0  0  0  0  0  0  0
    4.7653    7.2783    9.5102 C   0  0  0  0  0  0  0  0  0  0  0  0
    3.4746    7.0308    9.7651 N   0  0  0  0  0  0  0  0  0  0  0  0
    3.2570    7.2287   11.0939 C   0  0  0  0  0  0  0  0  0  0  0  0
    2.1596    7.1286   11.9218 C   0  0  0  0  0  0  0  0  0  0  0  0
    0.8609    6.7203   11.3087 C   0  0  0  0  0  0  0  0  0  0  0  0
    2.2248    7.3927   13.2682 C   0  0  0  0  0  0  0  0  0  0  0  0
    0.9780    7.3064   14.0480 C   0  0  0  0  0  0  0  0  0  0  0  0
    4.8276    8.9633   21.0896 C   0  0  0  0  0  0  0  0  0  0  0  0
    5.2995    7.5545   21.2342 C   0  0  0  0  0  0  0  0  0  0  0  0
    6.4291    7.2969   22.1485 C   0  0  0  0  0  0  0  0  0  0  0  0
    6.9087    8.3630   22.9536 N   0  0  0  0  0  0  0  0  0  0  0  0
    6.2848    9.6687   22.8951 C   0  0  0  0  0  0  0  0  0  0  0  0
    5.9285    9.9103   21.4159 C   0  0  0  0  0  0  0  0  0  0  0  0
    8.0192    8.1312   23.8366 C   0  0  0  0  0  0  0  0  0  0  0  0
    8.5173    6.9857   23.8680 O   0  0  0  0  0  0  0  0  0  0  0  0
    8.5127    9.2750   24.6652 C   0  0  0  0  0  0  0  0  0  0  0  0
    9.9090    9.5077   24.4485 N   0  0  0  0  0  0  0  0  0  0  0  0
   10.0449   10.1750   23.1480 C   0  0  0  0  0  0  0  0  0  0  0  0
   10.5057   10.3494   25.4686 C   0  0  0  0  0  0  0  0  0  0  0  0
    5.4373    5.5609   17.2343 C   0  0  0  0  0  0  0  0  0  0  0  0
    4.2799    5.9463   16.3090 C   0  0  0  0  0  0  0  0  0  0  0  0
    3.0723    5.2035   16.9398 C   0  0  0  0  0  0  0  0  0  0  0  0
 34 35  1  0  0  0
 35 36  1  0  0  0
 35  1  1  0  0  0
  1  2  2  0  0  0
  2  3  1  0  0  0
  3  4  1  0  0  0
  4  5  2  0  0  0
  5  6  1  0  0  0
  6  7  2  0  0  0
  7  8  1  0  0  0
  8  9  2  0  0  0
  7 22  1  0  0  0
 22 23  1  0  0  0
 23 24  1  0  0  0
 24 25  1  0  0  0
 25 26  1  0  0  0
 26 27  1  0  0  0
 25 28  1  0  0  0
 28 29  2  0  0  0
 28 30  1  0  0  0
 30 31  1  0  0  0
 31 32  1  0  0  0
 31 33  1  0  0  0
  2 11  1  0  0  0
 11 12  2  0  0  0
 12 13  1  0  0  0
 13 14  1  0  0  0
 14 15  2  0  0  0
 15 16  1  0  0  0
 16 17  2  0  0  0
 17 18  1  0  0  0
 18 19  1  0  0  0
 18 20  2  0  0  0
 20 21  1  0  0  0
  9  1  1  0  0  0
 27 22  1  0  0  0
 20 11  1  0  0  0
  9  4  1  0  0  0
 17 13  1  0  0  0
  3 10  1  0  0  0
M  END
> <minimizedAffinity>
-8.10916

> <CNNscore>
0.0930534378

> <CNNaffinity>
5.8109726906

> <CNN_VS>
0.5407310128

> <CNNaffinity_variance>
0.0830366090

$$$$
[H]c1nc2c(C([H])([H])[H])c(C([H])([H])[H])c(-c3c(C([H])(C([H])([H])[H])C([H])([H])[H])c4c([H])c(C5([H])C([H])([H])C([H])([H])N(C(=O)C([H])([H])N(C([H])([H])[H])C([H])([H])[H])C([H])([H])C5([H])[H])c([H])c([H])c4n3[H])c([H])n2n1


 36 40  0  0  0  0  0  0  0  0999 V2000
    4.1510    5.9981   16.6797 C   0  0  0  0  0  0  0  0  0  0  0  0
    3.3536    5.1900   17.5009 C   0  0  0  0  0  0  0  0  0  0  0  0
    2.2654    4.9189   16.7341 N   0  0  0  0  0  0  0  0  0  0  0  0
    2.3309    5.4817   15.5360 C   0  0  0  0  0  0  0  0  0  0  0  0
    1.4246    5.4433   14.4664 C   0  0  0  0  0  0  0  0  0  0  0  0
    1.7447    6.1280   13.3143 C   0  0  0  0  0  0  0  0  0  0  0  0
    2.9075    6.8361   13.1918 C   0  0  0  0  0  0  0  0  0  0  0  0
    3.7785    6.8440   14.2902 C   0  0  0  0  0  0  0  0  0  0  0  0
    3.5149    6.1782   15.4627 C   0  0  0  0  0  0  0  0  0  0  0  0
    1.4526    4.3473   17.0670 H   0  0  0  0  0  0  0  0  0  0  0  0
    3.6543    4.5919   18.7910 C   0  0  0  0  0  0  0  0  0  0  0  0
    3.5358    5.2666   19.9941 C   0  0  0  0  0  0  0  0  0  0  0  0
    3.8859    4.7610   21.1965 N   0  0  0  0  0  0  0  0  0  0  0  0
    3.8184    5.2925   22.3908 N   0  0  0  0  0  0  0  0  0  0  0  0
    4.2893    4.3828   23.2843 C   0  0  0  0  0  0  0  0  0  0  0  0
    4.6380    3.2965   22.5840 N   0  0  0  0  0  0  0  0  0  0  0  0
    4.3822    3.5367   21.2691 C   0  0  0  0  0  0  0  0  0  0  0  0
    4.5264    2.8121   20.1055 C   0  0  0  0  0  0  0  0  0  0  0  0
    5.0922    1.4344   20.2098 C   0  0  0  0  0  0  0  0  0  0  0  0
    4.1748    3.3135   18.8759 C   0  0  0  0  0  0  0  0  0  0  0  0
    4.4226    2.4718   17.6927 C   0  0  0  0  0  0  0  0  0  0  0  0
    3.2654    7.5634   11.9236 C   0  0  0  0  0  0  0  0  0  0  0  0
    4.7392    7.4407   11.7205 C   0  0  0  0  0  0  0  0  0  0  0  0
    5.2363    7.3237   10.3358 C   0  0  0  0  0  0  0  0  0  0  0  0
    4.3160    7.4851    9.2672 N   0  0  0  0  0  0  0  0  0  0  0  0
    2.9237    7.7828    9.5328 C   0  0  0  0  0  0  0  0  0  0  0  0
    2.5362    6.9589   10.7755 C   0  0  0  0  0  0  0  0  0  0  0  0
    4.7825    7.3573    7.9135 C   0  0  0  0  0  0  0  0  0  0  0  0
    5.9946    7.1163    7.7288 O   0  0  0  0  0  0  0  0  0  0  0  0
    3.7894    7.5201    6.8064 C   0  0  0  0  0  0  0  0  0  0  0  0
    3.8844    8.8194    6.2116 N   0  0  0  0  0  0  0  0  0  0  0  0
    4.4931    8.6508    4.8865 C   0  0  0  0  0  0  0  0  0  0  0  0
    2.5937    9.4628    6.0530 C   0  0  0  0  0  0  0  0  0  0  0  0
    5.3229    7.5308   18.3010 C   0  0  0  0  0  0  0  0  0  0  0  0
    5.4466    6.6140   17.0809 C   0  0  0  0  0  0  0  0  0  0  0  0
    6.3773    5.4827   17.5929 C   0  0  0  0  0  0  0  0  0  0  0  0
 34 35  1  0  0  0
 35 36  1  0  0  0
 35  1  1  0  0  0
  1  2  2  0  0  0
  2  3  1  0  0  0
  3  4  1  0  0  0
  4  5  2  0  0  0
  5  6  1  0  0  0
  6  7  2  0  0  0
  7  8  1  0  0  0
  8  9  2  0  0  0
  7 22  1  0  0  0
 22 23  1  0  0  0
 23 24  1  0  0  0
 24 25  1  0  0  0
 25 26  1  0  0  0
 26 27  1  0  0  0
 25 28  1  0  0  0
 28 29  2  0  0  0
 28 30  1  0  0  0
 30 31  1  0  0  0
 31 32  1  0  0  0
 31 33  1  0  0  0
  2 11  1  0  0  0
 11 12  2  0  0  0
 12 13  1  0  0  0
 13 14  1  0  0  0
 14 15  2  0  0  0
 15 16  1  0  0  0
 16 17  2  0  0  0
 17 18  1  0  0  0
 18 19  1  0  0  0
 18 20  2  0  0  0
 20 21  1  0  0  0
  9  1  1  0  0  0
 27 22  1  0  0  0
 20 11  1  0  0  0
  9  4  1  0  0  0
 17 13  1  0  0  0
  3 10  1  0  0  0
M  END
> <minimizedAffinity>
-8.38046

> <CNNscore>
0.0857511908

> <CNNaffinity>
5.9368700981

> <CNN_VS>
0.5090937018

> <CNNaffinity_variance>
0.2908975184

$$$$
[H]c1c([H])c([H])c2c(c1[H])C([H])([H])N(C(=O)c1c([H])c3c(c([H])c1Cl)C([H])([H])N(C(=O)[C@@]([H])(N1C([H])([H])C([H])([H])C([H])([H])C1([H])[H])[C@@]([H])(OC([H])([H])[H])C(=O)N([H])C14C(=O)C([H])([H])C([H])([H])N1C([H])([H])C1([H])C([H])([H])C([H])(C4([H])[H])C1([H])[H])C([H])([H])C3([H])[H])C2([H])[H]


 49 56  0  0  0  0  0  0  0  0999 V2000
    1.0271    3.5874   10.3659 C   0  0  0  0  0  0  0  0  0  0  0  0
    1.2551    2.7122   11.5776 C   0  0  0  0  0  0  0  0  0  0  0  0
    1.5385    1.4978   11.4258 O   0  0  0  0  0  0  0  0  0  0  0  0
    1.1653    3.1792   12.8831 N   0  0  0  0  0  0  0  0  0  0  0  0
    1.4376    2.2699   14.0012 C   0  0  0  0  0  0  0  0  0  0  0  0
    2.4175    2.8687   14.9455 C   0  0  0  0  0  0  0  0  0  0  0  0
    3.1623    2.0349   15.7594 C   0  0  0  0  0  0  0  0  0  0  0  0
    4.0736    2.5332   16.6449 C   0  0  0  0  0  0  0  0  0  0  0  0
    5.0029    1.4492   17.6635 Cl  0  0  0  0  0  0  0  0  0  0  0  0
    4.2236    3.9138   16.6960 C   0  0  0  0  0  0  0  0  0  0  0  0
    3.4659    4.7497   15.8685 C   0  0  0  0  0  0  0  0  0  0  0  0
    2.5494    4.2284   14.9794 C   0  0  0  0  0  0  0  0  0  0  0  0
    1.7976    5.1839   14.1461 C   0  0  0  0  0  0  0  0  0  0  0  0
    0.7899    4.5092   13.2393 C   0  0  0  0  0  0  0  0  0  0  0  0
    5.1898    4.4495   17.6363 C   0  0  0  0  0  0  0  0  0  0  0  0
    4.9601    4.4811   19.0322 N   0  0  0  0  0  0  0  0  0  0  0  0
    5.8023    4.9744   20.0986 C   0  0  0  0  0  0  0  0  0  0  0  0
    5.5660    3.9301   21.1412 C   0  0  0  0  0  0  0  0  0  0  0  0
    6.3320    3.5094   22.2045 C   0  0  0  0  0  0  0  0  0  0  0  0
    5.8656    2.4940   23.0381 C   0  0  0  0  0  0  0  0  0  0  0  0
    4.6387    1.9228   22.7849 C   0  0  0  0  0  0  0  0  0  0  0  0
    3.8581    2.3290   21.7277 C   0  0  0  0  0  0  0  0  0  0  0  0
    4.3346    3.3360   20.9115 C   0  0  0  0  0  0  0  0  0  0  0  0
    3.7565    3.9913   19.7182 C   0  0  0  0  0  0  0  0  0  0  0  0
    6.2698    4.9016   17.1940 O   0  0  0  0  0  0  0  0  0  0  0  0
    2.1664    4.2646   10.0528 N   0  0  0  0  0  0  0  0  0  0  0  0
    3.4869    3.8435   10.0695 C   0  0  0  0  0  0  0  0  0  0  0  0
    4.2041    4.7913    9.0545 C   0  0  0  0  0  0  0  0  0  0  0  0
    3.5065    6.0890    9.3754 C   0  0  0  0  0  0  0  0  0  0  0  0
    2.1595    5.7058    9.9603 C   0  0  0  0  0  0  0  0  0  0  0  0
    0.1218    2.9866    9.3560 C   0  0  0  0  0  0  0  0  0  0  0  0
   -1.1616    3.7995    9.2472 C   0  0  0  0  0  0  0  0  0  0  0  0
   -1.2166    4.9153    8.7146 O   0  0  0  0  0  0  0  0  0  0  0  0
   -2.3994    3.2979    9.7712 N   0  0  0  0  0  0  0  0  0  0  0  0
   -2.3656    2.3691   10.2256 H   0  0  0  0  0  0  0  0  0  0  0  0
   -3.6450    4.0216    9.6945 C   0  0  0  0  0  0  0  0  0  0  0  0
   -4.6691    3.2748   10.3395 N   0  0  0  0  0  0  0  0  0  0  0  0
   -5.9831    3.8819   10.2368 C   0  0  0  0  0  0  0  0  0  0  0  0
   -6.2079    4.9416   11.2773 C   0  0  0  0  0  0  0  0  0  0  0  0
   -5.7530    6.2539   10.6667 C   0  0  0  0  0  0  0  0  0  0  0  0
   -4.3768    5.9412   11.1868 C   0  0  0  0  0  0  0  0  0  0  0  0
   -3.4358    5.4040   10.1882 C   0  0  0  0  0  0  0  0  0  0  0  0
   -4.9689    4.9751   12.1509 C   0  0  0  0  0  0  0  0  0  0  0  0
   -4.7307    2.0670    9.5377 C   0  0  0  0  0  0  0  0  0  0  0  0
   -4.6405    2.5939    8.1082 C   0  0  0  0  0  0  0  0  0  0  0  0
   -4.0970    3.9676    8.2702 C   0  0  0  0  0  0  0  0  0  0  0  0
   -4.0201    4.8572    7.4709 O   0  0  0  0  0  0  0  0  0  0  0  0
   -0.4082    0.7942    8.7795 C   0  0  0  0  0  0  0  0  0  0  0  0
   -0.3729    1.7316    9.8069 O   0  0  0  0  0  0  0  0  0  0  0  0
 48 49  1  0  0  0
 49 31  1  0  0  0
 31  1  1  0  0  0
  1 26  1  0  0  0
 26 27  1  0  0  0
 27 28  1  0  0  0
 28 29  1  0  0  0
 29 30  1  0  0  0
  1  2  1  0  0  0
  2  3  2  0  0  0
  2  4  1  0  0  0
  4  5  1  0  0  0
  5  6  1  0  0  0
  6  7  2  0  0  0
  7  8  1  0  0  0
  8  9  1  0  0  0
  8 10  2  0  0  0
 10 15  1  0  0  0
 15 16  1  0  0  0
 16 17  1  0  0  0
 17 18  1  0  0  0
 18 19  2  0  0  0
 19 20  1  0  0  0
 20 21  2  0  0  0
 21 22  1  0  0  0
 22 23  2  0  0  0
 23 24  1  0  0  0
 15 25  2  0  0  0
 10 11  1  0  0  0
 11 12  2  0  0  0
 12 13  1  0  0  0
 13 14  1  0  0  0
 31 32  1  0  0  0
 32 33  2  0  0  0
 32 34  1  0  0  0
 34 36  1  0  0  0
 36 37  1  0  0  0
 37 38  1  0  0  0
 38 39  1  0  0  0
 39 40  1  0  0  0
 40 41  1  0  0  0
 41 42  1  0  0  0
 41 43  1  0  0  0
 37 44  1  0  0  0
 44 45  1  0  0  0
 45 46  1  0  0  0
 46 47  2  0  0  0
 30 26  1  0  0  0
 14  4  1  0  0  0
 42 36  1  0  0  0
 12  6  1  0  0  0
 46 36  1  0  0  0
 24 16  1  0  0  0
 43 39  1  0  0  0
 23 18  1  0  0  0
 34 35  1  0  0  0
M  END
> <minimizedAffinity>
-9.38299

> <CNNscore>
0.2356203645

> <CNNaffinity>
6.8062133789

> <CNN_VS>
1.6036825180

> <CNNaffinity_variance>
0.1714942753

$$$$
[H]c1c([H])c([H])c2c(c1[H])C([H])([H])N(C(=O)c1c([H])c3c(c([H])c1Cl)C([H])([H])N(C(=O)[C@@]([H])(N1C([H])([H])C([H])([H])C([H])([H])C1([H])[H])[C@@]([H])(OC([H])([H])[H])C(=O)N([H])C14C(=O)C([H])([H])C([H])([H])N1C([H])([H])C1([H])C([H])([H])C([H])(C4([H])[H])C1([H])[H])C([H])([H])C3([H])[H])C2([H])[H]


 49 56  0  0  0  0  0  0  0  0999 V2000
    6.3147    9.7312   20.3290 C   0  0  0  0  0  0  0  0  0  0  0  0
    6.1289    8.3697   20.9601 C   0  0  0  0  0  0  0  0  0  0  0  0
    5.5114    8.2659   22.0492 O   0  0  0  0  0  0  0  0  0  0  0  0
    6.6139    7.1958   20.3971 N   0  0  0  0  0  0  0  0  0  0  0  0
    6.3574    5.9120   21.0581 C   0  0  0  0  0  0  0  0  0  0  0  0
    5.7932    4.9251   20.0999 C   0  0  0  0  0  0  0  0  0  0  0  0
    5.0471    3.8672   20.5860 C   0  0  0  0  0  0  0  0  0  0  0  0
    4.5086    2.9326   19.7496 C   0  0  0  0  0  0  0  0  0  0  0  0
    3.5667    1.6023   20.3974 Cl  0  0  0  0  0  0  0  0  0  0  0  0
    4.7402    3.0868   18.3881 C   0  0  0  0  0  0  0  0  0  0  0  0
    5.4962    4.1604   17.9052 C   0  0  0  0  0  0  0  0  0  0  0  0
    6.0328    5.0956   18.7653 C   0  0  0  0  0  0  0  0  0  0  0  0
    6.8134    6.1939   18.1677 C   0  0  0  0  0  0  0  0  0  0  0  0
    7.3917    7.1364   19.2021 C   0  0  0  0  0  0  0  0  0  0  0  0
    4.1716    2.0956   17.4942 C   0  0  0  0  0  0  0  0  0  0  0  0
    3.1586    2.4054   16.5561 N   0  0  0  0  0  0  0  0  0  0  0  0
    2.4866    1.5515   15.6026 C   0  0  0  0  0  0  0  0  0  0  0  0
    2.3993    2.4685   14.4257 C   0  0  0  0  0  0  0  0  0  0  0  0
    2.2938    2.2177   13.0766 C   0  0  0  0  0  0  0  0  0  0  0  0
    2.2305    3.2793   12.1753 C   0  0  0  0  0  0  0  0  0  0  0  0
    2.2748    4.5712   12.6497 C   0  0  0  0  0  0  0  0  0  0  0  0
    2.3799    4.8428   13.9940 C   0  0  0  0  0  0  0  0  0  0  0  0
    2.4415    3.7800   14.8735 C   0  0  0  0  0  0  0  0  0  0  0  0
    2.5534    3.7281   16.3474 C   0  0  0  0  0  0  0  0  0  0  0  0
    4.5947    0.9194   17.5562 O   0  0  0  0  0  0  0  0  0  0  0  0
    5.1408   10.1663   19.7932 N   0  0  0  0  0  0  0  0  0  0  0  0
    4.6205   11.4483   19.7085 C   0  0  0  0  0  0  0  0  0  0  0  0
    3.6358   11.3827   18.4963 C   0  0  0  0  0  0  0  0  0  0  0  0
    3.0409   10.0153   18.7203 C   0  0  0  0  0  0  0  0  0  0  0  0
    4.0757    9.2334   19.5085 C   0  0  0  0  0  0  0  0  0  0  0  0
    7.2598   10.6070   21.0639 C   0  0  0  0  0  0  0  0  0  0  0  0
    8.4802    9.8116   21.5085 C   0  0  0  0  0  0  0  0  0  0  0  0
    9.4885    9.6643   20.8062 O   0  0  0  0  0  0  0  0  0  0  0  0
    8.5196    9.1783   22.7952 N   0  0  0  0  0  0  0  0  0  0  0  0
    7.6797    9.2877   23.3894 H   0  0  0  0  0  0  0  0  0  0  0  0
    9.6482    8.4154   23.2700 C   0  0  0  0  0  0  0  0  0  0  0  0
    9.1991    7.4177   24.1786 N   0  0  0  0  0  0  0  0  0  0  0  0
   10.2757    6.6537   24.7809 C   0  0  0  0  0  0  0  0  0  0  0  0
   10.7441    5.5306   23.9002 C   0  0  0  0  0  0  0  0  0  0  0  0
   11.8636    6.0890   23.0420 C   0  0  0  0  0  0  0  0  0  0  0  0
   10.8076    6.5097   22.0570 C   0  0  0  0  0  0  0  0  0  0  0  0
   10.4337    7.9341   22.1082 C   0  0  0  0  0  0  0  0  0  0  0  0
    9.8618    5.5368   22.6670 C   0  0  0  0  0  0  0  0  0  0  0  0
    8.6272    8.2059   25.2543 C   0  0  0  0  0  0  0  0  0  0  0  0
    9.6436    9.3291   25.4405 C   0  0  0  0  0  0  0  0  0  0  0  0
   10.4300    9.3083   24.1796 C   0  0  0  0  0  0  0  0  0  0  0  0
   11.4578    9.8634   23.9118 O   0  0  0  0  0  0  0  0  0  0  0  0
    7.5405   11.8998   22.9796 C   0  0  0  0  0  0  0  0  0  0  0  0
    6.7087   11.0058   22.3131 O   0  0  0  0  0  0  0  0  0  0  0  0
 48 49  1  0  0  0
 49 31  1  0  0  0
 31  1  1  0  0  0
  1 26  1  0  0  0
 26 27  1  0  0  0
 27 28  1  0  0  0
 28 29  1  0  0  0
 29 30  1  0  0  0
  1  2  1  0  0  0
  2  3  2  0  0  0
  2  4  1  0  0  0
  4  5  1  0  0  0
  5  6  1  0  0  0
  6  7  2  0  0  0
  7  8  1  0  0  0
  8  9  1  0  0  0
  8 10  2  0  0  0
 10 15  1  0  0  0
 15 16  1  0  0  0
 16 17  1  0  0  0
 17 18  1  0  0  0
 18 19  2  0  0  0
 19 20  1  0  0  0
 20 21  2  0  0  0
 21 22  1  0  0  0
 22 23  2  0  0  0
 23 24  1  0  0  0
 15 25  2  0  0  0
 10 11  1  0  0  0
 11 12  2  0  0  0
 12 13  1  0  0  0
 13 14  1  0  0  0
 31 32  1  0  0  0
 32 33  2  0  0  0
 32 34  1  0  0  0
 34 36  1  0  0  0
 36 37  1  0  0  0
 37 38  1  0  0  0
 38 39  1  0  0  0
 39 40  1  0  0  0
 40 41  1  0  0  0
 41 42  1  0  0  0
 41 43  1  0  0  0
 37 44  1  0  0  0
 44 45  1  0  0  0
 45 46  1  0  0  0
 46 47  2  0  0  0
 30 26  1  0  0  0
 14  4  1  0  0  0
 42 36  1  0  0  0
 12  6  1  0  0  0
 46 36  1  0  0  0
 24 16  1  0  0  0
 43 39  1  0  0  0
 23 18  1  0  0  0
 34 35  1  0  0  0
M  END
> <minimizedAffinity>
-10.33917

> <CNNscore>
0.1911586374

> <CNNaffinity>
6.8392663002

> <CNN_VS>
1.3073848486

> <CNNaffinity_variance>
0.1216613278

$$$$
[H]c1c([H])c([H])c2c(c1[H])C([H])([H])N(C(=O)c1c([H])c3c(c([H])c1Cl)C([H])([H])N(C(=O)[C@@]([H])(N1C([H])([H])C([H])([H])C([H])([H])C1([H])[H])[C@@]([H])(OC([H])([H])[H])C(=O)N([H])C14C(=O)C([H])([H])C([H])([H])N1C([H])([H])C1([H])C([H])([H])C([H])(C4([H])[H])C1([H])[H])C([H])([H])C3([H])[H])C2([H])[H]


 49 56  0  0  0  0  0  0  0  0999 V2000
    2.5335    3.4545    9.9243 C   0  0  0  0  0  0  0  0  0  0  0  0
    2.4657    2.6547   11.2057 C   0  0  0  0  0  0  0  0  0  0  0  0
    2.6463    1.4119   11.1759 O   0  0  0  0  0  0  0  0  0  0  0  0
    2.2064    3.2235   12.4465 N   0  0  0  0  0  0  0  0  0  0  0  0
    2.1943    2.3789   13.6456 C   0  0  0  0  0  0  0  0  0  0  0  0
    3.0578    2.9557   14.7096 C   0  0  0  0  0  0  0  0  0  0  0  0
    3.5677    2.1213   15.6873 C   0  0  0  0  0  0  0  0  0  0  0  0
    4.3635    2.6001   16.6874 C   0  0  0  0  0  0  0  0  0  0  0  0
    4.9948    1.5156   17.9128 Cl  0  0  0  0  0  0  0  0  0  0  0  0
    4.6417    3.9616   16.6839 C   0  0  0  0  0  0  0  0  0  0  0  0
    4.1217    4.7984   15.6905 C   0  0  0  0  0  0  0  0  0  0  0  0
    3.3190    4.2969   14.6873 C   0  0  0  0  0  0  0  0  0  0  0  0
    2.8178    5.2515   13.6823 C   0  0  0  0  0  0  0  0  0  0  0  0
    1.9131    4.6045   12.6547 C   0  0  0  0  0  0  0  0  0  0  0  0
    5.4860    4.4767   17.7453 C   0  0  0  0  0  0  0  0  0  0  0  0
    5.1054    4.4435   19.1077 N   0  0  0  0  0  0  0  0  0  0  0  0
    5.8139    4.9082   20.2791 C   0  0  0  0  0  0  0  0  0  0  0  0
    5.4927    3.8153   21.2465 C   0  0  0  0  0  0  0  0  0  0  0  0
    6.1493    3.3657   22.3693 C   0  0  0  0  0  0  0  0  0  0  0  0
    5.6215    2.3057   23.1052 C   0  0  0  0  0  0  0  0  0  0  0  0
    4.4444    1.7200   22.6962 C   0  0  0  0  0  0  0  0  0  0  0  0
    3.7730    2.1548   21.5772 C   0  0  0  0  0  0  0  0  0  0  0  0
    4.3092    3.2057   20.8594 C   0  0  0  0  0  0  0  0  0  0  0  0
    3.8474    3.8993   19.6374 C   0  0  0  0  0  0  0  0  0  0  0  0
    6.5956    4.9702   17.4426 O   0  0  0  0  0  0  0  0  0  0  0  0
    3.8157    3.5065    9.4687 N   0  0  0  0  0  0  0  0  0  0  0  0
    4.4739    2.6891    8.5631 C   0  0  0  0  0  0  0  0  0  0  0  0
    5.6238    3.5869    8.0020 C   0  0  0  0  0  0  0  0  0  0  0  0
    6.0302    4.3050    9.2641 C   0  0  0  0  0  0  0  0  0  0  0  0
    4.8090    4.2903   10.1651 C   0  0  0  0  0  0  0  0  0  0  0  0
    1.3530    3.2750    9.0442 C   0  0  0  0  0  0  0  0  0  0  0  0
    1.1239    4.5261    8.2062 C   0  0  0  0  0  0  0  0  0  0  0  0
    0.4081    4.5467    7.1969 O   0  0  0  0  0  0  0  0  0  0  0  0
    1.7439    5.7718    8.5554 N   0  0  0  0  0  0  0  0  0  0  0  0
    2.3510    5.7664    9.3932 H   0  0  0  0  0  0  0  0  0  0  0  0
    1.5613    6.9880    7.8013 C   0  0  0  0  0  0  0  0  0  0  0  0
    2.1692    6.8504    6.5229 N   0  0  0  0  0  0  0  0  0  0  0  0
    2.1155    8.0586    5.7212 C   0  0  0  0  0  0  0  0  0  0  0  0
    0.8081    8.2088    4.9973 C   0  0  0  0  0  0  0  0  0  0  0  0
   -0.1096    8.9939    5.9155 C   0  0  0  0  0  0  0  0  0  0  0  0
   -0.5190    7.6788    6.5198 C   0  0  0  0  0  0  0  0  0  0  0  0
    0.1239    7.3516    7.8047 C   0  0  0  0  0  0  0  0  0  0  0  0
   -0.0159    6.9747    5.3098 C   0  0  0  0  0  0  0  0  0  0  0  0
    3.5685    6.6632    6.8582 C   0  0  0  0  0  0  0  0  0  0  0  0
    3.8027    7.6929    7.9600 C   0  0  0  0  0  0  0  0  0  0  0  0
    2.4329    8.0285    8.4287 C   0  0  0  0  0  0  0  0  0  0  0  0
    2.0673    8.9181    9.1438 O   0  0  0  0  0  0  0  0  0  0  0  0
   -0.6677    2.1774    9.4073 C   0  0  0  0  0  0  0  0  0  0  0  0
    0.1565    3.2227    9.8115 O   0  0  0  0  0  0  0  0  0  0  0  0
 48 49  1  0  0  0
 49 31  1  0  0  0
 31  1  1  0  0  0
  1 26  1  0  0  0
 26 27  1  0  0  0
 27 28  1  0  0  0
 28 29  1  0  0  0
 29 30  1  0  0  0
  1  2  1  0  0  0
  2  3  2  0  0  0
  2  4  1  0  0  0
  4  5  1  0  0  0
  5  6  1  0  0  0
  6  7  2  0  0  0
  7  8  1  0  0  0
  8  9  1  0  0  0
  8 10  2  0  0  0
 10 15  1  0  0  0
 15 16  1  0  0  0
 16 17  1  0  0  0
 17 18  1  0  0  0
 18 19  2  0  0  0
 19 20  1  0  0  0
 20 21  2  0  0  0
 21 22  1  0  0  0
 22 23  2  0  0  0
 23 24  1  0  0  0
 15 25  2  0  0  0
 10 11  1  0  0  0
 11 12  2  0  0  0
 12 13  1  0  0  0
 13 14  1  0  0  0
 31 32  1  0  0  0
 32 33  2  0  0  0
 32 34  1  0  0  0
 34 36  1  0  0  0
 36 37  1  0  0  0
 37 38  1  0  0  0
 38 39  1  0  0  0
 39 40  1  0  0  0
 40 41  1  0  0  0
 41 42  1  0  0  0
 41 43  1  0  0  0
 37 44  1  0  0  0
 44 45  1  0  0  0
 45 46  1  0  0  0
 46 47  2  0  0  0
 30 26  1  0  0  0
 14  4  1  0  0  0
 42 36  1  0  0  0
 12  6  1  0  0  0
 46 36  1  0  0  0
 24 16  1  0  0  0
 43 39  1  0  0  0
 23 18  1  0  0  0
 34 35  1  0  0  0
M  END
> <minimizedAffinity>
-8.39370

> <CNNscore>
0.1440657824

> <CNNaffinity>
6.4553270340

> <CNN_VS>
0.9299917221

> <CNNaffinity_variance>
0.3436960280

$$$$
[H]c1c([H])c([H])c2c(c1[H])C([H])([H])N(C(=O)c1c([H])c3c(c([H])c1Cl)C([H])([H])N(C(=O)[C@@]([H])(N1C([H])([H])C([H])([H])C([H])([H])C1([H])[H])[C@@]([H])(OC([H])([H])[H])C(=O)N([H])C14C(=O)C([H])([H])C([H])([H])N1C([H])([H])C1([H])C([H])([H])C([H])(C4([H])[H])C1([H])[H])C([H])([H])C3([H])[H])C2([H])[H]


 49 56  0  0  0  0  0  0  0  0999 V2000
    1.7909    4.2115   10.1033 C   0  0  0  0  0  0  0  0  0  0  0  0
    1.8476    3.2980   11.3068 C   0  0  0  0  0  0  0  0  0  0  0  0
    2.0413    2.0670   11.1474 O   0  0  0  0  0  0  0  0  0  0  0  0
    1.6916    3.7467   12.6125 N   0  0  0  0  0  0  0  0  0  0  0  0
    1.7970    2.7973   13.7254 C   0  0  0  0  0  0  0  0  0  0  0  0
    2.7436    3.2939   14.7587 C   0  0  0  0  0  0  0  0  0  0  0  0
    3.3491    2.3856   15.6076 C   0  0  0  0  0  0  0  0  0  0  0  0
    4.2239    2.7889   16.5744 C   0  0  0  0  0  0  0  0  0  0  0  0
    4.9756    1.6119   17.6355 Cl  0  0  0  0  0  0  0  0  0  0  0  0
    4.4826    4.1509   16.6718 C   0  0  0  0  0  0  0  0  0  0  0  0
    3.8656    5.0627   15.8084 C   0  0  0  0  0  0  0  0  0  0  0  0
    2.9840    4.6368   14.8371 C   0  0  0  0  0  0  0  0  0  0  0  0
    2.3831    5.6674   13.9713 C   0  0  0  0  0  0  0  0  0  0  0  0
    1.3996    5.0967   12.9713 C   0  0  0  0  0  0  0  0  0  0  0  0
    5.4107    4.5859   17.6985 C   0  0  0  0  0  0  0  0  0  0  0  0
    5.1039    4.5290   19.0786 N   0  0  0  0  0  0  0  0  0  0  0  0
    5.8999    4.9174   20.2213 C   0  0  0  0  0  0  0  0  0  0  0  0
    5.5727    3.8124   21.1729 C   0  0  0  0  0  0  0  0  0  0  0  0
    6.2640    3.2926   22.2433 C   0  0  0  0  0  0  0  0  0  0  0  0
    5.7199    2.2390   22.9764 C   0  0  0  0  0  0  0  0  0  0  0  0
    4.4919    1.7302   22.6175 C   0  0  0  0  0  0  0  0  0  0  0  0
    3.7851    2.2358   21.5513 C   0  0  0  0  0  0  0  0  0  0  0  0
    4.3381    3.2794   20.8355 C   0  0  0  0  0  0  0  0  0  0  0  0
    3.8489    4.0356   19.6623 C   0  0  0  0  0  0  0  0  0  0  0  0
    6.5275    5.0292   17.3483 O   0  0  0  0  0  0  0  0  0  0  0  0
    2.9643    4.8899    9.9712 N   0  0  0  0  0  0  0  0  0  0  0  0
    3.2156    6.2525   10.0111 C   0  0  0  0  0  0  0  0  0  0  0  0
    4.7188    6.3528   10.4276 C   0  0  0  0  0  0  0  0  0  0  0  0
    5.2832    5.1986    9.6383 C   0  0  0  0  0  0  0  0  0  0  0  0
    4.1288    4.2381    9.4190 C   0  0  0  0  0  0  0  0  0  0  0  0
    1.0317    3.6482    8.9601 C   0  0  0  0  0  0  0  0  0  0  0  0
    1.0007    4.6416    7.8060 C   0  0  0  0  0  0  0  0  0  0  0  0
    1.5329    4.4267    6.7095 O   0  0  0  0  0  0  0  0  0  0  0  0
    0.3369    5.9065    7.9388 N   0  0  0  0  0  0  0  0  0  0  0  0
   -0.1058    6.1016    8.8532 H   0  0  0  0  0  0  0  0  0  0  0  0
    0.2732    6.8843    6.8800 C   0  0  0  0  0  0  0  0  0  0  0  0
   -0.4168    8.0394    7.3407 N   0  0  0  0  0  0  0  0  0  0  0  0
   -0.6106    9.0477    6.3153 C   0  0  0  0  0  0  0  0  0  0  0  0
    0.5929    9.9301    6.1443 C   0  0  0  0  0  0  0  0  0  0  0  0
    1.4621    9.2793    5.0848 C   0  0  0  0  0  0  0  0  0  0  0  0
    2.1106    8.4968    6.1936 C   0  0  0  0  0  0  0  0  0  0  0  0
    1.6367    7.1096    6.3428 C   0  0  0  0  0  0  0  0  0  0  0  0
    1.6126    9.4944    7.1786 C   0  0  0  0  0  0  0  0  0  0  0  0
   -1.7391    7.5197    7.6354 C   0  0  0  0  0  0  0  0  0  0  0  0
   -2.0248    6.6034    6.4487 C   0  0  0  0  0  0  0  0  0  0  0  0
   -0.6834    6.3614    5.8566 C   0  0  0  0  0  0  0  0  0  0  0  0
   -0.3912    5.8654    4.8054 O   0  0  0  0  0  0  0  0  0  0  0  0
   -0.9765    2.5572    8.5172 C   0  0  0  0  0  0  0  0  0  0  0  0
   -0.3500    3.5383    9.2790 O   0  0  0  0  0  0  0  0  0  0  0  0
 48 49  1  0  0  0
 49 31  1  0  0  0
 31  1  1  0  0  0
  1 26  1  0  0  0
 26 27  1  0  0  0
 27 28  1  0  0  0
 28 29  1  0  0  0
 29 30  1  0  0  0
  1  2  1  0  0  0
  2  3  2  0  0  0
  2  4  1  0  0  0
  4  5  1  0  0  0
  5  6  1  0  0  0
  6  7  2  0  0  0
  7  8  1  0  0  0
  8  9  1  0  0  0
  8 10  2  0  0  0
 10 15  1  0  0  0
 15 16  1  0  0  0
 16 17  1  0  0  0
 17 18  1  0  0  0
 18 19  2  0  0  0
 19 20  1  0  0  0
 20 21  2  0  0  0
 21 22  1  0  0  0
 22 23  2  0  0  0
 23 24  1  0  0  0
 15 25  2  0  0  0
 10 11  1  0  0  0
 11 12  2  0  0  0
 12 13  1  0  0  0
 13 14  1  0  0  0
 31 32  1  0  0  0
 32 33  2  0  0  0
 32 34  1  0  0  0
 34 36  1  0  0  0
 36 37  1  0  0  0
 37 38  1  0  0  0
 38 39  1  0  0  0
 39 40  1  0  0  0
 40 41  1  0  0  0
 41 42  1  0  0  0
 41 43  1  0  0  0
 37 44  1  0  0  0
 44 45  1  0  0  0
 45 46  1  0  0  0
 46 47  2  0  0  0
 30 26  1  0  0  0
 14  4  1  0  0  0
 42 36  1  0  0  0
 12  6  1  0  0  0
 46 36  1  0  0  0
 24 16  1  0  0  0
 43 39  1  0  0  0
 23 18  1  0  0  0
 34 35  1  0  0  0
M  END
> <minimizedAffinity>
-8.31241

> <CNNscore>
0.1405748725

> <CNNaffinity>
6.3696665764

> <CNN_VS>
0.8954150677

> <CNNaffinity_variance>
0.3509664536

$$$$
[H]c1c([H])c([H])c2c(c1[H])C([H])([H])N(C(=O)c1c([H])c3c(c([H])c1Cl)C([H])([H])N(C(=O)[C@@]([H])(N1C([H])([H])C([H])([H])C([H])([H])C1([H])[H])[C@@]([H])(OC([H])([H])[H])C(=O)N([H])C14C(=O)C([H])([H])C([H])([H])N1C([H])([H])C1([H])C([H])([H])C([H])(C4([H])[H])C1([H])[H])C([H])([H])C3([H])[H])C2([H])[H]


 49 56  0  0  0  0  0  0  0  0999 V2000
    2.6424    7.4070    8.8177 C   0  0  0  0  0  0  0  0  0  0  0  0
    2.6851    7.6654   10.3069 C   0  0  0  0  0  0  0  0  0  0  0  0
    1.8965    8.4988   10.8184 O   0  0  0  0  0  0  0  0  0  0  0  0
    3.5674    7.0235   11.1671 N   0  0  0  0  0  0  0  0  0  0  0  0
    3.5170    7.3070   12.6052 C   0  0  0  0  0  0  0  0  0  0  0  0
    3.4479    6.0475   13.3921 C   0  0  0  0  0  0  0  0  0  0  0  0
    2.9155    6.0805   14.6679 C   0  0  0  0  0  0  0  0  0  0  0  0
    2.8309    4.9535   15.4331 C   0  0  0  0  0  0  0  0  0  0  0  0
    2.1500    5.0284   17.0478 Cl  0  0  0  0  0  0  0  0  0  0  0  0
    3.3016    3.7696   14.8781 C   0  0  0  0  0  0  0  0  0  0  0  0
    3.8386    3.7455   13.5864 C   0  0  0  0  0  0  0  0  0  0  0  0
    3.9161    4.8945   12.8275 C   0  0  0  0  0  0  0  0  0  0  0  0
    4.4945    4.7745   11.4770 C   0  0  0  0  0  0  0  0  0  0  0  0
    4.5721    6.1001   10.7493 C   0  0  0  0  0  0  0  0  0  0  0  0
    3.2156    2.5685   15.6873 C   0  0  0  0  0  0  0  0  0  0  0  0
    4.0565    2.3366   16.8014 N   0  0  0  0  0  0  0  0  0  0  0  0
    4.1075    1.2092   17.7048 C   0  0  0  0  0  0  0  0  0  0  0  0
    4.3325    1.9091   19.0059 C   0  0  0  0  0  0  0  0  0  0  0  0
    4.0532    1.5415   20.3024 C   0  0  0  0  0  0  0  0  0  0  0  0
    4.3720    2.4014   21.3524 C   0  0  0  0  0  0  0  0  0  0  0  0
    4.9649    3.6130   21.0765 C   0  0  0  0  0  0  0  0  0  0  0  0
    5.2523    3.9987   19.7879 C   0  0  0  0  0  0  0  0  0  0  0  0
    4.9302    3.1355   18.7592 C   0  0  0  0  0  0  0  0  0  0  0  0
    5.1026    3.2433   17.2942 C   0  0  0  0  0  0  0  0  0  0  0  0
    2.3628    1.7030   15.3869 O   0  0  0  0  0  0  0  0  0  0  0  0
    1.7833    6.3874    8.5409 N   0  0  0  0  0  0  0  0  0  0  0  0
    0.5403    6.0973    9.0814 C   0  0  0  0  0  0  0  0  0  0  0  0
   -0.1725    5.2562    7.9735 C   0  0  0  0  0  0  0  0  0  0  0  0
    0.9895    4.4236    7.4935 C   0  0  0  0  0  0  0  0  0  0  0  0
    2.2384    5.2218    7.8196 C   0  0  0  0  0  0  0  0  0  0  0  0
    2.7558    8.6355    7.9941 C   0  0  0  0  0  0  0  0  0  0  0  0
    1.4945    8.8326    7.1634 C   0  0  0  0  0  0  0  0  0  0  0  0
    0.6272    9.6733    7.4330 O   0  0  0  0  0  0  0  0  0  0  0  0
    1.2449    8.0317    5.9995 N   0  0  0  0  0  0  0  0  0  0  0  0
    1.9588    7.3199    5.7673 H   0  0  0  0  0  0  0  0  0  0  0  0
    0.0704    8.1755    5.1742 C   0  0  0  0  0  0  0  0  0  0  0  0
    0.0296    7.1233    4.2182 N   0  0  0  0  0  0  0  0  0  0  0  0
   -1.0727    7.2327    3.2808 C   0  0  0  0  0  0  0  0  0  0  0  0
   -2.3531    6.6754    3.8339 C   0  0  0  0  0  0  0  0  0  0  0  0
   -3.0643    7.8236    4.5250 C   0  0  0  0  0  0  0  0  0  0  0  0
   -2.2943    7.4648    5.7662 C   0  0  0  0  0  0  0  0  0  0  0  0
   -1.1221    8.3133    6.0444 C   0  0  0  0  0  0  0  0  0  0  0  0
   -2.0354    6.1115    5.2052 C   0  0  0  0  0  0  0  0  0  0  0  0
    1.2317    7.3578    3.4402 C   0  0  0  0  0  0  0  0  0  0  0  0
    1.2306    8.8717    3.2467 C   0  0  0  0  0  0  0  0  0  0  0  0
    0.2959    9.3623    4.2929 C   0  0  0  0  0  0  0  0  0  0  0  0
   -0.1892   10.4489    4.4343 O   0  0  0  0  0  0  0  0  0  0  0  0
    4.9925    8.1946    7.5227 C   0  0  0  0  0  0  0  0  0  0  0  0
    3.7416    8.4735    6.9817 O   0  0  0  0  0  0  0  0  0  0  0  0
 48 49  1  0  0  0
 49 31  1  0  0  0
 31  1  1  0  0  0
  1 26  1  0  0  0
 26 27  1  0  0  0
 27 28  1  0  0  0
 28 29  1  0  0  0
 29 30  1  0  0  0
  1  2  1  0  0  0
  2  3  2  0  0  0
  2  4  1  0  0  0
  4  5  1  0  0  0
  5  6  1  0  0  0
  6  7  2  0  0  0
  7  8  1  0  0  0
  8  9  1  0  0  0
  8 10  2  0  0  0
 10 15  1  0  0  0
 15 16  1  0  0  0
 16 17  1  0  0  0
 17 18  1  0  0  0
 18 19  2  0  0  0
 19 20  1  0  0  0
 20 21  2  0  0  0
 21 22  1  0  0  0
 22 23  2  0  0  0
 23 24  1  0  0  0
 15 25  2  0  0  0
 10 11  1  0  0  0
 11 12  2  0  0  0
 12 13  1  0  0  0
 13 14  1  0  0  0
 31 32  1  0  0  0
 32 33  2  0  0  0
 32 34  1  0  0  0
 34 36  1  0  0  0
 36 37  1  0  0  0
 37 38  1  0  0  0
 38 39  1  0  0  0
 39 40  1  0  0  0
 40 41  1  0  0  0
 41 42  1  0  0  0
 41 43  1  0  0  0
 37 44  1  0  0  0
 44 45  1  0  0  0
 45 46  1  0  0  0
 46 47  2  0  0  0
 30 26  1  0  0  0
 14  4  1  0  0  0
 42 36  1  0  0  0
 12  6  1  0  0  0
 46 36  1  0  0  0
 24 16  1  0  0  0
 43 39  1  0  0  0
 23 18  1  0  0  0
 34 35  1  0  0  0
M  END
> <minimizedAffinity>
-8.76745

> <CNNscore>
0.1295703501

> <CNNaffinity>
5.9409856796

> <CNN_VS>
0.7697755694

> <CNNaffinity_variance>
0.4937570989

$$$$
[H]c1c([H])c([H])c2c(c1[H])C([H])([H])N(C(=O)c1c([H])c3c(c([H])c1Cl)C([H])([H])N(C(=O)[C@@]([H])(N1C([H])([H])C([H])([H])C([H])([H])C1([H])[H])[C@@]([H])(OC([H])([H])[H])C(=O)N([H])C14C(=O)C([H])([H])C([H])([H])N1C([H])([H])C1([H])C([H])([H])C([H])(C4([H])[H])C1([H])[H])C([H])([H])C3([H])[H])C2([H])[H]


 49 56  0  0  0  0  0  0  0  0999 V2000
    5.9543    7.0622   19.3006 C   0  0  0  0  0  0  0  0  0  0  0  0
    4.5776    6.7678   18.7488 C   0  0  0  0  0  0  0  0  0  0  0  0
    3.6798    7.6442   18.8112 O   0  0  0  0  0  0  0  0  0  0  0  0
    4.2340    5.5551   18.1642 N   0  0  0  0  0  0  0  0  0  0  0  0
    2.8848    5.3658   17.6212 C   0  0  0  0  0  0  0  0  0  0  0  0
    2.9410    4.8463   16.2293 C   0  0  0  0  0  0  0  0  0  0  0  0
    1.8629    5.0567   15.3893 C   0  0  0  0  0  0  0  0  0  0  0  0
    1.8626    4.5989   14.1035 C   0  0  0  0  0  0  0  0  0  0  0  0
    0.4795    4.8823   13.0629 Cl  0  0  0  0  0  0  0  0  0  0  0  0
    2.9908    3.9121   13.6713 C   0  0  0  0  0  0  0  0  0  0  0  0
    4.0771    3.7040   14.5281 C   0  0  0  0  0  0  0  0  0  0  0  0
    4.0598    4.1739   15.8247 C   0  0  0  0  0  0  0  0  0  0  0  0
    5.2490    3.9103   16.6548 C   0  0  0  0  0  0  0  0  0  0  0  0
    5.1066    4.4298   18.0699 C   0  0  0  0  0  0  0  0  0  0  0  0
    2.9958    3.4218   12.3059 C   0  0  0  0  0  0  0  0  0  0  0  0
    3.5477    4.1595   11.2319 N   0  0  0  0  0  0  0  0  0  0  0  0
    3.6345    3.8270    9.8277 C   0  0  0  0  0  0  0  0  0  0  0  0
    5.0013    4.3398    9.5075 C   0  0  0  0  0  0  0  0  0  0  0  0
    5.9017    3.9927    8.5262 C   0  0  0  0  0  0  0  0  0  0  0  0
    7.1330    4.6421    8.4518 C   0  0  0  0  0  0  0  0  0  0  0  0
    7.4331    5.6270    9.3660 C   0  0  0  0  0  0  0  0  0  0  0  0
    6.5470    5.9885   10.3539 C   0  0  0  0  0  0  0  0  0  0  0  0
    5.3317    5.3355   10.4139 C   0  0  0  0  0  0  0  0  0  0  0  0
    4.1804    5.4820   11.3308 C   0  0  0  0  0  0  0  0  0  0  0  0
    2.4913    2.3011   12.0694 O   0  0  0  0  0  0  0  0  0  0  0  0
    6.5584    8.0359   18.5647 N   0  0  0  0  0  0  0  0  0  0  0  0
    6.6999    8.1569   17.1912 C   0  0  0  0  0  0  0  0  0  0  0  0
    6.8845    9.6915   16.9588 C   0  0  0  0  0  0  0  0  0  0  0  0
    7.7550   10.0293   18.1429 C   0  0  0  0  0  0  0  0  0  0  0  0
    7.4655    8.9697   19.1901 C   0  0  0  0  0  0  0  0  0  0  0  0
    6.0369    6.9760   20.7791 C   0  0  0  0  0  0  0  0  0  0  0  0
    6.0731    5.5192   21.2220 C   0  0  0  0  0  0  0  0  0  0  0  0
    7.1207    4.9123   21.4783 O   0  0  0  0  0  0  0  0  0  0  0  0
    4.8633    4.7614   21.3658 N   0  0  0  0  0  0  0  0  0  0  0  0
    3.9808    5.2551   21.1474 H   0  0  0  0  0  0  0  0  0  0  0  0
    4.8365    3.3810   21.7839 C   0  0  0  0  0  0  0  0  0  0  0  0
    3.4886    2.9341   21.8619 N   0  0  0  0  0  0  0  0  0  0  0  0
    3.3542    1.5786   22.3620 C   0  0  0  0  0  0  0  0  0  0  0  0
    3.5519    0.5485   21.2869 C   0  0  0  0  0  0  0  0  0  0  0  0
    5.0298    0.2061   21.2793 C   0  0  0  0  0  0  0  0  0  0  0  0
    5.2199    1.3451   20.3157 C   0  0  0  0  0  0  0  0  0  0  0  0
    5.7367    2.5904   20.9103 C   0  0  0  0  0  0  0  0  0  0  0  0
    3.7695    1.2998   19.9878 C   0  0  0  0  0  0  0  0  0  0  0  0
    2.9322    3.7902   22.8929 C   0  0  0  0  0  0  0  0  0  0  0  0
    4.0296    3.8157   23.9532 C   0  0  0  0  0  0  0  0  0  0  0  0
    5.2382    3.3506   23.2239 C   0  0  0  0  0  0  0  0  0  0  0  0
    6.3071    3.0180   23.6518 O   0  0  0  0  0  0  0  0  0  0  0  0
    4.9448    8.7272   21.8564 C   0  0  0  0  0  0  0  0  0  0  0  0
    4.8278    7.4261   21.3779 O   0  0  0  0  0  0  0  0  0  0  0  0
 48 49  1  0  0  0
 49 31  1  0  0  0
 31  1  1  0  0  0
  1 26  1  0  0  0
 26 27  1  0  0  0
 27 28  1  0  0  0
 28 29  1  0  0  0
 29 30  1  0  0  0
  1  2  1  0  0  0
  2  3  2  0  0  0
  2  4  1  0  0  0
  4  5  1  0  0  0
  5  6  1  0  0  0
  6  7  2  0  0  0
  7  8  1  0  0  0
  8  9  1  0  0  0
  8 10  2  0  0  0
 10 15  1  0  0  0
 15 16  1  0  0  0
 16 17  1  0  0  0
 17 18  1  0  0  0
 18 19  2  0  0  0
 19 20  1  0  0  0
 20 21  2  0  0  0
 21 22  1  0  0  0
 22 23  2  0  0  0
 23 24  1  0  0  0
 15 25  2  0  0  0
 10 11  1  0  0  0
 11 12  2  0  0  0
 12 13  1  0  0  0
 13 14  1  0  0  0
 31 32  1  0  0  0
 32 33  2  0  0  0
 32 34  1  0  0  0
 34 36  1  0  0  0
 36 37  1  0  0  0
 37 38  1  0  0  0
 38 39  1  0  0  0
 39 40  1  0  0  0
 40 41  1  0  0  0
 41 42  1  0  0  0
 41 43  1  0  0  0
 37 44  1  0  0  0
 44 45  1  0  0  0
 45 46  1  0  0  0
 46 47  2  0  0  0
 30 26  1  0  0  0
 14  4  1  0  0  0
 42 36  1  0  0  0
 12  6  1  0  0  0
 46 36  1  0  0  0
 24 16  1  0  0  0
 43 39  1  0  0  0
 23 18  1  0  0  0
 34 35  1  0  0  0
M  END
> <minimizedAffinity>
-9.23007

> <CNNscore>
0.1240050942

> <CNNaffinity>
6.8245253563

> <CNN_VS>
0.8462759256

> <CNNaffinity_variance>
0.4085182250

$$$$
[H]c1c([H])c([H])c2c(c1[H])C([H])([H])N(C(=O)c1c([H])c3c(c([H])c1Cl)C([H])([H])N(C(=O)[C@@]([H])(N1C([H])([H])C([H])([H])C([H])([H])C1([H])[H])[C@@]([H])(OC([H])([H])[H])C(=O)N([H])C14C(=O)C([H])([H])C([H])([H])N1C([H])([H])C1([H])C([H])([H])C([H])(C4([H])[H])C1([H])[H])C([H])([H])C3([H])[H])C2([H])[H]


 49 56  0  0  0  0  0  0  0  0999 V2000
    2.1865    4.1561   10.3081 C   0  0  0  0  0  0  0  0  0  0  0  0
    2.2297    3.2493   11.5173 C   0  0  0  0  0  0  0  0  0  0  0  0
    2.4691    2.0248   11.3708 O   0  0  0  0  0  0  0  0  0  0  0  0
    2.0124    3.6974   12.8144 N   0  0  0  0  0  0  0  0  0  0  0  0
    2.1087    2.7559   13.9348 C   0  0  0  0  0  0  0  0  0  0  0  0
    3.0008    3.2871   14.9990 C   0  0  0  0  0  0  0  0  0  0  0  0
    3.6047    2.4022   15.8733 C   0  0  0  0  0  0  0  0  0  0  0  0
    4.4307    2.8375   16.8689 C   0  0  0  0  0  0  0  0  0  0  0  0
    5.1818    1.6897   17.9618 Cl  0  0  0  0  0  0  0  0  0  0  0  0
    4.6411    4.2075   16.9689 C   0  0  0  0  0  0  0  0  0  0  0  0
    4.0260    5.0955   16.0797 C   0  0  0  0  0  0  0  0  0  0  0  0
    3.1942    4.6374   15.0795 C   0  0  0  0  0  0  0  0  0  0  0  0
    2.5915    5.6447   14.1879 C   0  0  0  0  0  0  0  0  0  0  0  0
    1.6638    5.0384   13.1561 C   0  0  0  0  0  0  0  0  0  0  0  0
    5.5170    4.6765   18.0261 C   0  0  0  0  0  0  0  0  0  0  0  0
    5.1586    4.6240   19.3940 N   0  0  0  0  0  0  0  0  0  0  0  0
    5.8993    5.0439   20.5624 C   0  0  0  0  0  0  0  0  0  0  0  0
    5.5647    3.9393   21.5118 C   0  0  0  0  0  0  0  0  0  0  0  0
    6.2275    3.4478   22.6133 C   0  0  0  0  0  0  0  0  0  0  0  0
    5.6834    2.3868   23.3355 C   0  0  0  0  0  0  0  0  0  0  0  0
    4.4839    1.8422   22.9348 C   0  0  0  0  0  0  0  0  0  0  0  0
    3.8059    2.3191   21.8372 C   0  0  0  0  0  0  0  0  0  0  0  0
    4.3585    3.3705   21.1327 C   0  0  0  0  0  0  0  0  0  0  0  0
    3.8954    4.1026   19.9339 C   0  0  0  0  0  0  0  0  0  0  0  0
    6.6345    5.1462   17.7146 O   0  0  0  0  0  0  0  0  0  0  0  0
    3.0704    5.1814   10.4564 N   0  0  0  0  0  0  0  0  0  0  0  0
    2.9937    6.4948   10.0200 C   0  0  0  0  0  0  0  0  0  0  0  0
    3.9322    7.2777   10.9943 C   0  0  0  0  0  0  0  0  0  0  0  0
    5.0510    6.2766   11.1356 C   0  0  0  0  0  0  0  0  0  0  0  0
    4.4370    4.9198   10.8437 C   0  0  0  0  0  0  0  0  0  0  0  0
    1.9651    3.4376    9.0294 C   0  0  0  0  0  0  0  0  0  0  0  0
    3.2923    3.1979    8.3216 C   0  0  0  0  0  0  0  0  0  0  0  0
    3.7446    3.9523    7.4511 O   0  0  0  0  0  0  0  0  0  0  0  0
    4.1015    2.0562    8.6379 N   0  0  0  0  0  0  0  0  0  0  0  0
    3.7311    1.4134    9.3591 H   0  0  0  0  0  0  0  0  0  0  0  0
    5.3669    1.7799    8.0027 C   0  0  0  0  0  0  0  0  0  0  0  0
    5.1912    1.7370    6.5920 N   0  0  0  0  0  0  0  0  0  0  0  0
    6.3954    1.3756    5.8675 C   0  0  0  0  0  0  0  0  0  0  0  0
    7.3026    2.5511    5.6408 C   0  0  0  0  0  0  0  0  0  0  0  0
    8.2488    2.6049    6.8254 C   0  0  0  0  0  0  0  0  0  0  0  0
    7.2189    3.4497    7.5237 C   0  0  0  0  0  0  0  0  0  0  0  0
    6.3827    2.7360    8.5050 C   0  0  0  0  0  0  0  0  0  0  0  0
    6.6004    3.7691    6.2090 C   0  0  0  0  0  0  0  0  0  0  0  0
    4.2804    0.6203    6.4220 C   0  0  0  0  0  0  0  0  0  0  0  0
    4.8331   -0.4285    7.3831 C   0  0  0  0  0  0  0  0  0  0  0  0
    5.7044    0.3536    8.2986 C   0  0  0  0  0  0  0  0  0  0  0  0
    6.5059   -0.0301    9.1027 O   0  0  0  0  0  0  0  0  0  0  0  0
   -0.0263    4.5093    8.4769 C   0  0  0  0  0  0  0  0  0  0  0  0
    1.2898    4.2702    8.0947 O   0  0  0  0  0  0  0  0  0  0  0  0
 48 49  1  0  0  0
 49 31  1  0  0  0
 31  1  1  0  0  0
  1 26  1  0  0  0
 26 27  1  0  0  0
 27 28  1  0  0  0
 28 29  1  0  0  0
 29 30  1  0  0  0
  1  2  1  0  0  0
  2  3  2  0  0  0
  2  4  1  0  0  0
  4  5  1  0  0  0
  5  6  1  0  0  0
  6  7  2  0  0  0
  7  8  1  0  0  0
  8  9  1  0  0  0
  8 10  2  0  0  0
 10 15  1  0  0  0
 15 16  1  0  0  0
 16 17  1  0  0  0
 17 18  1  0  0  0
 18 19  2  0  0  0
 19 20  1  0  0  0
 20 21  2  0  0  0
 21 22  1  0  0  0
 22 23  2  0  0  0
 23 24  1  0  0  0
 15 25  2  0  0  0
 10 11  1  0  0  0
 11 12  2  0  0  0
 12 13  1  0  0  0
 13 14  1  0  0  0
 31 32  1  0  0  0
 32 33  2  0  0  0
 32 34  1  0  0  0
 34 36  1  0  0  0
 36 37  1  0  0  0
 37 38  1  0  0  0
 38 39  1  0  0  0
 39 40  1  0  0  0
 40 41  1  0  0  0
 41 42  1  0  0  0
 41 43  1  0  0  0
 37 44  1  0  0  0
 44 45  1  0  0  0
 45 46  1  0  0  0
 46 47  2  0  0  0
 30 26  1  0  0  0
 14  4  1  0  0  0
 42 36  1  0  0  0
 12  6  1  0  0  0
 46 36  1  0  0  0
 24 16  1  0  0  0
 43 39  1  0  0  0
 23 18  1  0  0  0
 34 35  1  0  0  0
M  END
> <minimizedAffinity>
-8.19991

> <CNNscore>
0.1088018492

> <CNNaffinity>
6.4474592209

> <CNN_VS>
0.7014954686

> <CNNaffinity_variance>
0.2635414898

$$$$
[H]c1c([H])c([H])c2c(c1[H])C([H])([H])N(C(=O)c1c([H])c3c(c([H])c1Cl)C([H])([H])N(C(=O)[C@@]([H])(N1C([H])([H])C([H])([H])C([H])([H])C1([H])[H])[C@@]([H])(OC([H])([H])[H])C(=O)N([H])C14C(=O)C([H])([H])C([H])([H])N1C([H])([H])C1([H])C([H])([H])C([H])(C4([H])[H])C1([H])[H])C([H])([H])C3([H])[H])C2([H])[H]


 49 56  0  0  0  0  0  0  0  0999 V2000
    4.7006    7.3482   19.6684 C   0  0  0  0  0  0  0  0  0  0  0  0
    3.8548    6.4130   18.8340 C   0  0  0  0  0  0  0  0  0  0  0  0
    2.8371    5.8754   19.3374 O   0  0  0  0  0  0  0  0  0  0  0  0
    4.1423    6.1008   17.5111 N   0  0  0  0  0  0  0  0  0  0  0  0
    3.2477    5.2117   16.7626 C   0  0  0  0  0  0  0  0  0  0  0  0
    2.8655    5.8176   15.4598 C   0  0  0  0  0  0  0  0  0  0  0  0
    1.6973    5.4069   14.8445 C   0  0  0  0  0  0  0  0  0  0  0  0
    1.3018    5.9295   13.6473 C   0  0  0  0  0  0  0  0  0  0  0  0
   -0.1858    5.3876   12.8925 Cl  0  0  0  0  0  0  0  0  0  0  0  0
    2.1210    6.8925   13.0705 C   0  0  0  0  0  0  0  0  0  0  0  0
    3.3012    7.3023   13.7004 C   0  0  0  0  0  0  0  0  0  0  0  0
    3.6852    6.7630   14.9103 C   0  0  0  0  0  0  0  0  0  0  0  0
    4.9423    7.2560   15.5013 C   0  0  0  0  0  0  0  0  0  0  0  0
    5.2908    6.5674   16.8041 C   0  0  0  0  0  0  0  0  0  0  0  0
    1.7065    7.4508   11.7972 C   0  0  0  0  0  0  0  0  0  0  0  0
    2.0050    6.8334   10.5595 N   0  0  0  0  0  0  0  0  0  0  0  0
    1.6754    7.2479    9.2143 C   0  0  0  0  0  0  0  0  0  0  0  0
    1.3346    5.9305    8.5963 C   0  0  0  0  0  0  0  0  0  0  0  0
    0.5394    5.6027    7.5219 C   0  0  0  0  0  0  0  0  0  0  0  0
    0.3886    4.2673    7.1510 C   0  0  0  0  0  0  0  0  0  0  0  0
    1.0406    3.2896    7.8684 C   0  0  0  0  0  0  0  0  0  0  0  0
    1.8398    3.5965    8.9449 C   0  0  0  0  0  0  0  0  0  0  0  0
    1.9787    4.9240    9.2994 C   0  0  0  0  0  0  0  0  0  0  0  0
    2.7477    5.5783   10.3802 C   0  0  0  0  0  0  0  0  0  0  0  0
    1.0589    8.5218   11.7945 O   0  0  0  0  0  0  0  0  0  0  0  0
    4.6504    8.6100   19.1587 N   0  0  0  0  0  0  0  0  0  0  0  0
    5.6780    9.4802   18.8298 C   0  0  0  0  0  0  0  0  0  0  0  0
    5.0472   10.4321   17.7626 C   0  0  0  0  0  0  0  0  0  0  0  0
    3.6687   10.6014   18.3500 C   0  0  0  0  0  0  0  0  0  0  0  0
    3.4209    9.3668   19.1971 C   0  0  0  0  0  0  0  0  0  0  0  0
    4.6735    7.0444   21.1201 C   0  0  0  0  0  0  0  0  0  0  0  0
    5.8508    7.7097   21.8209 C   0  0  0  0  0  0  0  0  0  0  0  0
    5.8278    8.8782   22.2278 O   0  0  0  0  0  0  0  0  0  0  0  0
    7.0742    6.9953   22.0477 N   0  0  0  0  0  0  0  0  0  0  0  0
    7.1090    6.0195   21.7057 H   0  0  0  0  0  0  0  0  0  0  0  0
    8.2197    7.5727   22.7076 C   0  0  0  0  0  0  0  0  0  0  0  0
    8.7423    8.6307   21.9137 N   0  0  0  0  0  0  0  0  0  0  0  0
    9.9546    9.2177   22.4536 C   0  0  0  0  0  0  0  0  0  0  0  0
    9.6716   10.2513   23.5061 C   0  0  0  0  0  0  0  0  0  0  0  0
    9.6481    9.5222   24.8363 C   0  0  0  0  0  0  0  0  0  0  0  0
    8.1850    9.2701   24.5958 C   0  0  0  0  0  0  0  0  0  0  0  0
    7.8536    7.9222   24.1013 C   0  0  0  0  0  0  0  0  0  0  0  0
    8.1640   10.3808   23.6062 C   0  0  0  0  0  0  0  0  0  0  0  0
    9.1449    7.9444   20.7002 C   0  0  0  0  0  0  0  0  0  0  0  0
    9.8132    6.6761   21.2235 C   0  0  0  0  0  0  0  0  0  0  0  0
    9.3261    6.5704   22.6236 C   0  0  0  0  0  0  0  0  0  0  0  0
    9.7043    5.8603   23.5119 O   0  0  0  0  0  0  0  0  0  0  0  0
    4.1418    5.1479   22.3611 C   0  0  0  0  0  0  0  0  0  0  0  0
    4.9451    5.6675   21.3512 O   0  0  0  0  0  0  0  0  0  0  0  0
 48 49  1  0  0  0
 49 31  1  0  0  0
 31  1  1  0  0  0
  1 26  1  0  0  0
 26 27  1  0  0  0
 27 28  1  0  0  0
 28 29  1  0  0  0
 29 30  1  0  0  0
  1  2  1  0  0  0
  2  3  2  0  0  0
  2  4  1  0  0  0
  4  5  1  0  0  0
  5  6  1  0  0  0
  6  7  2  0  0  0
  7  8  1  0  0  0
  8  9  1  0  0  0
  8 10  2  0  0  0
 10 15  1  0  0  0
 15 16  1  0  0  0
 16 17  1  0  0  0
 17 18  1  0  0  0
 18 19  2  0  0  0
 19 20  1  0  0  0
 20 21  2  0  0  0
 21 22  1  0  0  0
 22 23  2  0  0  0
 23 24  1  0  0  0
 15 25  2  0  0  0
 10 11  1  0  0  0
 11 12  2  0  0  0
 12 13  1  0  0  0
 13 14  1  0  0  0
 31 32  1  0  0  0
 32 33  2  0  0  0
 32 34  1  0  0  0
 34 36  1  0  0  0
 36 37  1  0  0  0
 37 38  1  0  0  0
 38 39  1  0  0  0
 39 40  1  0  0  0
 40 41  1  0  0  0
 41 42  1  0  0  0
 41 43  1  0  0  0
 37 44  1  0  0  0
 44 45  1  0  0  0
 45 46  1  0  0  0
 46 47  2  0  0  0
 30 26  1  0  0  0
 14  4  1  0  0  0
 42 36  1  0  0  0
 12  6  1  0  0  0
 46 36  1  0  0  0
 24 16  1  0  0  0
 43 39  1  0  0  0
 23 18  1  0  0  0
 34 35  1  0  0  0
M  END
> <minimizedAffinity>
-8.39653

> <CNNscore>
0.0987525508

> <CNNaffinity>
6.1192216873

> <CNN_VS>
0.6042887568

> <CNNaffinity_variance>
0.1679020822

$$$$
[H]c1c([H])c([H])c2c(c1[H])C([H])([H])N(C(=O)c1c([H])c3c(c([H])c1Cl)C([H])([H])N(C(=O)[C@@]([H])(N1C([H])([H])C([H])([H])C([H])([H])C1([H])[H])[C@@]([H])(OC([H])([H])[H])C(=O)N([H])C14C(=O)C([H])([H])C([H])([H])N1C([H])([H])C1([H])C([H])([H])C([H])(C4([H])[H])C1([H])[H])C([H])([H])C3([H])[H])C2([H])[H]


 49 56  0  0  0  0  0  0  0  0999 V2000
    4.0389    6.7677   16.9145 C   0  0  0  0  0  0  0  0  0  0  0  0
    4.6389    7.4042   15.6811 C   0  0  0  0  0  0  0  0  0  0  0  0
    5.8661    7.6708   15.6507 O   0  0  0  0  0  0  0  0  0  0  0  0
    3.8971    7.7238   14.5506 N   0  0  0  0  0  0  0  0  0  0  0  0
    4.5659    8.3066   13.3827 C   0  0  0  0  0  0  0  0  0  0  0  0
    4.2136    7.5638   12.1439 C   0  0  0  0  0  0  0  0  0  0  0  0
    5.0711    7.6188   11.0605 C   0  0  0  0  0  0  0  0  0  0  0  0
    4.7939    6.9571    9.8993 C   0  0  0  0  0  0  0  0  0  0  0  0
    5.9022    7.0466    8.5428 Cl  0  0  0  0  0  0  0  0  0  0  0  0
    3.6140    6.2248    9.8492 C   0  0  0  0  0  0  0  0  0  0  0  0
    2.7524    6.1746   10.9503 C   0  0  0  0  0  0  0  0  0  0  0  0
    3.0488    6.8497   12.1159 C   0  0  0  0  0  0  0  0  0  0  0  0
    2.0844    6.7384   13.2251 C   0  0  0  0  0  0  0  0  0  0  0  0
    2.4849    7.5516   14.4380 C   0  0  0  0  0  0  0  0  0  0  0  0
    3.3132    5.5204    8.6170 C   0  0  0  0  0  0  0  0  0  0  0  0
    3.6697    4.1677    8.4044 N   0  0  0  0  0  0  0  0  0  0  0  0
    3.4523    3.3226    7.2517 C   0  0  0  0  0  0  0  0  0  0  0  0
    3.0985    2.0330    7.9189 C   0  0  0  0  0  0  0  0  0  0  0  0
    2.3662    0.9506    7.4872 C   0  0  0  0  0  0  0  0  0  0  0  0
    2.1839   -0.1454    8.3291 C   0  0  0  0  0  0  0  0  0  0  0  0
    2.7417   -0.1299    9.5879 C   0  0  0  0  0  0  0  0  0  0  0  0
    3.4770    0.9418   10.0380 C   0  0  0  0  0  0  0  0  0  0  0  0
    3.6482    2.0196    9.1917 C   0  0  0  0  0  0  0  0  0  0  0  0
    4.3681    3.3002    9.3630 C   0  0  0  0  0  0  0  0  0  0  0  0
    2.7143    6.1350    7.7060 O   0  0  0  0  0  0  0  0  0  0  0  0
    3.7622    5.4551   16.6800 N   0  0  0  0  0  0  0  0  0  0  0  0
    4.4600    4.5158   15.9368 C   0  0  0  0  0  0  0  0  0  0  0  0
    4.0264    3.1444   16.5484 C   0  0  0  0  0  0  0  0  0  0  0  0
    2.5645    3.4213   16.7936 C   0  0  0  0  0  0  0  0  0  0  0  0
    2.4433    4.9271   16.9400 C   0  0  0  0  0  0  0  0  0  0  0  0
    4.6086    7.2751   18.1866 C   0  0  0  0  0  0  0  0  0  0  0  0
    5.1906    6.1264   19.0000 C   0  0  0  0  0  0  0  0  0  0  0  0
    6.3636    5.7458   18.8963 O   0  0  0  0  0  0  0  0  0  0  0  0
    4.3857    5.4119   19.9486 N   0  0  0  0  0  0  0  0  0  0  0  0
    3.4009    5.7155   20.0397 H   0  0  0  0  0  0  0  0  0  0  0  0
    4.8833    4.3187   20.7477 C   0  0  0  0  0  0  0  0  0  0  0  0
    3.8336    3.8069   21.5594 N   0  0  0  0  0  0  0  0  0  0  0  0
    4.2600    2.7585   22.4674 C   0  0  0  0  0  0  0  0  0  0  0  0
    4.3019    1.4101   21.8069 C   0  0  0  0  0  0  0  0  0  0  0  0
    5.7016    1.2439   21.2460 C   0  0  0  0  0  0  0  0  0  0  0  0
    5.2071    1.9155   19.9944 C   0  0  0  0  0  0  0  0  0  0  0  0
    5.5618    3.3398   19.8645 C   0  0  0  0  0  0  0  0  0  0  0  0
    3.8075    1.5971   20.3856 C   0  0  0  0  0  0  0  0  0  0  0  0
    3.5024    4.9430   22.3990 C   0  0  0  0  0  0  0  0  0  0  0  0
    4.8697    5.5008   22.7844 C   0  0  0  0  0  0  0  0  0  0  0  0
    5.7907    4.9072   21.7802 C   0  0  0  0  0  0  0  0  0  0  0  0
    6.9887    4.8830   21.7636 O   0  0  0  0  0  0  0  0  0  0  0  0
    3.4996    9.1305   19.0511 C   0  0  0  0  0  0  0  0  0  0  0  0
    3.5781    7.7416   19.0489 O   0  0  0  0  0  0  0  0  0  0  0  0
 48 49  1  0  0  0
 49 31  1  0  0  0
 31  1  1  0  0  0
  1 26  1  0  0  0
 26 27  1  0  0  0
 27 28  1  0  0  0
 28 29  1  0  0  0
 29 30  1  0  0  0
  1  2  1  0  0  0
  2  3  2  0  0  0
  2  4  1  0  0  0
  4  5  1  0  0  0
  5  6  1  0  0  0
  6  7  2  0  0  0
  7  8  1  0  0  0
  8  9  1  0  0  0
  8 10  2  0  0  0
 10 15  1  0  0  0
 15 16  1  0  0  0
 16 17  1  0  0  0
 17 18  1  0  0  0
 18 19  2  0  0  0
 19 20  1  0  0  0
 20 21  2  0  0  0
 21 22  1  0  0  0
 22 23  2  0  0  0
 23 24  1  0  0  0
 15 25  2  0  0  0
 10 11  1  0  0  0
 11 12  2  0  0  0
 12 13  1  0  0  0
 13 14  1  0  0  0
 31 32  1  0  0  0
 32 33  2  0  0  0
 32 34  1  0  0  0
 34 36  1  0  0  0
 36 37  1  0  0  0
 37 38  1  0  0  0
 38 39  1  0  0  0
 39 40  1  0  0  0
 40 41  1  0  0  0
 41 42  1  0  0  0
 41 43  1  0  0  0
 37 44  1  0  0  0
 44 45  1  0  0  0
 45 46  1  0  0  0
 46 47  2  0  0  0
 30 26  1  0  0  0
 14  4  1  0  0  0
 42 36  1  0  0  0
 12  6  1  0  0  0
 46 36  1  0  0  0
 24 16  1  0  0  0
 43 39  1  0  0  0
 23 18  1  0  0  0
 34 35  1  0  0  0
M  END
> <minimizedAffinity>
-8.95884

> <CNNscore>
0.0912812725

> <CNNaffinity>
6.7020797729

> <CNN_VS>
0.6117743850

> <CNNaffinity_variance>
0.2957990766

$$$$
[H]c1nn2c(Cl)c([H])c([H])c([H])c2c1N1c2c([H])c(Cl)c([H])c([H])c2OC([H])([H])C([H])([H])C([H])(C([H])([H])[H])C1([H])[H]


 24 27  0  0  0  0  0  0  0  0999 V2000
    2.6191    1.9758   13.5069 C   0  0  0  0  0  0  0  0  0  0  0  0
    2.4815    2.7554   14.8270 C   0  0  0  0  0  0  0  0  0  0  0  0
    2.4117    4.1094   14.6153 C   0  0  0  0  0  0  0  0  0  0  0  0
    2.0435    5.3917   14.1624 C   0  0  0  0  0  0  0  0  0  0  0  0
    3.0227    6.2639   14.8192 O   0  0  0  0  0  0  0  0  0  0  0  0
    4.0261    6.0578   15.7947 C   0  0  0  0  0  0  0  0  0  0  0  0
    4.5898    7.3175   15.9877 C   0  0  0  0  0  0  0  0  0  0  0  0
    5.6143    7.4699   16.8913 C   0  0  0  0  0  0  0  0  0  0  0  0
    6.0962    6.4005   17.6112 C   0  0  0  0  0  0  0  0  0  0  0  0
    7.3961    6.5566   18.7684 Cl  0  0  0  0  0  0  0  0  0  0  0  0
    5.5369    5.1327   17.4239 C   0  0  0  0  0  0  0  0  0  0  0  0
    4.5382    4.9859   16.5431 C   0  0  0  0  0  0  0  0  0  0  0  0
    4.1498    3.5927   16.5476 N   0  0  0  0  0  0  0  0  0  0  0  0
    3.7181    2.5348   15.6869 C   0  0  0  0  0  0  0  0  0  0  0  0
    4.2359    3.1191   17.8867 C   0  0  0  0  0  0  0  0  0  0  0  0
    4.8186    3.8252   18.9025 C   0  0  0  0  0  0  0  0  0  0  0  0
    4.6905    3.0874   20.0314 N   0  0  0  0  0  0  0  0  0  0  0  0
    4.0491    1.9426   19.7660 N   0  0  0  0  0  0  0  0  0  0  0  0
    3.7063    0.9324   20.5493 C   0  0  0  0  0  0  0  0  0  0  0  0
    4.0926    0.9479   22.2728 Cl  0  0  0  0  0  0  0  0  0  0  0  0
    3.0414   -0.1533   20.0400 C   0  0  0  0  0  0  0  0  0  0  0  0
    2.7240   -0.1987   18.6997 C   0  0  0  0  0  0  0  0  0  0  0  0
    3.1076    0.8908   17.9183 C   0  0  0  0  0  0  0  0  0  0  0  0
    3.7706    1.9621   18.4518 C   0  0  0  0  0  0  0  0  0  0  0  0
  1  2  1  0  0  0
  2  3  1  0  0  0
  3  4  1  0  0  0
  4  5  1  0  0  0
  5  6  1  0  0  0
  6  7  2  0  0  0
  7  8  1  0  0  0
  8  9  2  0  0  0
  9 10  1  0  0  0
  9 11  1  0  0  0
 11 12  2  0  0  0
 12 13  1  0  0  0
 13 14  1  0  0  0
 13 15  1  0  0  0
 15 16  1  0  0  0
 16 17  2  0  0  0
 17 18  1  0  0  0
 18 19  1  0  0  0
 19 20  1  0  0  0
 19 21  2  0  0  0
 21 22  1  0  0  0
 22 23  2  0  0  0
 23 24  1  0  0  0
 14  2  1  0  0  0
 24 15  2  0  0  0
 12  6  1  0  0  0
 24 18  1  0  0  0
M  END
> <minimizedAffinity>
-8.05536

> <CNNscore>
0.5043699741

> <CNNaffinity>
6.4079713821

> <CNN_VS>
3.2319884300

> <CNNaffinity_variance>
0.0578947142

$$$$
[H]c1nn2c(Cl)c([H])c([H])c([H])c2c1N1c2c([H])c(Cl)c([H])c([H])c2OC([H])([H])C([H])([H])C([H])(C([H])([H])[H])C1([H])[H]


 24 27  0  0  0  0  0  0  0  0999 V2000
    6.1845    1.5978   22.1639 C   0  0  0  0  0  0  0  0  0  0  0  0
    4.9901    2.2376   21.4336 C   0  0  0  0  0  0  0  0  0  0  0  0
    4.2489    1.3048   20.7527 C   0  0  0  0  0  0  0  0  0  0  0  0
    3.4766    0.1777   20.4091 C   0  0  0  0  0  0  0  0  0  0  0  0
    3.2685    0.3513   18.9676 O   0  0  0  0  0  0  0  0  0  0  0  0
    3.5571    1.3878   18.0494 C   0  0  0  0  0  0  0  0  0  0  0  0
    3.0804    0.9155   16.8281 C   0  0  0  0  0  0  0  0  0  0  0  0
    3.2060    1.6966   15.7041 C   0  0  0  0  0  0  0  0  0  0  0  0
    3.7950    2.9391   15.7605 C   0  0  0  0  0  0  0  0  0  0  0  0
    3.9710    3.9597   14.3531 Cl  0  0  0  0  0  0  0  0  0  0  0  0
    4.2766    3.4211   16.9814 C   0  0  0  0  0  0  0  0  0  0  0  0
    4.1531    2.6588   18.0761 C   0  0  0  0  0  0  0  0  0  0  0  0
    4.7247    3.3886   19.1864 N   0  0  0  0  0  0  0  0  0  0  0  0
    5.4935    3.2144   20.3801 C   0  0  0  0  0  0  0  0  0  0  0  0
    4.4049    4.7646   19.0162 C   0  0  0  0  0  0  0  0  0  0  0  0
    3.1375    5.2658   19.1277 C   0  0  0  0  0  0  0  0  0  0  0  0
    3.2152    6.6046   18.9362 N   0  0  0  0  0  0  0  0  0  0  0  0
    4.4837    6.9668   18.7080 N   0  0  0  0  0  0  0  0  0  0  0  0
    5.0240    8.1517   18.4719 C   0  0  0  0  0  0  0  0  0  0  0  0
    4.0278    9.6093   18.4161 Cl  0  0  0  0  0  0  0  0  0  0  0  0
    6.3737    8.2761   18.2644 C   0  0  0  0  0  0  0  0  0  0  0  0
    7.1809    7.1598   18.3010 C   0  0  0  0  0  0  0  0  0  0  0  0
    6.5620    5.9358   18.5535 C   0  0  0  0  0  0  0  0  0  0  0  0
    5.2126    5.8393   18.7571 C   0  0  0  0  0  0  0  0  0  0  0  0
  1  2  1  0  0  0
  2  3  1  0  0  0
  3  4  1  0  0  0
  4  5  1  0  0  0
  5  6  1  0  0  0
  6  7  2  0  0  0
  7  8  1  0  0  0
  8  9  2  0  0  0
  9 10  1  0  0  0
  9 11  1  0  0  0
 11 12  2  0  0  0
 12 13  1  0  0  0
 13 14  1  0  0  0
 13 15  1  0  0  0
 15 16  1  0  0  0
 16 17  2  0  0  0
 17 18  1  0  0  0
 18 19  1  0  0  0
 19 20  1  0  0  0
 19 21  2  0  0  0
 21 22  1  0  0  0
 22 23  2  0  0  0
 23 24  1  0  0  0
 14  2  1  0  0  0
 24 15  2  0  0  0
 12  6  1  0  0  0
 24 18  1  0  0  0
M  END
> <minimizedAffinity>
-8.81026

> <CNNscore>
0.4562949538

> <CNNaffinity>
6.4120016098

> <CNN_VS>
2.9257640839

> <CNNaffinity_variance>
0.1371727437

$$$$
[H]c1nn2c(Cl)c([H])c([H])c([H])c2c1N1c2c([H])c(Cl)c([H])c([H])c2OC([H])([H])C([H])([H])C([H])(C([H])([H])[H])C1([H])[H]


 24 27  0  0  0  0  0  0  0  0999 V2000
    2.1182    8.5422   13.6110 C   0  0  0  0  0  0  0  0  0  0  0  0
    2.9896    7.2835   13.7711 C   0  0  0  0  0  0  0  0  0  0  0  0
    4.0121    7.2508   12.8565 C   0  0  0  0  0  0  0  0  0  0  0  0
    5.1381    7.5713   12.0727 C   0  0  0  0  0  0  0  0  0  0  0  0
    5.2529    6.4150   11.1777 O   0  0  0  0  0  0  0  0  0  0  0  0
    4.5967    5.1646   11.0961 C   0  0  0  0  0  0  0  0  0  0  0  0
    5.1994    4.5235   10.0155 C   0  0  0  0  0  0  0  0  0  0  0  0
    4.7857    3.2620    9.6597 C   0  0  0  0  0  0  0  0  0  0  0  0
    3.7853    2.6173   10.3508 C   0  0  0  0  0  0  0  0  0  0  0  0
    3.2344    1.0139    9.9279 Cl  0  0  0  0  0  0  0  0  0  0  0  0
    3.1746    3.2530   11.4362 C   0  0  0  0  0  0  0  0  0  0  0  0
    3.5791    4.4824   11.7819 C   0  0  0  0  0  0  0  0  0  0  0  0
    2.7931    4.8990   12.9224 N   0  0  0  0  0  0  0  0  0  0  0  0
    2.1535    6.0404   13.5007 C   0  0  0  0  0  0  0  0  0  0  0  0
    2.5879    3.7607   13.7513 C   0  0  0  0  0  0  0  0  0  0  0  0
    1.6429    2.8042   13.5021 C   0  0  0  0  0  0  0  0  0  0  0  0
    1.7548    1.8648   14.4716 N   0  0  0  0  0  0  0  0  0  0  0  0
    2.7346    2.1926   15.3230 N   0  0  0  0  0  0  0  0  0  0  0  0
    3.1926    1.5811   16.4038 C   0  0  0  0  0  0  0  0  0  0  0  0
    2.4918    0.0542   16.9491 Cl  0  0  0  0  0  0  0  0  0  0  0  0
    4.2249    2.1201   17.1278 C   0  0  0  0  0  0  0  0  0  0  0  0
    4.7953    3.3102   16.7310 C   0  0  0  0  0  0  0  0  0  0  0  0
    4.2760    3.9134   15.5860 C   0  0  0  0  0  0  0  0  0  0  0  0
    3.2450    3.3543   14.8816 C   0  0  0  0  0  0  0  0  0  0  0  0
  1  2  1  0  0  0
  2  3  1  0  0  0
  3  4  1  0  0  0
  4  5  1  0  0  0
  5  6  1  0  0  0
  6  7  2  0  0  0
  7  8  1  0  0  0
  8  9  2  0  0  0
  9 10  1  0  0  0
  9 11  1  0  0  0
 11 12  2  0  0  0
 12 13  1  0  0  0
 13 14  1  0  0  0
 13 15  1  0  0  0
 15 16  1  0  0  0
 16 17  2  0  0  0
 17 18  1  0  0  0
 18 19  1  0  0  0
 19 20  1  0  0  0
 19 21  2  0  0  0
 21 22  1  0  0  0
 22 23  2  0  0  0
 23 24  1  0  0  0
 14  2  1  0  0  0
 24 15  2  0  0  0
 12  6  1  0  0  0
 24 18  1  0  0  0
M  END
> <minimizedAffinity>
-6.55693

> <CNNscore>
0.4182824790

> <CNNaffinity>
5.8276414871

> <CNN_VS>
2.4376003742

> <CNNaffinity_variance>
0.3124692142

$$$$
[H]c1nn2c(Cl)c([H])c([H])c([H])c2c1N1c2c([H])c(Cl)c([H])c([H])c2OC([H])([H])C([H])([H])C([H])(C([H])([H])[H])C1([H])[H]


 24 27  0  0  0  0  0  0  0  0999 V2000
    4.2932    6.0140   13.4643 C   0  0  0  0  0  0  0  0  0  0  0  0
    5.0264    5.3806   14.6604 C   0  0  0  0  0  0  0  0  0  0  0  0
    4.5542    4.1230   14.9407 C   0  0  0  0  0  0  0  0  0  0  0  0
    4.1565    2.7745   14.8485 C   0  0  0  0  0  0  0  0  0  0  0  0
    3.6444    2.4923   16.1936 O   0  0  0  0  0  0  0  0  0  0  0  0
    3.6281    3.2116   17.4115 C   0  0  0  0  0  0  0  0  0  0  0  0
    2.9983    2.3567   18.3139 C   0  0  0  0  0  0  0  0  0  0  0  0
    2.8186    2.7591   19.6158 C   0  0  0  0  0  0  0  0  0  0  0  0
    3.2491    3.9930   20.0474 C   0  0  0  0  0  0  0  0  0  0  0  0
    3.0387    4.5378   21.6943 Cl  0  0  0  0  0  0  0  0  0  0  0  0
    3.8817    4.8576   19.1489 C   0  0  0  0  0  0  0  0  0  0  0  0
    4.0564    4.4638   17.8804 C   0  0  0  0  0  0  0  0  0  0  0  0
    4.7285    5.5339   17.1768 N   0  0  0  0  0  0  0  0  0  0  0  0
    4.7744    6.2056   15.9147 C   0  0  0  0  0  0  0  0  0  0  0  0
    5.6714    6.1186   18.0679 C   0  0  0  0  0  0  0  0  0  0  0  0
    5.7067    5.8572   19.4097 C   0  0  0  0  0  0  0  0  0  0  0  0
    6.7432    6.5574   19.9296 N   0  0  0  0  0  0  0  0  0  0  0  0
    7.3630    7.2508   18.9665 N   0  0  0  0  0  0  0  0  0  0  0  0
    8.4087    8.0610   19.0094 C   0  0  0  0  0  0  0  0  0  0  0  0
    9.2430    8.3870   20.5317 Cl  0  0  0  0  0  0  0  0  0  0  0  0
    8.8702    8.6682   17.8699 C   0  0  0  0  0  0  0  0  0  0  0  0
    8.2431    8.4364   16.6649 C   0  0  0  0  0  0  0  0  0  0  0  0
    7.1465    7.5749   16.6743 C   0  0  0  0  0  0  0  0  0  0  0  0
    6.7062    6.9818   17.8258 C   0  0  0  0  0  0  0  0  0  0  0  0
  1  2  1  0  0  0
  2  3  1  0  0  0
  3  4  1  0  0  0
  4  5  1  0  0  0
  5  6  1  0  0  0
  6  7  2  0  0  0
  7  8  1  0  0  0
  8  9  2  0  0  0
  9 10  1  0  0  0
  9 11  1  0  0  0
 11 12  2  0  0  0
 12 13  1  0  0  0
 13 14  1  0  0  0
 13 15  1  0  0  0
 15 16  1  0  0  0
 16 17  2  0  0  0
 17 18  1  0  0  0
 18 19  1  0  0  0
 19 20  1  0  0  0
 19 21  2  0  0  0
 21 22  1  0  0  0
 22 23  2  0  0  0
 23 24  1  0  0  0
 14  2  1  0  0  0
 24 15  2  0  0  0
 12  6  1  0  0  0
 24 18  1  0  0  0
M  END
> <minimizedAffinity>
9.12411

> <CNNscore>
0.3709313571

> <CNNaffinity>
5.7562160492

> <CNN_VS>
2.1351609230

> <CNNaffinity_variance>
1.3501532078

$$$$
[H]c1nn2c(Cl)c([H])c([H])c([H])c2c1N1c2c([H])c(Cl)c([H])c([H])c2OC([H])([H])C([H])([H])C([H])(C([H])([H])[H])C1([H])[H]


 24 27  0  0  0  0  0  0  0  0999 V2000
    2.1421    4.9649   16.3616 C   0  0  0  0  0  0  0  0  0  0  0  0
    3.4679    4.8202   17.1303 C   0  0  0  0  0  0  0  0  0  0  0  0
    3.8773    3.5123   17.2001 C   0  0  0  0  0  0  0  0  0  0  0  0
    4.2600    2.1946   16.8805 C   0  0  0  0  0  0  0  0  0  0  0  0
    4.4960    1.5943   18.1977 O   0  0  0  0  0  0  0  0  0  0  0  0
    4.5319    2.1008   19.5179 C   0  0  0  0  0  0  0  0  0  0  0  0
    4.8263    0.9924   20.3095 C   0  0  0  0  0  0  0  0  0  0  0  0
    4.9360    1.1425   21.6714 C   0  0  0  0  0  0  0  0  0  0  0  0
    4.7603    2.3689   22.2708 C   0  0  0  0  0  0  0  0  0  0  0  0
    4.8930    2.5976   23.9980 Cl  0  0  0  0  0  0  0  0  0  0  0  0
    4.4643    3.4865   21.4846 C   0  0  0  0  0  0  0  0  0  0  0  0
    4.3580    3.3386   20.1573 C   0  0  0  0  0  0  0  0  0  0  0  0
    4.0517    4.6351   19.5940 N   0  0  0  0  0  0  0  0  0  0  0  0
    3.2795    5.2717   18.5718 C   0  0  0  0  0  0  0  0  0  0  0  0
    4.7791    5.6136   20.3277 C   0  0  0  0  0  0  0  0  0  0  0  0
    4.4204    6.0447   21.5749 C   0  0  0  0  0  0  0  0  0  0  0  0
    5.3508    6.9452   21.9730 N   0  0  0  0  0  0  0  0  0  0  0  0
    6.2827    7.0985   21.0241 N   0  0  0  0  0  0  0  0  0  0  0  0
    7.3633    7.8613   20.9771 C   0  0  0  0  0  0  0  0  0  0  0  0
    7.7868    8.9201   22.3259 Cl  0  0  0  0  0  0  0  0  0  0  0  0
    8.1817    7.8476   19.8770 C   0  0  0  0  0  0  0  0  0  0  0  0
    7.8814    7.0334   18.8065 C   0  0  0  0  0  0  0  0  0  0  0  0
    6.7321    6.2499   18.9065 C   0  0  0  0  0  0  0  0  0  0  0  0
    5.9323    6.2825   20.0160 C   0  0  0  0  0  0  0  0  0  0  0  0
  1  2  1  0  0  0
  2  3  1  0  0  0
  3  4  1  0  0  0
  4  5  1  0  0  0
  5  6  1  0  0  0
  6  7  2  0  0  0
  7  8  1  0  0  0
  8  9  2  0  0  0
  9 10  1  0  0  0
  9 11  1  0  0  0
 11 12  2  0  0  0
 12 13  1  0  0  0
 13 14  1  0  0  0
 13 15  1  0  0  0
 15 16  1  0  0  0
 16 17  2  0  0  0
 17 18  1  0  0  0
 18 19  1  0  0  0
 19 20  1  0  0  0
 19 21  2  0  0  0
 21 22  1  0  0  0
 22 23  2  0  0  0
 23 24  1  0  0  0
 14  2  1  0  0  0
 24 15  2  0  0  0
 12  6  1  0  0  0
 24 18  1  0  0  0
M  END
> <minimizedAffinity>
-8.44151

> <CNNscore>
0.3155322969

> <CNNaffinity>
6.0080599785

> <CNN_VS>
1.8957369328

> <CNNaffinity_variance>
0.1333977580

$$$$
[H]c1nn2c(Cl)c([H])c([H])c([H])c2c1N1c2c([H])c(Cl)c([H])c([H])c2OC([H])([H])C([H])([H])C([H])(C([H])([H])[H])C1([H])[H]


 24 27  0  0  0  0  0  0  0  0999 V2000
    7.4554    7.0325   18.4662 C   0  0  0  0  0  0  0  0  0  0  0  0
    6.0122    6.5215   18.6254 C   0  0  0  0  0  0  0  0  0  0  0  0
    5.8872    5.6699   19.6942 C   0  0  0  0  0  0  0  0  0  0  0  0
    5.9173    5.1014   20.9829 C   0  0  0  0  0  0  0  0  0  0  0  0
    5.3920    3.7508   20.7566 O   0  0  0  0  0  0  0  0  0  0  0  0
    4.8174    3.0919   19.6446 C   0  0  0  0  0  0  0  0  0  0  0  0
    4.5185    1.8136   20.1121 C   0  0  0  0  0  0  0  0  0  0  0  0
    3.9370    0.9012   19.2644 C   0  0  0  0  0  0  0  0  0  0  0  0
    3.6434    1.2253   17.9595 C   0  0  0  0  0  0  0  0  0  0  0  0
    2.9038    0.0920   16.8540 Cl  0  0  0  0  0  0  0  0  0  0  0  0
    3.9401    2.5053   17.4816 C   0  0  0  0  0  0  0  0  0  0  0  0
    4.5066    3.3936   18.3091 C   0  0  0  0  0  0  0  0  0  0  0  0
    4.7017    4.6210   17.5691 N   0  0  0  0  0  0  0  0  0  0  0  0
    5.6155    5.7086   17.4009 C   0  0  0  0  0  0  0  0  0  0  0  0
    3.5846    4.7926   16.7045 C   0  0  0  0  0  0  0  0  0  0  0  0
    2.3749    5.2771   17.1190 C   0  0  0  0  0  0  0  0  0  0  0  0
    1.5690    5.3327   16.0315 N   0  0  0  0  0  0  0  0  0  0  0  0
    2.2246    4.9015   14.9468 N   0  0  0  0  0  0  0  0  0  0  0  0
    1.8417    4.7820   13.6855 C   0  0  0  0  0  0  0  0  0  0  0  0
    0.2073    5.2290   13.1865 Cl  0  0  0  0  0  0  0  0  0  0  0  0
    2.7070    4.3070   12.7338 C   0  0  0  0  0  0  0  0  0  0  0  0
    3.9897    3.9489   13.0881 C   0  0  0  0  0  0  0  0  0  0  0  0
    4.3428    4.0940   14.4293 C   0  0  0  0  0  0  0  0  0  0  0  0
    3.4597    4.5705   15.3592 C   0  0  0  0  0  0  0  0  0  0  0  0
  1  2  1  0  0  0
  2  3  1  0  0  0
  3  4  1  0  0  0
  4  5  1  0  0  0
  5  6  1  0  0  0
  6  7  2  0  0  0
  7  8  1  0  0  0
  8  9  2  0  0  0
  9 10  1  0  0  0
  9 11  1  0  0  0
 11 12  2  0  0  0
 12 13  1  0  0  0
 13 14  1  0  0  0
 13 15  1  0  0  0
 15 16  1  0  0  0
 16 17  2  0  0  0
 17 18  1  0  0  0
 18 19  1  0  0  0
 19 20  1  0  0  0
 19 21  2  0  0  0
 21 22  1  0  0  0
 22 23  2  0  0  0
 23 24  1  0  0  0
 14  2  1  0  0  0
 24 15  2  0  0  0
 12  6  1  0  0  0
 24 18  1  0  0  0
M  END
> <minimizedAffinity>
-7.63691

> <CNNscore>
0.2919976711

> <CNNaffinity>
6.0533838272

> <CNN_VS>
1.7675739527

> <CNNaffinity_variance>
0.0917951912

$$$$
[H]c1nn2c(Cl)c([H])c([H])c([H])c2c1N1c2c([H])c(Cl)c([H])c([H])c2OC([H])([H])C([H])([H])C([H])(C([H])([H])[H])C1([H])[H]


 24 27  0  0  0  0  0  0  0  0999 V2000
    4.8311    8.3210   15.5258 C   0  0  0  0  0  0  0  0  0  0  0  0
    4.0977    7.4791   16.5854 C   0  0  0  0  0  0  0  0  0  0  0  0
    4.0286    8.1265   17.7934 C   0  0  0  0  0  0  0  0  0  0  0  0
    3.7956    9.0727   18.8108 C   0  0  0  0  0  0  0  0  0  0  0  0
    4.3449    8.4147   20.0010 O   0  0  0  0  0  0  0  0  0  0  0  0
    4.8578    7.1227   20.2628 C   0  0  0  0  0  0  0  0  0  0  0  0
    5.1987    7.1492   21.6137 C   0  0  0  0  0  0  0  0  0  0  0  0
    5.7359    6.0275   22.1989 C   0  0  0  0  0  0  0  0  0  0  0  0
    5.9448    4.8755   21.4756 C   0  0  0  0  0  0  0  0  0  0  0  0
    6.6244    3.4309   22.1858 Cl  0  0  0  0  0  0  0  0  0  0  0  0
    5.6061    4.8397   20.1194 C   0  0  0  0  0  0  0  0  0  0  0  0
    5.0823    5.9338   19.5506 C   0  0  0  0  0  0  0  0  0  0  0  0
    4.8266    5.6265   18.1606 N   0  0  0  0  0  0  0  0  0  0  0  0
    4.8713    6.1947   16.8486 C   0  0  0  0  0  0  0  0  0  0  0  0
    4.3756    4.2789   18.0864 C   0  0  0  0  0  0  0  0  0  0  0  0
    4.2046    3.4774   19.1812 C   0  0  0  0  0  0  0  0  0  0  0  0
    3.7395    2.2846   18.7386 N   0  0  0  0  0  0  0  0  0  0  0  0
    3.6108    2.3033   17.4061 N   0  0  0  0  0  0  0  0  0  0  0  0
    3.1980    1.3767   16.5560 C   0  0  0  0  0  0  0  0  0  0  0  0
    2.6943   -0.2179   17.1248 Cl  0  0  0  0  0  0  0  0  0  0  0  0
    3.1517    1.6333   15.2098 C   0  0  0  0  0  0  0  0  0  0  0  0
    3.5374    2.8667   14.7313 C   0  0  0  0  0  0  0  0  0  0  0  0
    3.9638    3.8073   15.6684 C   0  0  0  0  0  0  0  0  0  0  0  0
    4.0006    3.5253   17.0066 C   0  0  0  0  0  0  0  0  0  0  0  0
  1  2  1  0  0  0
  2  3  1  0  0  0
  3  4  1  0  0  0
  4  5  1  0  0  0
  5  6  1  0  0  0
  6  7  2  0  0  0
  7  8  1  0  0  0
  8  9  2  0  0  0
  9 10  1  0  0  0
  9 11  1  0  0  0
 11 12  2  0  0  0
 12 13  1  0  0  0
 13 14  1  0  0  0
 13 15  1  0  0  0
 15 16  1  0  0  0
 16 17  2  0  0  0
 17 18  1  0  0  0
 18 19  1  0  0  0
 19 20  1  0  0  0
 19 21  2  0  0  0
 21 22  1  0  0  0
 22 23  2  0  0  0
 23 24  1  0  0  0
 14  2  1  0  0  0
 24 15  2  0  0  0
 12  6  1  0  0  0
 24 18  1  0  0  0
M  END
> <minimizedAffinity>
-8.67778

> <CNNscore>
0.2775204480

> <CNNaffinity>
5.8285646439

> <CNN_VS>
1.6175458431

> <CNNaffinity_variance>
0.2292776406

$$$$
[H]c1nn2c(Cl)c([H])c([H])c([H])c2c1N1c2c([H])c(Cl)c([H])c([H])c2OC([H])([H])C([H])([H])C([H])(C([H])([H])[H])C1([H])[H]


 24 27  0  0  0  0  0  0  0  0999 V2000
    2.8828    1.6141   15.2034 C   0  0  0  0  0  0  0  0  0  0  0  0
    2.8103    2.4388   16.5011 C   0  0  0  0  0  0  0  0  0  0  0  0
    2.6405    3.7766   16.2470 C   0  0  0  0  0  0  0  0  0  0  0  0
    2.1578    5.0156   15.7812 C   0  0  0  0  0  0  0  0  0  0  0  0
    3.1343    5.9693   16.3179 O   0  0  0  0  0  0  0  0  0  0  0  0
    4.2273    5.8621   17.2093 C   0  0  0  0  0  0  0  0  0  0  0  0
    4.7277    7.1591   17.3062 C   0  0  0  0  0  0  0  0  0  0  0  0
    5.8138    7.4077   18.1110 C   0  0  0  0  0  0  0  0  0  0  0  0
    6.4192    6.3987   18.8248 C   0  0  0  0  0  0  0  0  0  0  0  0
    7.8005    6.6775   19.8581 Cl  0  0  0  0  0  0  0  0  0  0  0  0
    5.9243    5.0942   18.7334 C   0  0  0  0  0  0  0  0  0  0  0  0
    4.8653    4.8536   17.9489 C   0  0  0  0  0  0  0  0  0  0  0  0
    4.5643    3.4417   18.0382 N   0  0  0  0  0  0  0  0  0  0  0  0
    4.1264    2.3258   17.2576 C   0  0  0  0  0  0  0  0  0  0  0  0
    4.7922    3.0301   19.3811 C   0  0  0  0  0  0  0  0  0  0  0  0
    5.4642    1.8877   19.7182 C   0  0  0  0  0  0  0  0  0  0  0  0
    5.5165    1.8353   21.0708 N   0  0  0  0  0  0  0  0  0  0  0  0
    4.9029    2.9011   21.5997 N   0  0  0  0  0  0  0  0  0  0  0  0
    4.7120    3.2630   22.8584 C   0  0  0  0  0  0  0  0  0  0  0  0
    5.3128    2.2700   24.1899 Cl  0  0  0  0  0  0  0  0  0  0  0  0
    4.0413    4.4205   23.1593 C   0  0  0  0  0  0  0  0  0  0  0  0
    3.5589    5.2193   22.1453 C   0  0  0  0  0  0  0  0  0  0  0  0
    3.7867    4.7930   20.8372 C   0  0  0  0  0  0  0  0  0  0  0  0
    4.4591    3.6332   20.5643 C   0  0  0  0  0  0  0  0  0  0  0  0
  1  2  1  0  0  0
  2  3  1  0  0  0
  3  4  1  0  0  0
  4  5  1  0  0  0
  5  6  1  0  0  0
  6  7  2  0  0  0
  7  8  1  0  0  0
  8  9  2  0  0  0
  9 10  1  0  0  0
  9 11  1  0  0  0
 11 12  2  0  0  0
 12 13  1  0  0  0
 13 14  1  0  0  0
 13 15  1  0  0  0
 15 16  1  0  0  0
 16 17  2  0  0  0
 17 18  1  0  0  0
 18 19  1  0  0  0
 19 20  1  0  0  0
 19 21  2  0  0  0
 21 22  1  0  0  0
 22 23  2  0  0  0
 23 24  1  0  0  0
 14  2  1  0  0  0
 24 15  2  0  0  0
 12  6  1  0  0  0
 24 18  1  0  0  0
M  END
> <minimizedAffinity>
-8.16494

> <CNNscore>
0.2477366924

> <CNNaffinity>
5.9875097275

> <CNN_VS>
1.4833258390

> <CNNaffinity_variance>
0.1447658539

$$$$
[H]c1nn2c(Cl)c([H])c([H])c([H])c2c1N1c2c([H])c(Cl)c([H])c([H])c2OC([H])([H])C([H])([H])C([H])(C([H])([H])[H])C1([H])[H]


 24 27  0  0  0  0  0  0  0  0999 V2000
    4.0002    7.3776   15.7683 C   0  0  0  0  0  0  0  0  0  0  0  0
    3.8244    7.0375   17.2592 C   0  0  0  0  0  0  0  0  0  0  0  0
    4.1270    8.1058   18.0656 C   0  0  0  0  0  0  0  0  0  0  0  0
    4.1704    9.3801   18.6648 C   0  0  0  0  0  0  0  0  0  0  0  0
    5.2001    9.2208   19.6971 O   0  0  0  0  0  0  0  0  0  0  0  0
    5.9321    8.1176   20.1951 C   0  0  0  0  0  0  0  0  0  0  0  0
    6.7432    8.6575   21.1913 C   0  0  0  0  0  0  0  0  0  0  0  0
    7.5959    7.8362   21.8896 C   0  0  0  0  0  0  0  0  0  0  0  0
    7.6652    6.4876   21.6238 C   0  0  0  0  0  0  0  0  0  0  0  0
    8.7361    5.4134   22.4913 Cl  0  0  0  0  0  0  0  0  0  0  0  0
    6.8554    5.9372   20.6257 C   0  0  0  0  0  0  0  0  0  0  0  0
    6.0246    6.7389   19.9463 C   0  0  0  0  0  0  0  0  0  0  0  0
    5.3127    5.9228   18.9876 N   0  0  0  0  0  0  0  0  0  0  0  0
    4.7958    5.9338   17.6538 C   0  0  0  0  0  0  0  0  0  0  0  0
    5.0403    4.6671   19.5991 C   0  0  0  0  0  0  0  0  0  0  0  0
    5.3042    3.4638   19.0055 C   0  0  0  0  0  0  0  0  0  0  0  0
    4.9484    2.4950   19.8829 N   0  0  0  0  0  0  0  0  0  0  0  0
    4.4699    3.0416   21.0074 N   0  0  0  0  0  0  0  0  0  0  0  0
    4.0106    2.4899   22.1193 C   0  0  0  0  0  0  0  0  0  0  0  0
    3.9542    0.7344   22.3058 Cl  0  0  0  0  0  0  0  0  0  0  0  0
    3.5663    3.2703   23.1555 C   0  0  0  0  0  0  0  0  0  0  0  0
    3.5960    4.6435   23.0440 C   0  0  0  0  0  0  0  0  0  0  0  0
    4.0890    5.1741   21.8523 C   0  0  0  0  0  0  0  0  0  0  0  0
    4.5262    4.3726   20.8334 C   0  0  0  0  0  0  0  0  0  0  0  0
  1  2  1  0  0  0
  2  3  1  0  0  0
  3  4  1  0  0  0
  4  5  1  0  0  0
  5  6  1  0  0  0
  6  7  2  0  0  0
  7  8  1  0  0  0
  8  9  2  0  0  0
  9 10  1  0  0  0
  9 11  1  0  0  0
 11 12  2  0  0  0
 12 13  1  0  0  0
 13 14  1  0  0  0
 13 15  1  0  0  0
 15 16  1  0  0  0
 16 17  2  0  0  0
 17 18  1  0  0  0
 18 19  1  0  0  0
 19 20  1  0  0  0
 19 21  2  0  0  0
 21 22  1  0  0  0
 22 23  2  0  0  0
 23 24  1  0  0  0
 14  2  1  0  0  0
 24 15  2  0  0  0
 12  6  1  0  0  0
 24 18  1  0  0  0
M  END
> <minimizedAffinity>
-7.91759

> <CNNscore>
0.2306713015

> <CNNaffinity>
5.6363115311

> <CNN_VS>
1.3001353741

> <CNNaffinity_variance>
0.2594080567

$$$$
[H]c1nc([H])c2c([H])c(Cl)c([H])c([H])c2c1-c1c([H])c([H])c(OC([H])([H])C([H])([H])N(N([H])[H])C([H])([H])[H])c(C(F)(F)F)c1[H]


 29 31  0  0  0  0  0  0  0  0999 V2000
    3.1459    3.9046   13.9791 C   0  0  0  0  0  0  0  0  0  0  0  0
    3.2032    2.5365   13.8524 C   0  0  0  0  0  0  0  0  0  0  0  0
    3.1949    1.6558   14.9140 C   0  0  0  0  0  0  0  0  0  0  0  0
    3.1260    2.1258   16.1941 C   0  0  0  0  0  0  0  0  0  0  0  0
    3.0662    3.4924   16.3724 C   0  0  0  0  0  0  0  0  0  0  0  0
    3.0754    4.3621   15.3054 C   0  0  0  0  0  0  0  0  0  0  0  0
    3.1052    1.3269   17.4062 C   0  0  0  0  0  0  0  0  0  0  0  0
    2.2848    0.1815   17.4546 C   0  0  0  0  0  0  0  0  0  0  0  0
    2.1878   -0.5850   18.5483 N   0  0  0  0  0  0  0  0  0  0  0  0
    2.8683   -0.3034   19.6601 C   0  0  0  0  0  0  0  0  0  0  0  0
    3.6865    0.7939   19.6864 C   0  0  0  0  0  0  0  0  0  0  0  0
    4.4274    1.1318   20.8101 C   0  0  0  0  0  0  0  0  0  0  0  0
    5.2639    2.2255   20.8516 C   0  0  0  0  0  0  0  0  0  0  0  0
    6.1372    2.5312   22.3365 Cl  0  0  0  0  0  0  0  0  0  0  0  0
    5.3615    3.0015   19.7391 C   0  0  0  0  0  0  0  0  0  0  0  0
    4.6348    2.7006   18.5852 C   0  0  0  0  0  0  0  0  0  0  0  0
    3.8029    1.6097   18.5524 C   0  0  0  0  0  0  0  0  0  0  0  0
    3.0106    5.8428   15.5063 C   0  0  0  0  0  0  0  0  0  0  0  0
    3.0174    6.1056   16.8675 F   0  0  0  0  0  0  0  0  0  0  0  0
    4.0802    6.4673   14.8762 F   0  0  0  0  0  0  0  0  0  0  0  0
    1.8676    6.3484   14.9606 F   0  0  0  0  0  0  0  0  0  0  0  0
    3.1479    4.8374   13.0024 O   0  0  0  0  0  0  0  0  0  0  0  0
    2.4725    5.0211   11.8311 C   0  0  0  0  0  0  0  0  0  0  0  0
    2.5154    6.3655   11.1972 C   0  0  0  0  0  0  0  0  0  0  0  0
    1.9338    8.3611   12.4083 C   0  0  0  0  0  0  0  0  0  0  0  0
    2.9496    7.4198   12.0740 N   0  0  0  0  0  0  0  0  0  0  0  0
    4.1726    7.9697   11.7566 N   0  0  0  0  0  0  0  0  0  0  0  0
    4.0134    8.8286   11.1768 H   0  0  0  0  0  0  0  0  0  0  0  0
    4.5913    8.3320   12.6600 H   0  0  0  0  0  0  0  0  0  0  0  0
 25 26  1  0  0  0
 26 27  1  0  0  0
 26 24  1  0  0  0
 24 23  1  0  0  0
 23 22  1  0  0  0
 22  1  1  0  0  0
  1  2  2  0  0  0
  2  3  1  0  0  0
  3  4  2  0  0  0
  4  5  1  0  0  0
  5  6  2  0  0  0
  6 18  1  0  0  0
 18 19  1  0  0  0
 18 20  1  0  0  0
 18 21  1  0  0  0
  4  7  1  0  0  0
  7  8  2  0  0  0
  8  9  1  0  0  0
  9 10  2  0  0  0
 10 11  1  0  0  0
 11 12  2  0  0  0
 12 13  1  0  0  0
 13 14  1  0  0  0
 13 15  2  0  0  0
 15 16  1  0  0  0
 16 17  2  0  0  0
  6  1  1  0  0  0
 17  7  1  0  0  0
 17 11  1  0  0  0
 27 28  1  0  0  0
 27 29  1  0  0  0
M  END
> <minimizedAffinity>
-7.56328

> <CNNscore>
0.6381413937

> <CNNaffinity>
6.4085493088

> <CNN_VS>
4.0895605087

> <CNNaffinity_variance>
0.5607465506

$$$$
[H]c1nc([H])c2c([H])c(Cl)c([H])c([H])c2c1-c1c([H])c([H])c(OC([H])([H])C([H])([H])N(N([H])[H])C([H])([H])[H])c(C(F)(F)F)c1[H]


 29 31  0  0  0  0  0  0  0  0999 V2000
    3.1431    3.8093   14.0321 C   0  0  0  0  0  0  0  0  0  0  0  0
    3.1859    2.4381   13.9367 C   0  0  0  0  0  0  0  0  0  0  0  0
    3.1815    1.5824   15.0187 C   0  0  0  0  0  0  0  0  0  0  0  0
    3.1319    2.0828   16.2882 C   0  0  0  0  0  0  0  0  0  0  0  0
    3.0871    3.4537   16.4352 C   0  0  0  0  0  0  0  0  0  0  0  0
    3.0923    4.2982   15.3480 C   0  0  0  0  0  0  0  0  0  0  0  0
    3.1176    1.3126   17.5188 C   0  0  0  0  0  0  0  0  0  0  0  0
    2.3039    0.1639   17.5956 C   0  0  0  0  0  0  0  0  0  0  0  0
    2.2130   -0.5771   18.7072 N   0  0  0  0  0  0  0  0  0  0  0  0
    2.8936   -0.2654   19.8109 C   0  0  0  0  0  0  0  0  0  0  0  0
    3.7055    0.8368   19.8099 C   0  0  0  0  0  0  0  0  0  0  0  0
    4.4461    1.2054   20.9241 C   0  0  0  0  0  0  0  0  0  0  0  0
    5.2763    2.3046   20.9385 C   0  0  0  0  0  0  0  0  0  0  0  0
    6.1501    2.6502   22.4143 Cl  0  0  0  0  0  0  0  0  0  0  0  0
    5.3677    3.0547   19.8078 C   0  0  0  0  0  0  0  0  0  0  0  0
    4.6410    2.7225   18.6626 C   0  0  0  0  0  0  0  0  0  0  0  0
    3.8154    1.6264   18.6568 C   0  0  0  0  0  0  0  0  0  0  0  0
    3.0439    5.7838   15.5149 C   0  0  0  0  0  0  0  0  0  0  0  0
    1.8067    6.2375   15.0842 F   0  0  0  0  0  0  0  0  0  0  0  0
    3.2646    6.1325   16.8419 F   0  0  0  0  0  0  0  0  0  0  0  0
    4.0202    6.3790   14.7717 F   0  0  0  0  0  0  0  0  0  0  0  0
    3.1426    4.7190   13.0338 O   0  0  0  0  0  0  0  0  0  0  0  0
    2.2716    5.0811   12.0478 C   0  0  0  0  0  0  0  0  0  0  0  0
    0.8230    4.8187   12.2569 C   0  0  0  0  0  0  0  0  0  0  0  0
   -0.4850    6.1385   10.7289 C   0  0  0  0  0  0  0  0  0  0  0  0
    0.0355    4.8527   11.0538 N   0  0  0  0  0  0  0  0  0  0  0  0
   -0.8557    3.8109   10.9158 N   0  0  0  0  0  0  0  0  0  0  0  0
   -1.7933    4.1235   11.2656 H   0  0  0  0  0  0  0  0  0  0  0  0
   -0.9958    3.6609    9.8762 H   0  0  0  0  0  0  0  0  0  0  0  0
 25 26  1  0  0  0
 26 27  1  0  0  0
 26 24  1  0  0  0
 24 23  1  0  0  0
 23 22  1  0  0  0
 22  1  1  0  0  0
  1  2  2  0  0  0
  2  3  1  0  0  0
  3  4  2  0  0  0
  4  5  1  0  0  0
  5  6  2  0  0  0
  6 18  1  0  0  0
 18 19  1  0  0  0
 18 20  1  0  0  0
 18 21  1  0  0  0
  4  7  1  0  0  0
  7  8  2  0  0  0
  8  9  1  0  0  0
  9 10  2  0  0  0
 10 11  1  0  0  0
 11 12  2  0  0  0
 12 13  1  0  0  0
 13 14  1  0  0  0
 13 15  2  0  0  0
 15 16  1  0  0  0
 16 17  2  0  0  0
  6  1  1  0  0  0
 17  7  1  0  0  0
 17 11  1  0  0  0
 27 28  1  0  0  0
 27 29  1  0  0  0
M  END
> <minimizedAffinity>
-7.44841

> <CNNscore>
0.6322726011

> <CNNaffinity>
6.3818669319

> <CNN_VS>
4.0350794792

> <CNNaffinity_variance>
0.5829413533

$$$$
[H]c1nc([H])c2c([H])c(Cl)c([H])c([H])c2c1-c1c([H])c([H])c(OC([H])([H])C([H])([H])N(N([H])[H])C([H])([H])[H])c(C(F)(F)F)c1[H]


 29 31  0  0  0  0  0  0  0  0999 V2000
    3.1783    4.3152   13.3591 C   0  0  0  0  0  0  0  0  0  0  0  0
    3.1843    2.9511   13.1848 C   0  0  0  0  0  0  0  0  0  0  0  0
    3.1827    2.0350   14.2160 C   0  0  0  0  0  0  0  0  0  0  0  0
    3.1744    2.4625   15.5128 C   0  0  0  0  0  0  0  0  0  0  0  0
    3.1675    3.8234   15.7386 C   0  0  0  0  0  0  0  0  0  0  0  0
    3.1695    4.7287   14.7016 C   0  0  0  0  0  0  0  0  0  0  0  0
    3.1683    1.6233   16.6975 C   0  0  0  0  0  0  0  0  0  0  0  0
    2.4205    0.4283   16.6835 C   0  0  0  0  0  0  0  0  0  0  0  0
    2.3399   -0.3793   17.7486 N   0  0  0  0  0  0  0  0  0  0  0  0
    2.9683   -0.0938   18.8896 C   0  0  0  0  0  0  0  0  0  0  0  0
    3.7147    1.0506   18.9766 C   0  0  0  0  0  0  0  0  0  0  0  0
    4.3994    1.3956   20.1333 C   0  0  0  0  0  0  0  0  0  0  0  0
    5.1637    2.5371   20.2360 C   0  0  0  0  0  0  0  0  0  0  0  0
    5.9721    2.8459   21.7567 Cl  0  0  0  0  0  0  0  0  0  0  0  0
    5.2450    3.3547   19.1525 C   0  0  0  0  0  0  0  0  0  0  0  0
    4.5729    3.0486   17.9673 C   0  0  0  0  0  0  0  0  0  0  0  0
    3.8128    1.9099   17.8735 C   0  0  0  0  0  0  0  0  0  0  0  0
    3.1623    6.2029   14.9539 C   0  0  0  0  0  0  0  0  0  0  0  0
    4.2874    6.7583   14.3642 F   0  0  0  0  0  0  0  0  0  0  0  0
    2.0030    6.7782   14.4478 F   0  0  0  0  0  0  0  0  0  0  0  0
    3.1896    6.4574   16.2934 F   0  0  0  0  0  0  0  0  0  0  0  0
    3.1783    5.2806   12.4145 O   0  0  0  0  0  0  0  0  0  0  0  0
    3.9615    5.5918   11.3413 C   0  0  0  0  0  0  0  0  0  0  0  0
    3.5559    5.0852   10.0035 C   0  0  0  0  0  0  0  0  0  0  0  0
    3.5208    2.7278    9.5252 C   0  0  0  0  0  0  0  0  0  0  0  0
    4.2873    3.9280    9.5620 N   0  0  0  0  0  0  0  0  0  0  0  0
    5.5477    3.7986   10.1037 N   0  0  0  0  0  0  0  0  0  0  0  0
    5.4914    3.1624   10.9350 H   0  0  0  0  0  0  0  0  0  0  0  0
    6.1326    3.2654    9.3992 H   0  0  0  0  0  0  0  0  0  0  0  0
 25 26  1  0  0  0
 26 27  1  0  0  0
 26 24  1  0  0  0
 24 23  1  0  0  0
 23 22  1  0  0  0
 22  1  1  0  0  0
  1  2  2  0  0  0
  2  3  1  0  0  0
  3  4  2  0  0  0
  4  5  1  0  0  0
  5  6  2  0  0  0
  6 18  1  0  0  0
 18 19  1  0  0  0
 18 20  1  0  0  0
 18 21  1  0  0  0
  4  7  1  0  0  0
  7  8  2  0  0  0
  8  9  1  0  0  0
  9 10  2  0  0  0
 10 11  1  0  0  0
 11 12  2  0  0  0
 12 13  1  0  0  0
 13 14  1  0  0  0
 13 15  2  0  0  0
 15 16  1  0  0  0
 16 17  2  0  0  0
  6  1  1  0  0  0
 17  7  1  0  0  0
 17 11  1  0  0  0
 27 28  1  0  0  0
 27 29  1  0  0  0
M  END
> <minimizedAffinity>
-6.97154

> <CNNscore>
0.5615047812

> <CNNaffinity>
6.1993951797

> <CNN_VS>
3.4809899330

> <CNNaffinity_variance>
0.4999694228

$$$$
[H]c1nc([H])c2c([H])c(Cl)c([H])c([H])c2c1-c1c([H])c([H])c(OC([H])([H])C([H])([H])N(N([H])[H])C([H])([H])[H])c(C(F)(F)F)c1[H]


 29 31  0  0  0  0  0  0  0  0999 V2000
    2.9731    5.4577   12.6564 C   0  0  0  0  0  0  0  0  0  0  0  0
    3.9257    4.4663   12.6292 C   0  0  0  0  0  0  0  0  0  0  0  0
    4.0392    3.4702   13.5767 C   0  0  0  0  0  0  0  0  0  0  0  0
    3.1712    3.4236   14.6297 C   0  0  0  0  0  0  0  0  0  0  0  0
    2.1967    4.3975   14.7002 C   0  0  0  0  0  0  0  0  0  0  0  0
    2.0930    5.3871   13.7490 C   0  0  0  0  0  0  0  0  0  0  0  0
    3.1631    2.4403   15.6977 C   0  0  0  0  0  0  0  0  0  0  0  0
    2.4647    1.2307   15.5065 C   0  0  0  0  0  0  0  0  0  0  0  0
    2.3844    0.2912   16.4573 N   0  0  0  0  0  0  0  0  0  0  0  0
    2.9661    0.4510   17.6466 C   0  0  0  0  0  0  0  0  0  0  0  0
    3.6630    1.6010   17.9038 C   0  0  0  0  0  0  0  0  0  0  0  0
    4.2982    1.8197   19.1182 C   0  0  0  0  0  0  0  0  0  0  0  0
    5.0126    2.9655   19.3912 C   0  0  0  0  0  0  0  0  0  0  0  0
    5.7617    3.1063   20.9660 Cl  0  0  0  0  0  0  0  0  0  0  0  0
    5.0937    3.9173   18.4233 C   0  0  0  0  0  0  0  0  0  0  0  0
    4.4704    3.7411   17.1861 C   0  0  0  0  0  0  0  0  0  0  0  0
    3.7598    2.5972   16.9224 C   0  0  0  0  0  0  0  0  0  0  0  0
    1.0340    6.4401   13.8320 C   0  0  0  0  0  0  0  0  0  0  0  0
    0.1914    6.1379   14.8906 F   0  0  0  0  0  0  0  0  0  0  0  0
    1.6069    7.6952   13.9980 F   0  0  0  0  0  0  0  0  0  0  0  0
    0.3061    6.4761   12.6793 F   0  0  0  0  0  0  0  0  0  0  0  0
    2.7877    6.4659   11.7770 O   0  0  0  0  0  0  0  0  0  0  0  0
    3.5523    7.4865   11.2915 C   0  0  0  0  0  0  0  0  0  0  0  0
    4.0416    7.3946    9.8904 C   0  0  0  0  0  0  0  0  0  0  0  0
    6.2098    6.4968   10.4197 C   0  0  0  0  0  0  0  0  0  0  0  0
    5.4684    7.5140    9.7526 N   0  0  0  0  0  0  0  0  0  0  0  0
    5.9600    8.7917    9.9092 N   0  0  0  0  0  0  0  0  0  0  0  0
    6.2759    8.9099   10.9019 H   0  0  0  0  0  0  0  0  0  0  0  0
    6.8501    8.8516    9.3374 H   0  0  0  0  0  0  0  0  0  0  0  0
 25 26  1  0  0  0
 26 27  1  0  0  0
 26 24  1  0  0  0
 24 23  1  0  0  0
 23 22  1  0  0  0
 22  1  1  0  0  0
  1  2  2  0  0  0
  2  3  1  0  0  0
  3  4  2  0  0  0
  4  5  1  0  0  0
  5  6  2  0  0  0
  6 18  1  0  0  0
 18 19  1  0  0  0
 18 20  1  0  0  0
 18 21  1  0  0  0
  4  7  1  0  0  0
  7  8  2  0  0  0
  8  9  1  0  0  0
  9 10  2  0  0  0
 10 11  1  0  0  0
 11 12  2  0  0  0
 12 13  1  0  0  0
 13 14  1  0  0  0
 13 15  2  0  0  0
 15 16  1  0  0  0
 16 17  2  0  0  0
  6  1  1  0  0  0
 17  7  1  0  0  0
 17 11  1  0  0  0
 27 28  1  0  0  0
 27 29  1  0  0  0
M  END
> <minimizedAffinity>
-6.96331

> <CNNscore>
0.5551673174

> <CNNaffinity>
5.9433460236

> <CNN_VS>
3.2995514870

> <CNNaffinity_variance>
0.3436071277

$$$$
[H]c1nc([H])c2c([H])c(Cl)c([H])c([H])c2c1-c1c([H])c([H])c(OC([H])([H])C([H])([H])N(N([H])[H])C([H])([H])[H])c(C(F)(F)F)c1[H]


 29 31  0  0  0  0  0  0  0  0999 V2000
    3.6518    2.5487   15.8050 C   0  0  0  0  0  0  0  0  0  0  0  0
    4.2386    3.7868   15.6877 C   0  0  0  0  0  0  0  0  0  0  0  0
    4.8014    4.4837   16.7368 C   0  0  0  0  0  0  0  0  0  0  0  0
    4.8003    3.9496   17.9935 C   0  0  0  0  0  0  0  0  0  0  0  0
    4.2231    2.7080   18.1614 C   0  0  0  0  0  0  0  0  0  0  0  0
    3.6640    2.0217   17.1072 C   0  0  0  0  0  0  0  0  0  0  0  0
    5.3541    4.5582   19.1896 C   0  0  0  0  0  0  0  0  0  0  0  0
    5.8816    5.8631   19.1098 C   0  0  0  0  0  0  0  0  0  0  0  0
    6.4389    6.4766   20.1616 N   0  0  0  0  0  0  0  0  0  0  0  0
    6.5253    5.8806   21.3514 C   0  0  0  0  0  0  0  0  0  0  0  0
    6.0329    4.6124   21.5042 C   0  0  0  0  0  0  0  0  0  0  0  0
    6.0846    3.9451   22.7199 C   0  0  0  0  0  0  0  0  0  0  0  0
    5.5849    2.6734   22.8953 C   0  0  0  0  0  0  0  0  0  0  0  0
    5.7188    1.9542   24.4846 Cl  0  0  0  0  0  0  0  0  0  0  0  0
    5.0183    2.0533   21.8259 C   0  0  0  0  0  0  0  0  0  0  0  0
    4.9442    2.6854   20.5829 C   0  0  0  0  0  0  0  0  0  0  0  0
    5.4453    3.9520   20.4163 C   0  0  0  0  0  0  0  0  0  0  0  0
    3.0395    0.6760   17.2967 C   0  0  0  0  0  0  0  0  0  0  0  0
    3.1380    0.3268   18.6348 F   0  0  0  0  0  0  0  0  0  0  0  0
    1.7121    0.6926   16.8858 F   0  0  0  0  0  0  0  0  0  0  0  0
    3.6852   -0.2596   16.5434 F   0  0  0  0  0  0  0  0  0  0  0  0
    3.0805    1.7973   14.8390 O   0  0  0  0  0  0  0  0  0  0  0  0
    2.6052    2.0274   13.5808 C   0  0  0  0  0  0  0  0  0  0  0  0
    1.1418    2.2242   13.4062 C   0  0  0  0  0  0  0  0  0  0  0  0
    1.6947    4.4529   12.6888 C   0  0  0  0  0  0  0  0  0  0  0  0
    0.7897    3.3569   12.5925 N   0  0  0  0  0  0  0  0  0  0  0  0
   -0.5449    3.6983   12.6222 N   0  0  0  0  0  0  0  0  0  0  0  0
   -0.6811    4.4564   13.3333 H   0  0  0  0  0  0  0  0  0  0  0  0
   -0.7654    4.1604   11.6945 H   0  0  0  0  0  0  0  0  0  0  0  0
 25 26  1  0  0  0
 26 27  1  0  0  0
 26 24  1  0  0  0
 24 23  1  0  0  0
 23 22  1  0  0  0
 22  1  1  0  0  0
  1  2  2  0  0  0
  2  3  1  0  0  0
  3  4  2  0  0  0
  4  5  1  0  0  0
  5  6  2  0  0  0
  6 18  1  0  0  0
 18 19  1  0  0  0
 18 20  1  0  0  0
 18 21  1  0  0  0
  4  7  1  0  0  0
  7  8  2  0  0  0
  8  9  1  0  0  0
  9 10  2  0  0  0
 10 11  1  0  0  0
 11 12  2  0  0  0
 12 13  1  0  0  0
 13 14  1  0  0  0
 13 15  2  0  0  0
 15 16  1  0  0  0
 16 17  2  0  0  0
  6  1  1  0  0  0
 17  7  1  0  0  0
 17 11  1  0  0  0
 27 28  1  0  0  0
 27 29  1  0  0  0
M  END
> <minimizedAffinity>
-8.11006

> <CNNscore>
0.5426111221

> <CNNaffinity>
6.2446851730

> <CNN_VS>
3.3884356022

> <CNNaffinity_variance>
0.1662478745

$$$$
[H]c1nc([H])c2c([H])c(Cl)c([H])c([H])c2c1-c1c([H])c([H])c(OC([H])([H])C([H])([H])N(N([H])[H])C([H])([H])[H])c(C(F)(F)F)c1[H]


 29 31  0  0  0  0  0  0  0  0999 V2000
    5.6879    4.9347   21.1766 C   0  0  0  0  0  0  0  0  0  0  0  0
    5.8472    5.1648   19.8303 C   0  0  0  0  0  0  0  0  0  0  0  0
    5.3228    4.3643   18.8367 C   0  0  0  0  0  0  0  0  0  0  0  0
    4.5897    3.2593   19.1622 C   0  0  0  0  0  0  0  0  0  0  0  0
    4.4017    2.9868   20.5014 C   0  0  0  0  0  0  0  0  0  0  0  0
    4.9300    3.7927   21.4845 C   0  0  0  0  0  0  0  0  0  0  0  0
    3.9745    2.3282   18.2335 C   0  0  0  0  0  0  0  0  0  0  0  0
    3.5607    1.0661   18.7061 C   0  0  0  0  0  0  0  0  0  0  0  0
    3.0168    0.1430   17.9028 N   0  0  0  0  0  0  0  0  0  0  0  0
    2.8356    0.3705   16.6013 C   0  0  0  0  0  0  0  0  0  0  0  0
    3.2129    1.5751   16.0716 C   0  0  0  0  0  0  0  0  0  0  0  0
    3.0400    1.8738   14.7274 C   0  0  0  0  0  0  0  0  0  0  0  0
    3.4036    3.0839   14.1788 C   0  0  0  0  0  0  0  0  0  0  0  0
    3.1271    3.3221   12.4677 Cl  0  0  0  0  0  0  0  0  0  0  0  0
    3.9546    4.0200   14.9971 C   0  0  0  0  0  0  0  0  0  0  0  0
    4.1482    3.7641   16.3561 C   0  0  0  0  0  0  0  0  0  0  0  0
    3.7841    2.5556   16.8947 C   0  0  0  0  0  0  0  0  0  0  0  0
    4.7225    3.4910   22.9347 C   0  0  0  0  0  0  0  0  0  0  0  0
    5.9293    3.0780   23.4780 F   0  0  0  0  0  0  0  0  0  0  0  0
    4.2369    4.6099   23.6005 F   0  0  0  0  0  0  0  0  0  0  0  0
    3.8015    2.4969   23.0877 F   0  0  0  0  0  0  0  0  0  0  0  0
    6.1615    5.6605   22.2125 O   0  0  0  0  0  0  0  0  0  0  0  0
    7.1754    6.5562   22.3899 C   0  0  0  0  0  0  0  0  0  0  0  0
    6.8225    7.9802   22.6318 C   0  0  0  0  0  0  0  0  0  0  0  0
    6.1995    9.8360   21.2334 C   0  0  0  0  0  0  0  0  0  0  0  0
    5.8809    8.5249   21.6906 N   0  0  0  0  0  0  0  0  0  0  0  0
    4.5567    8.3265   22.0159 N   0  0  0  0  0  0  0  0  0  0  0  0
    4.2029    9.1783   22.5143 H   0  0  0  0  0  0  0  0  0  0  0  0
    4.0154    8.3065   21.1053 H   0  0  0  0  0  0  0  0  0  0  0  0
 25 26  1  0  0  0
 26 27  1  0  0  0
 26 24  1  0  0  0
 24 23  1  0  0  0
 23 22  1  0  0  0
 22  1  1  0  0  0
  1  2  2  0  0  0
  2  3  1  0  0  0
  3  4  2  0  0  0
  4  5  1  0  0  0
  5  6  2  0  0  0
  6 18  1  0  0  0
 18 19  1  0  0  0
 18 20  1  0  0  0
 18 21  1  0  0  0
  4  7  1  0  0  0
  7  8  2  0  0  0
  8  9  1  0  0  0
  9 10  2  0  0  0
 10 11  1  0  0  0
 11 12  2  0  0  0
 12 13  1  0  0  0
 13 14  1  0  0  0
 13 15  2  0  0  0
 15 16  1  0  0  0
 16 17  2  0  0  0
  6  1  1  0  0  0
 17  7  1  0  0  0
 17 11  1  0  0  0
 27 28  1  0  0  0
 27 29  1  0  0  0
M  END
> <minimizedAffinity>
-8.79029

> <CNNscore>
0.4947462380

> <CNNaffinity>
6.3628959656

> <CNN_VS>
3.1480188370

> <CNNaffinity_variance>
0.4174659252

$$$$
[H]c1nc([H])c2c([H])c(Cl)c([H])c([H])c2c1-c1c([H])c([H])c(OC([H])([H])C([H])([H])N(N([H])[H])C([H])([H])[H])c(C(F)(F)F)c1[H]


 29 31  0  0  0  0  0  0  0  0999 V2000
    4.4753    2.7814   22.2580 C   0  0  0  0  0  0  0  0  0  0  0  0
    3.8213    3.9797   22.4235 C   0  0  0  0  0  0  0  0  0  0  0  0
    4.4297    5.2153   22.3463 C   0  0  0  0  0  0  0  0  0  0  0  0
    5.7679    5.3057   22.0902 C   0  0  0  0  0  0  0  0  0  0  0  0
    6.4676    4.1297   21.9160 C   0  0  0  0  0  0  0  0  0  0  0  0
    5.8500    2.9020   21.9957 C   0  0  0  0  0  0  0  0  0  0  0  0
    6.5436    6.5276   21.9767 C   0  0  0  0  0  0  0  0  0  0  0  0
    7.0264    7.1411   23.1506 C   0  0  0  0  0  0  0  0  0  0  0  0
    7.7197    8.2865   23.1278 N   0  0  0  0  0  0  0  0  0  0  0  0
    7.9932    8.9136   21.9831 C   0  0  0  0  0  0  0  0  0  0  0  0
    7.5568    8.3756   20.8022 C   0  0  0  0  0  0  0  0  0  0  0  0
    7.8195    8.9764   19.5791 C   0  0  0  0  0  0  0  0  0  0  0  0
    7.3979    8.4444   18.3803 C   0  0  0  0  0  0  0  0  0  0  0  0
    7.8009    9.3106   16.9146 Cl  0  0  0  0  0  0  0  0  0  0  0  0
    6.6951    7.2805   18.4064 C   0  0  0  0  0  0  0  0  0  0  0  0
    6.4068    6.6403   19.6134 C   0  0  0  0  0  0  0  0  0  0  0  0
    6.8296    7.1773   20.8034 C   0  0  0  0  0  0  0  0  0  0  0  0
    6.6152    1.6309   21.8060 C   0  0  0  0  0  0  0  0  0  0  0  0
    6.6204    0.9344   23.0048 F   0  0  0  0  0  0  0  0  0  0  0  0
    6.0484    0.8676   20.7925 F   0  0  0  0  0  0  0  0  0  0  0  0
    7.9015    1.8987   21.4406 F   0  0  0  0  0  0  0  0  0  0  0  0
    3.9637    1.5328   22.3152 O   0  0  0  0  0  0  0  0  0  0  0  0
    2.9222    0.8800   21.7226 C   0  0  0  0  0  0  0  0  0  0  0  0
    3.2109   -0.3711   20.9727 C   0  0  0  0  0  0  0  0  0  0  0  0
    3.4860    1.0099   19.0221 C   0  0  0  0  0  0  0  0  0  0  0  0
    3.0768   -0.2503   19.5457 N   0  0  0  0  0  0  0  0  0  0  0  0
    1.8954   -0.7394   19.0320 N   0  0  0  0  0  0  0  0  0  0  0  0
    1.2186    0.0552   18.9330 H   0  0  0  0  0  0  0  0  0  0  0  0
    2.0950   -1.0448   18.0372 H   0  0  0  0  0  0  0  0  0  0  0  0
 25 26  1  0  0  0
 26 27  1  0  0  0
 26 24  1  0  0  0
 24 23  1  0  0  0
 23 22  1  0  0  0
 22  1  1  0  0  0
  1  2  2  0  0  0
  2  3  1  0  0  0
  3  4  2  0  0  0
  4  5  1  0  0  0
  5  6  2  0  0  0
  6 18  1  0  0  0
 18 19  1  0  0  0
 18 20  1  0  0  0
 18 21  1  0  0  0
  4  7  1  0  0  0
  7  8  2  0  0  0
  8  9  1  0  0  0
  9 10  2  0  0  0
 10 11  1  0  0  0
 11 12  2  0  0  0
 12 13  1  0  0  0
 13 14  1  0  0  0
 13 15  2  0  0  0
 15 16  1  0  0  0
 16 17  2  0  0  0
  6  1  1  0  0  0
 17  7  1  0  0  0
 17 11  1  0  0  0
 27 28  1  0  0  0
 27 29  1  0  0  0
M  END
> <minimizedAffinity>
-7.40107

> <CNNscore>
0.3757554591

> <CNNaffinity>
6.0052270889

> <CNN_VS>
2.2564969063

> <CNNaffinity_variance>
0.0987751111

$$$$
[H]c1nc([H])c2c([H])c(Cl)c([H])c([H])c2c1-c1c([H])c([H])c(OC([H])([H])C([H])([H])N(N([H])[H])C([H])([H])[H])c(C(F)(F)F)c1[H]


 29 31  0  0  0  0  0  0  0  0999 V2000
    4.4240    2.8328   21.9291 C   0  0  0  0  0  0  0  0  0  0  0  0
    3.7923    4.0421   21.7572 C   0  0  0  0  0  0  0  0  0  0  0  0
    4.4297    5.2066   21.3822 C   0  0  0  0  0  0  0  0  0  0  0  0
    5.7762    5.2084   21.1552 C   0  0  0  0  0  0  0  0  0  0  0  0
    6.4544    4.0178   21.3144 C   0  0  0  0  0  0  0  0  0  0  0  0
    5.8079    2.8617   21.6893 C   0  0  0  0  0  0  0  0  0  0  0  0
    6.5815    6.3479   20.7542 C   0  0  0  0  0  0  0  0  0  0  0  0
    6.6886    6.6594   19.3834 C   0  0  0  0  0  0  0  0  0  0  0  0
    7.4393    7.6738   18.9354 N   0  0  0  0  0  0  0  0  0  0  0  0
    8.1318    8.4505   19.7694 C   0  0  0  0  0  0  0  0  0  0  0  0
    8.0751    8.2080   21.1155 C   0  0  0  0  0  0  0  0  0  0  0  0
    8.7649    8.9881   22.0328 C   0  0  0  0  0  0  0  0  0  0  0  0
    8.7115    8.7659   23.3913 C   0  0  0  0  0  0  0  0  0  0  0  0
    9.6335    9.8293   24.4307 Cl  0  0  0  0  0  0  0  0  0  0  0  0
    7.9474    7.7360   23.8437 C   0  0  0  0  0  0  0  0  0  0  0  0
    7.2359    6.9240   22.9580 C   0  0  0  0  0  0  0  0  0  0  0  0
    7.2952    7.1515   21.6060 C   0  0  0  0  0  0  0  0  0  0  0  0
    6.5497    1.5743   21.8604 C   0  0  0  0  0  0  0  0  0  0  0  0
    6.5360    1.2308   23.2035 F   0  0  0  0  0  0  0  0  0  0  0  0
    5.9735    0.5735   21.0875 F   0  0  0  0  0  0  0  0  0  0  0  0
    7.8426    1.7107   21.4485 F   0  0  0  0  0  0  0  0  0  0  0  0
    3.8836    1.6492   22.2912 O   0  0  0  0  0  0  0  0  0  0  0  0
    2.8550    0.8720   21.8443 C   0  0  0  0  0  0  0  0  0  0  0  0
    3.1847   -0.3679   21.0927 C   0  0  0  0  0  0  0  0  0  0  0  0
    3.5307    1.0079   19.1498 C   0  0  0  0  0  0  0  0  0  0  0  0
    3.0765   -0.2406   19.6641 N   0  0  0  0  0  0  0  0  0  0  0  0
    1.8895   -0.6939   19.1308 N   0  0  0  0  0  0  0  0  0  0  0  0
    1.2380    0.1204   19.0231 H   0  0  0  0  0  0  0  0  0  0  0  0
    2.0957   -1.0032   18.1386 H   0  0  0  0  0  0  0  0  0  0  0  0
 25 26  1  0  0  0
 26 27  1  0  0  0
 26 24  1  0  0  0
 24 23  1  0  0  0
 23 22  1  0  0  0
 22  1  1  0  0  0
  1  2  2  0  0  0
  2  3  1  0  0  0
  3  4  2  0  0  0
  4  5  1  0  0  0
  5  6  2  0  0  0
  6 18  1  0  0  0
 18 19  1  0  0  0
 18 20  1  0  0  0
 18 21  1  0  0  0
  4  7  1  0  0  0
  7  8  2  0  0  0
  8  9  1  0  0  0
  9 10  2  0  0  0
 10 11  1  0  0  0
 11 12  2  0  0  0
 12 13  1  0  0  0
 13 14  1  0  0  0
 13 15  2  0  0  0
 15 16  1  0  0  0
 16 17  2  0  0  0
  6  1  1  0  0  0
 17  7  1  0  0  0
 17 11  1  0  0  0
 27 28  1  0  0  0
 27 29  1  0  0  0
M  END
> <minimizedAffinity>
-6.92380

> <CNNscore>
0.3713200390

> <CNNaffinity>
5.8618464470

> <CNN_VS>
2.1766209602

> <CNNaffinity_variance>
0.2039644718

$$$$
[H]c1nc([H])c2c([H])c(Cl)c([H])c([H])c2c1-c1c([H])c([H])c(OC([H])([H])C([H])([H])N(N([H])[H])C([H])([H])[H])c(C(F)(F)F)c1[H]


 29 31  0  0  0  0  0  0  0  0999 V2000
    3.7327    2.3327   16.3910 C   0  0  0  0  0  0  0  0  0  0  0  0
    3.0789    1.5674   15.4540 C   0  0  0  0  0  0  0  0  0  0  0  0
    2.7837    1.9885   14.1740 C   0  0  0  0  0  0  0  0  0  0  0  0
    3.1447    3.2398   13.7637 C   0  0  0  0  0  0  0  0  0  0  0  0
    3.8040    4.0455   14.6688 C   0  0  0  0  0  0  0  0  0  0  0  0
    4.0931    3.6148   15.9439 C   0  0  0  0  0  0  0  0  0  0  0  0
    2.9074    3.8199   12.4541 C   0  0  0  0  0  0  0  0  0  0  0  0
    3.9978    3.9958   11.5779 C   0  0  0  0  0  0  0  0  0  0  0  0
    3.8625    4.5541   10.3683 N   0  0  0  0  0  0  0  0  0  0  0  0
    2.6785    4.9773    9.9239 C   0  0  0  0  0  0  0  0  0  0  0  0
    1.5738    4.8381   10.7204 C   0  0  0  0  0  0  0  0  0  0  0  0
    0.3140    5.2497   10.3088 C   0  0  0  0  0  0  0  0  0  0  0  0
   -0.8105    5.1081   11.0920 C   0  0  0  0  0  0  0  0  0  0  0  0
   -2.3345    5.6725   10.4440 Cl  0  0  0  0  0  0  0  0  0  0  0  0
   -0.6704    4.5395   12.3193 C   0  0  0  0  0  0  0  0  0  0  0  0
    0.5775    4.1106   12.7761 C   0  0  0  0  0  0  0  0  0  0  0  0
    1.6930    4.2561   11.9901 C   0  0  0  0  0  0  0  0  0  0  0  0
    4.8081    4.4939   16.9202 C   0  0  0  0  0  0  0  0  0  0  0  0
    4.0722    4.5417   18.0942 F   0  0  0  0  0  0  0  0  0  0  0  0
    6.0905    4.0149   17.1589 F   0  0  0  0  0  0  0  0  0  0  0  0
    4.9336    5.7569   16.4213 F   0  0  0  0  0  0  0  0  0  0  0  0
    4.0624    2.0044   17.6588 O   0  0  0  0  0  0  0  0  0  0  0  0
    3.7168    1.0108   18.5278 C   0  0  0  0  0  0  0  0  0  0  0  0
    4.0768    1.1726   19.9614 C   0  0  0  0  0  0  0  0  0  0  0  0
    3.2901    1.0191   22.2297 C   0  0  0  0  0  0  0  0  0  0  0  0
    3.1292    0.5978   20.8783 N   0  0  0  0  0  0  0  0  0  0  0  0
    2.9071   -0.7517   20.7107 N   0  0  0  0  0  0  0  0  0  0  0  0
    3.5236   -1.2779   21.3757 H   0  0  0  0  0  0  0  0  0  0  0  0
    1.9223   -0.9463   21.0497 H   0  0  0  0  0  0  0  0  0  0  0  0
 25 26  1  0  0  0
 26 27  1  0  0  0
 26 24  1  0  0  0
 24 23  1  0  0  0
 23 22  1  0  0  0
 22  1  1  0  0  0
  1  2  2  0  0  0
  2  3  1  0  0  0
  3  4  2  0  0  0
  4  5  1  0  0  0
  5  6  2  0  0  0
  6 18  1  0  0  0
 18 19  1  0  0  0
 18 20  1  0  0  0
 18 21  1  0  0  0
  4  7  1  0  0  0
  7  8  2  0  0  0
  8  9  1  0  0  0
  9 10  2  0  0  0
 10 11  1  0  0  0
 11 12  2  0  0  0
 12 13  1  0  0  0
 13 14  1  0  0  0
 13 15  2  0  0  0
 15 16  1  0  0  0
 16 17  2  0  0  0
  6  1  1  0  0  0
 17  7  1  0  0  0
 17 11  1  0  0  0
 27 28  1  0  0  0
 27 29  1  0  0  0
M  END
> <minimizedAffinity>
-6.98971

> <CNNscore>
0.3029013276

> <CNNaffinity>
5.8143615723

> <CNN_VS>
1.7611778975

> <CNNaffinity_variance>
0.2284691632

$$$$
[H]c1c([H])c([N+](=O)[O-])c([H])c([H])c1-c1nc2c([H])c([H])c([H])c([H])c2c(=O)n1C([H])([H])c1c([H])c([H])c(N2C([H])([H])C([H])([H])OC([H])([H])C2([H])[H])c([H])c1[H]


 33 37  0  0  0  0  0  0  0  0999 V2000
    4.0392    3.5271   18.4830 C   0  0  0  0  0  0  0  0  0  0  0  0
    4.9092    3.0467   19.4533 N   0  0  0  0  0  0  0  0  0  0  0  0
    4.9178    1.8143   19.9233 C   0  0  0  0  0  0  0  0  0  0  0  0
    5.8085    1.3827   20.8998 C   0  0  0  0  0  0  0  0  0  0  0  0
    5.7829    0.0873   21.3663 C   0  0  0  0  0  0  0  0  0  0  0  0
    4.8794   -0.8433   20.8932 C   0  0  0  0  0  0  0  0  0  0  0  0
    4.0031   -0.4042   19.9272 C   0  0  0  0  0  0  0  0  0  0  0  0
    4.0160    0.8867   19.4510 C   0  0  0  0  0  0  0  0  0  0  0  0
    3.1514    1.3421   18.4956 C   0  0  0  0  0  0  0  0  0  0  0  0
    2.3158    0.5125   18.0465 O   0  0  0  0  0  0  0  0  0  0  0  0
    3.1742    2.6479   18.0285 N   0  0  0  0  0  0  0  0  0  0  0  0
    4.6144    7.6185   17.5077 C   0  0  0  0  0  0  0  0  0  0  0  0
    5.4394    6.7023   16.9159 C   0  0  0  0  0  0  0  0  0  0  0  0
    5.2555    5.3357   17.1860 C   0  0  0  0  0  0  0  0  0  0  0  0
    4.2941    4.8757   18.0128 C   0  0  0  0  0  0  0  0  0  0  0  0
    3.4620    5.8667   18.6018 C   0  0  0  0  0  0  0  0  0  0  0  0
    3.6014    7.2047   18.3694 C   0  0  0  0  0  0  0  0  0  0  0  0
    5.0203    9.4858   15.9965 O   0  0  0  0  0  0  0  0  0  0  0  0
    4.7693    9.0154   17.2587 N   0  0  0  0  0  0  0  0  0  0  0  0
    4.6788    9.8368   18.1840 O   0  0  0  0  0  0  0  0  0  0  0  0
    2.1399    2.9360   17.0783 C   0  0  0  0  0  0  0  0  0  0  0  0
    2.6403    3.4935   15.7880 C   0  0  0  0  0  0  0  0  0  0  0  0
    2.2621    4.7715   15.4209 C   0  0  0  0  0  0  0  0  0  0  0  0
    2.7455    5.3202   14.2726 C   0  0  0  0  0  0  0  0  0  0  0  0
    3.6202    4.6132   13.4544 C   0  0  0  0  0  0  0  0  0  0  0  0
    4.0183    3.3407   13.7871 C   0  0  0  0  0  0  0  0  0  0  0  0
    3.4992    2.8217   14.9683 C   0  0  0  0  0  0  0  0  0  0  0  0
    4.1164    5.2143   12.2556 N   0  0  0  0  0  0  0  0  0  0  0  0
    3.6650    6.4707   11.7376 C   0  0  0  0  0  0  0  0  0  0  0  0
    4.8053    7.2818   11.1706 C   0  0  0  0  0  0  0  0  0  0  0  0
    5.7222    6.5637   10.4480 O   0  0  0  0  0  0  0  0  0  0  0  0
    5.3631    5.2532   10.2177 C   0  0  0  0  0  0  0  0  0  0  0  0
    5.1497    4.4990   11.4976 C   0  0  0  0  0  0  0  0  0  0  0  0
 18 19  1  0  0  0
 19 20  2  0  0  0
 19 12  1  0  0  0
 12 13  2  0  0  0
 13 14  1  0  0  0
 14 15  2  0  0  0
 15 16  1  0  0  0
 16 17  2  0  0  0
 15  1  1  0  0  0
  1  2  2  0  0  0
  2  3  1  0  0  0
  3  4  2  0  0  0
  4  5  1  0  0  0
  5  6  2  0  0  0
  6  7  1  0  0  0
  7  8  2  0  0  0
  8  9  1  0  0  0
  9 10  2  0  0  0
  9 11  1  0  0  0
 11 21  1  0  0  0
 21 22  1  0  0  0
 22 23  2  0  0  0
 23 24  1  0  0  0
 24 25  2  0  0  0
 25 26  1  0  0  0
 26 27  2  0  0  0
 25 28  1  0  0  0
 28 29  1  0  0  0
 29 30  1  0  0  0
 30 31  1  0  0  0
 31 32  1  0  0  0
 32 33  1  0  0  0
 17 12  1  0  0  0
 11  1  1  0  0  0
 27 22  1  0  0  0
 33 28  1  0  0  0
  8  3  1  0  0  0
M  CHG 1  18  -1
M  CHG 1  19   1
M  END
> <minimizedAffinity>
-5.27748

> <CNNscore>
0.4185831249

> <CNNaffinity>
6.2750973701

> <CNN_VS>
2.6266498566

> <CNNaffinity_variance>
0.5140060186

$$$$
[H]c1c([H])c([N+](=O)[O-])c([H])c([H])c1-c1nc2c([H])c([H])c([H])c([H])c2c(=O)n1C([H])([H])c1c([H])c([H])c(N2C([H])([H])C([H])([H])OC([H])([H])C2([H])[H])c([H])c1[H]


 33 37  0  0  0  0  0  0  0  0999 V2000
    4.9669    5.7113    9.3069 C   0  0  0  0  0  0  0  0  0  0  0  0
    4.6889    7.0564    9.1002 N   0  0  0  0  0  0  0  0  0  0  0  0
    5.1207    7.7739    8.0812 C   0  0  0  0  0  0  0  0  0  0  0  0
    4.8170    9.1212    7.9213 C   0  0  0  0  0  0  0  0  0  0  0  0
    5.2904    9.8363    6.8437 C   0  0  0  0  0  0  0  0  0  0  0  0
    6.0845    9.2581    5.8736 C   0  0  0  0  0  0  0  0  0  0  0  0
    6.3781    7.9243    6.0429 C   0  0  0  0  0  0  0  0  0  0  0  0
    5.9130    7.1964    7.1140 C   0  0  0  0  0  0  0  0  0  0  0  0
    6.1974    5.8729    7.3012 C   0  0  0  0  0  0  0  0  0  0  0  0
    6.9209    5.3205    6.4297 O   0  0  0  0  0  0  0  0  0  0  0  0
    5.7242    5.1534    8.3886 N   0  0  0  0  0  0  0  0  0  0  0  0
    2.6771    3.6774   12.2464 C   0  0  0  0  0  0  0  0  0  0  0  0
    3.9722    3.9905   12.5545 C   0  0  0  0  0  0  0  0  0  0  0  0
    4.7499    4.6961   11.6208 C   0  0  0  0  0  0  0  0  0  0  0  0
    4.2775    5.0835   10.4183 C   0  0  0  0  0  0  0  0  0  0  0  0
    2.9261    4.7357   10.1460 C   0  0  0  0  0  0  0  0  0  0  0  0
    2.1316    4.0525   11.0210 C   0  0  0  0  0  0  0  0  0  0  0  0
    2.3972    2.0667   14.0527 O   0  0  0  0  0  0  0  0  0  0  0  0
    1.8551    2.9618   13.1681 N   0  0  0  0  0  0  0  0  0  0  0  0
    0.6271    3.1365   13.1884 O   0  0  0  0  0  0  0  0  0  0  0  0
    6.1951    3.7999    8.4304 C   0  0  0  0  0  0  0  0  0  0  0  0
    5.1229    2.7792    8.2445 C   0  0  0  0  0  0  0  0  0  0  0  0
    4.9625    1.7962    9.2032 C   0  0  0  0  0  0  0  0  0  0  0  0
    3.9596    0.8838    9.0804 C   0  0  0  0  0  0  0  0  0  0  0  0
    3.0857    0.9219    7.9992 C   0  0  0  0  0  0  0  0  0  0  0  0
    3.2142    1.8844    7.0268 C   0  0  0  0  0  0  0  0  0  0  0  0
    4.2524    2.7946    7.1942 C   0  0  0  0  0  0  0  0  0  0  0  0
    2.0382   -0.0460    7.8962 N   0  0  0  0  0  0  0  0  0  0  0  0
    1.3917   -0.4062    6.6703 C   0  0  0  0  0  0  0  0  0  0  0  0
    1.1139   -1.8887    6.6015 C   0  0  0  0  0  0  0  0  0  0  0  0
    0.6663   -2.4479    7.7700 O   0  0  0  0  0  0  0  0  0  0  0  0
    0.3845   -1.5361    8.7643 C   0  0  0  0  0  0  0  0  0  0  0  0
    1.5860   -0.7117    9.1236 C   0  0  0  0  0  0  0  0  0  0  0  0
 18 19  1  0  0  0
 19 20  2  0  0  0
 19 12  1  0  0  0
 12 13  2  0  0  0
 13 14  1  0  0  0
 14 15  2  0  0  0
 15 16  1  0  0  0
 16 17  2  0  0  0
 15  1  1  0  0  0
  1  2  2  0  0  0
  2  3  1  0  0  0
  3  4  2  0  0  0
  4  5  1  0  0  0
  5  6  2  0  0  0
  6  7  1  0  0  0
  7  8  2  0  0  0
  8  9  1  0  0  0
  9 10  2  0  0  0
  9 11  1  0  0  0
 11 21  1  0  0  0
 21 22  1  0  0  0
 22 23  2  0  0  0
 23 24  1  0  0  0
 24 25  2  0  0  0
 25 26  1  0  0  0
 26 27  2  0  0  0
 25 28  1  0  0  0
 28 29  1  0  0  0
 29 30  1  0  0  0
 30 31  1  0  0  0
 31 32  1  0  0  0
 32 33  1  0  0  0
 17 12  1  0  0  0
 11  1  1  0  0  0
 27 22  1  0  0  0
 33 28  1  0  0  0
  8  3  1  0  0  0
M  CHG 1  18  -1
M  CHG 1  19   1
M  END
> <minimizedAffinity>
-4.78939

> <CNNscore>
0.3673158288

> <CNNaffinity>
5.4464745522

> <CNN_VS>
2.0005762577

> <CNNaffinity_variance>
0.1431209296

$$$$
[H]c1c([H])c([N+](=O)[O-])c([H])c([H])c1-c1nc2c([H])c([H])c([H])c([H])c2c(=O)n1C([H])([H])c1c([H])c([H])c(N2C([H])([H])C([H])([H])OC([H])([H])C2([H])[H])c([H])c1[H]


 33 37  0  0  0  0  0  0  0  0999 V2000
    3.0900    3.1516   10.5678 C   0  0  0  0  0  0  0  0  0  0  0  0
    3.8920    2.2463    9.8849 N   0  0  0  0  0  0  0  0  0  0  0  0
    4.3916    2.4329    8.6786 C   0  0  0  0  0  0  0  0  0  0  0  0
    5.1875    1.4920    8.0349 C   0  0  0  0  0  0  0  0  0  0  0  0
    5.6877    1.7242    6.7730 C   0  0  0  0  0  0  0  0  0  0  0  0
    5.4277    2.8934    6.0863 C   0  0  0  0  0  0  0  0  0  0  0  0
    4.6389    3.8167    6.7337 C   0  0  0  0  0  0  0  0  0  0  0  0
    4.1315    3.5995    7.9942 C   0  0  0  0  0  0  0  0  0  0  0  0
    3.3433    4.5022    8.6509 C   0  0  0  0  0  0  0  0  0  0  0  0
    3.0903    5.5784    8.0461 O   0  0  0  0  0  0  0  0  0  0  0  0
    2.8358    4.2669    9.9202 N   0  0  0  0  0  0  0  0  0  0  0  0
    2.4055    2.4832   14.7038 C   0  0  0  0  0  0  0  0  0  0  0  0
    1.4326    2.0893   13.8271 C   0  0  0  0  0  0  0  0  0  0  0  0
    1.6393    2.2607   12.4478 C   0  0  0  0  0  0  0  0  0  0  0  0
    2.7638    2.8038   11.9380 C   0  0  0  0  0  0  0  0  0  0  0  0
    3.7450    3.1957   12.8894 C   0  0  0  0  0  0  0  0  0  0  0  0
    3.5900    3.0486   14.2378 C   0  0  0  0  0  0  0  0  0  0  0  0
    2.1456    3.4139   16.9402 O   0  0  0  0  0  0  0  0  0  0  0  0
    2.2329    2.3259   16.1119 N   0  0  0  0  0  0  0  0  0  0  0  0
    2.1572    1.1956   16.6176 O   0  0  0  0  0  0  0  0  0  0  0  0
    1.9782    5.3116   10.3984 C   0  0  0  0  0  0  0  0  0  0  0  0
    2.4473    5.9497   11.6629 C   0  0  0  0  0  0  0  0  0  0  0  0
    3.6985    6.5369   11.6909 C   0  0  0  0  0  0  0  0  0  0  0  0
    4.1281    7.1684   12.8178 C   0  0  0  0  0  0  0  0  0  0  0  0
    3.3254    7.2346   13.9515 C   0  0  0  0  0  0  0  0  0  0  0  0
    2.0759    6.6626   13.9607 C   0  0  0  0  0  0  0  0  0  0  0  0
    1.6797    6.0289   12.7879 C   0  0  0  0  0  0  0  0  0  0  0  0
    3.7992    7.9075   15.1209 N   0  0  0  0  0  0  0  0  0  0  0  0
    3.9603    9.3266   15.2243 C   0  0  0  0  0  0  0  0  0  0  0  0
    3.5416    9.8374   16.5820 C   0  0  0  0  0  0  0  0  0  0  0  0
    3.9256    9.0532   17.6385 O   0  0  0  0  0  0  0  0  0  0  0  0
    4.7724    8.0198   17.3001 C   0  0  0  0  0  0  0  0  0  0  0  0
    4.1526    7.0966   16.2921 C   0  0  0  0  0  0  0  0  0  0  0  0
 18 19  1  0  0  0
 19 20  2  0  0  0
 19 12  1  0  0  0
 12 13  2  0  0  0
 13 14  1  0  0  0
 14 15  2  0  0  0
 15 16  1  0  0  0
 16 17  2  0  0  0
 15  1  1  0  0  0
  1  2  2  0  0  0
  2  3  1  0  0  0
  3  4  2  0  0  0
  4  5  1  0  0  0
  5  6  2  0  0  0
  6  7  1  0  0  0
  7  8  2  0  0  0
  8  9  1  0  0  0
  9 10  2  0  0  0
  9 11  1  0  0  0
 11 21  1  0  0  0
 21 22  1  0  0  0
 22 23  2  0  0  0
 23 24  1  0  0  0
 24 25  2  0  0  0
 25 26  1  0  0  0
 26 27  2  0  0  0
 25 28  1  0  0  0
 28 29  1  0  0  0
 29 30  1  0  0  0
 30 31  1  0  0  0
 31 32  1  0  0  0
 32 33  1  0  0  0
 17 12  1  0  0  0
 11  1  1  0  0  0
 27 22  1  0  0  0
 33 28  1  0  0  0
  8  3  1  0  0  0
M  CHG 1  18  -1
M  CHG 1  19   1
M  END
> <minimizedAffinity>
-5.58111

> <CNNscore>
0.2676452994

> <CNNaffinity>
5.8622775078

> <CNN_VS>
1.5690109730

> <CNNaffinity_variance>
0.2091319859

$$$$
[H]c1c([H])c([N+](=O)[O-])c([H])c([H])c1-c1nc2c([H])c([H])c([H])c([H])c2c(=O)n1C([H])([H])c1c([H])c([H])c(N2C([H])([H])C([H])([H])OC([H])([H])C2([H])[H])c([H])c1[H]


 33 37  0  0  0  0  0  0  0  0999 V2000
    4.0447    3.2613   19.5914 C   0  0  0  0  0  0  0  0  0  0  0  0
    3.9824    2.2443   18.6475 N   0  0  0  0  0  0  0  0  0  0  0  0
    3.6546    2.4029   17.3798 C   0  0  0  0  0  0  0  0  0  0  0  0
    3.6029    1.3497   16.4737 C   0  0  0  0  0  0  0  0  0  0  0  0
    3.2530    1.5570   15.1580 C   0  0  0  0  0  0  0  0  0  0  0  0
    2.9379    2.8107   14.6733 C   0  0  0  0  0  0  0  0  0  0  0  0
    2.9927    3.8449   15.5796 C   0  0  0  0  0  0  0  0  0  0  0  0
    3.3402    3.6540   16.8972 C   0  0  0  0  0  0  0  0  0  0  0  0
    3.3960    4.6673   17.8123 C   0  0  0  0  0  0  0  0  0  0  0  0
    3.1127    5.8225   17.3958 O   0  0  0  0  0  0  0  0  0  0  0  0
    3.7443    4.4582   19.1386 N   0  0  0  0  0  0  0  0  0  0  0  0
    5.1523    1.9594   23.4772 C   0  0  0  0  0  0  0  0  0  0  0  0
    6.1523    2.1659   22.5674 C   0  0  0  0  0  0  0  0  0  0  0  0
    5.8273    2.6321   21.2823 C   0  0  0  0  0  0  0  0  0  0  0  0
    4.5608    2.8878   20.8948 C   0  0  0  0  0  0  0  0  0  0  0  0
    3.5580    2.6590   21.8764 C   0  0  0  0  0  0  0  0  0  0  0  0
    3.8247    2.2078   23.1369 C   0  0  0  0  0  0  0  0  0  0  0  0
    4.5077    0.7943   25.5174 O   0  0  0  0  0  0  0  0  0  0  0  0
    5.4419    1.4865   24.7924 N   0  0  0  0  0  0  0  0  0  0  0  0
    6.5510    1.6924   25.3088 O   0  0  0  0  0  0  0  0  0  0  0  0
    3.6747    5.6423   19.9440 C   0  0  0  0  0  0  0  0  0  0  0  0
    4.9934    6.0886   20.4807 C   0  0  0  0  0  0  0  0  0  0  0  0
    5.1325    6.2728   21.8437 C   0  0  0  0  0  0  0  0  0  0  0  0
    6.3393    6.6317   22.3616 C   0  0  0  0  0  0  0  0  0  0  0  0
    7.4446    6.8183   21.5384 C   0  0  0  0  0  0  0  0  0  0  0  0
    7.3443    6.6442   20.1790 C   0  0  0  0  0  0  0  0  0  0  0  0
    6.0929    6.2778   19.6954 C   0  0  0  0  0  0  0  0  0  0  0  0
    8.7018    7.1914   22.1086 N   0  0  0  0  0  0  0  0  0  0  0  0
    9.4208    8.3812   21.7652 C   0  0  0  0  0  0  0  0  0  0  0  0
   10.0622    9.0140   22.9768 C   0  0  0  0  0  0  0  0  0  0  0  0
   10.6330    8.1312   23.8561 O   0  0  0  0  0  0  0  0  0  0  0  0
   10.6746    6.8290   23.4067 C   0  0  0  0  0  0  0  0  0  0  0  0
    9.3037    6.2978   23.1051 C   0  0  0  0  0  0  0  0  0  0  0  0
 18 19  1  0  0  0
 19 20  2  0  0  0
 19 12  1  0  0  0
 12 13  2  0  0  0
 13 14  1  0  0  0
 14 15  2  0  0  0
 15 16  1  0  0  0
 16 17  2  0  0  0
 15  1  1  0  0  0
  1  2  2  0  0  0
  2  3  1  0  0  0
  3  4  2  0  0  0
  4  5  1  0  0  0
  5  6  2  0  0  0
  6  7  1  0  0  0
  7  8  2  0  0  0
  8  9  1  0  0  0
  9 10  2  0  0  0
  9 11  1  0  0  0
 11 21  1  0  0  0
 21 22  1  0  0  0
 22 23  2  0  0  0
 23 24  1  0  0  0
 24 25  2  0  0  0
 25 26  1  0  0  0
 26 27  2  0  0  0
 25 28  1  0  0  0
 28 29  1  0  0  0
 29 30  1  0  0  0
 30 31  1  0  0  0
 31 32  1  0  0  0
 32 33  1  0  0  0
 17 12  1  0  0  0
 11  1  1  0  0  0
 27 22  1  0  0  0
 33 28  1  0  0  0
  8  3  1  0  0  0
M  CHG 1  18  -1
M  CHG 1  19   1
M  END
> <minimizedAffinity>
-8.75564

> <CNNscore>
0.2593067288

> <CNNaffinity>
6.4116315842

> <CNN_VS>
1.6625791788

> <CNNaffinity_variance>
0.0755629018

$$$$
[H]c1c([H])c([N+](=O)[O-])c([H])c([H])c1-c1nc2c([H])c([H])c([H])c([H])c2c(=O)n1C([H])([H])c1c([H])c([H])c(N2C([H])([H])C([H])([H])OC([H])([H])C2([H])[H])c([H])c1[H]


 33 37  0  0  0  0  0  0  0  0999 V2000
    5.0990    5.9237    9.2391 C   0  0  0  0  0  0  0  0  0  0  0  0
    4.3739    7.0282    8.8107 N   0  0  0  0  0  0  0  0  0  0  0  0
    4.6979    7.8019    7.7929 C   0  0  0  0  0  0  0  0  0  0  0  0
    3.9392    8.9007    7.4056 C   0  0  0  0  0  0  0  0  0  0  0  0
    4.3137    9.6858    6.3380 C   0  0  0  0  0  0  0  0  0  0  0  0
    5.4525    9.4256    5.6021 C   0  0  0  0  0  0  0  0  0  0  0  0
    6.1951    8.3356    5.9951 C   0  0  0  0  0  0  0  0  0  0  0  0
    5.8343    7.5417    7.0595 C   0  0  0  0  0  0  0  0  0  0  0  0
    6.5608    6.4584    7.4670 C   0  0  0  0  0  0  0  0  0  0  0  0
    7.6056    6.1986    6.8121 O   0  0  0  0  0  0  0  0  0  0  0  0
    6.1861    5.6699    8.5449 N   0  0  0  0  0  0  0  0  0  0  0  0
    3.2357    3.2904   11.9987 C   0  0  0  0  0  0  0  0  0  0  0  0
    4.1627    4.1697   12.4864 C   0  0  0  0  0  0  0  0  0  0  0  0
    4.7737    5.0817   11.6092 C   0  0  0  0  0  0  0  0  0  0  0  0
    4.4896    5.1328   10.2916 C   0  0  0  0  0  0  0  0  0  0  0  0
    3.5192    4.2000    9.8339 C   0  0  0  0  0  0  0  0  0  0  0  0
    2.8984    3.2963   10.6473 C   0  0  0  0  0  0  0  0  0  0  0  0
    3.1665    1.9643   14.0412 O   0  0  0  0  0  0  0  0  0  0  0  0
    2.5931    2.3489   12.8576 N   0  0  0  0  0  0  0  0  0  0  0  0
    1.4966    1.8572   12.5496 O   0  0  0  0  0  0  0  0  0  0  0  0
    7.1222    4.6265    8.8460 C   0  0  0  0  0  0  0  0  0  0  0  0
    6.6915    3.2744    8.3852 C   0  0  0  0  0  0  0  0  0  0  0  0
    6.7300    2.2203    9.2787 C   0  0  0  0  0  0  0  0  0  0  0  0
    6.2954    0.9882    8.8959 C   0  0  0  0  0  0  0  0  0  0  0  0
    5.8093    0.7678    7.6117 C   0  0  0  0  0  0  0  0  0  0  0  0
    5.7559    1.7915    6.6965 C   0  0  0  0  0  0  0  0  0  0  0  0
    6.2102    3.0317    7.1320 C   0  0  0  0  0  0  0  0  0  0  0  0
    5.3553   -0.5352    7.2363 N   0  0  0  0  0  0  0  0  0  0  0  0
    5.4636   -1.0766    5.9151 C   0  0  0  0  0  0  0  0  0  0  0  0
    5.8286   -2.5414    5.9413 C   0  0  0  0  0  0  0  0  0  0  0  0
    5.1904   -3.2792    6.9041 O   0  0  0  0  0  0  0  0  0  0  0  0
    4.1990   -2.5981    7.5769 C   0  0  0  0  0  0  0  0  0  0  0  0
    4.7296   -1.3744    8.2651 C   0  0  0  0  0  0  0  0  0  0  0  0
 18 19  1  0  0  0
 19 20  2  0  0  0
 19 12  1  0  0  0
 12 13  2  0  0  0
 13 14  1  0  0  0
 14 15  2  0  0  0
 15 16  1  0  0  0
 16 17  2  0  0  0
 15  1  1  0  0  0
  1  2  2  0  0  0
  2  3  1  0  0  0
  3  4  2  0  0  0
  4  5  1  0  0  0
  5  6  2  0  0  0
  6  7  1  0  0  0
  7  8  2  0  0  0
  8  9  1  0  0  0
  9 10  2  0  0  0
  9 11  1  0  0  0
 11 21  1  0  0  0
 21 22  1  0  0  0
 22 23  2  0  0  0
 23 24  1  0  0  0
 24 25  2  0  0  0
 25 26  1  0  0  0
 26 27  2  0  0  0
 25 28  1  0  0  0
 28 29  1  0  0  0
 29 30  1  0  0  0
 30 31  1  0  0  0
 31 32  1  0  0  0
 32 33  1  0  0  0
 17 12  1  0  0  0
 11  1  1  0  0  0
 27 22  1  0  0  0
 33 28  1  0  0  0
  8  3  1  0  0  0
M  CHG 1  18  -1
M  CHG 1  19   1
M  END
> <minimizedAffinity>
-5.26503

> <CNNscore>
0.2499727458

> <CNNaffinity>
5.2706952095

> <CNN_VS>
1.3175301552

> <CNNaffinity_variance>
0.0612096563

$$$$
[H]c1c([H])c([N+](=O)[O-])c([H])c([H])c1-c1nc2c([H])c([H])c([H])c([H])c2c(=O)n1C([H])([H])c1c([H])c([H])c(N2C([H])([H])C([H])([H])OC([H])([H])C2([H])[H])c([H])c1[H]


 33 37  0  0  0  0  0  0  0  0999 V2000
    3.4447    3.7094   13.4495 C   0  0  0  0  0  0  0  0  0  0  0  0
    4.0661    3.4926   14.6726 N   0  0  0  0  0  0  0  0  0  0  0  0
    3.7119    2.5767   15.5532 C   0  0  0  0  0  0  0  0  0  0  0  0
    4.3652    2.4018   16.7679 C   0  0  0  0  0  0  0  0  0  0  0  0
    3.9622    1.4350   17.6620 C   0  0  0  0  0  0  0  0  0  0  0  0
    2.8975    0.5955   17.4017 C   0  0  0  0  0  0  0  0  0  0  0  0
    2.2590    0.7784   16.1963 C   0  0  0  0  0  0  0  0  0  0  0  0
    2.6495    1.7399   15.2927 C   0  0  0  0  0  0  0  0  0  0  0  0
    2.0255    1.9391   14.0934 C   0  0  0  0  0  0  0  0  0  0  0  0
    1.0500    1.1859   13.8307 O   0  0  0  0  0  0  0  0  0  0  0  0
    2.4285    2.9155   13.1944 N   0  0  0  0  0  0  0  0  0  0  0  0
    5.2836    6.8345   11.2418 C   0  0  0  0  0  0  0  0  0  0  0  0
    5.5880    5.5472   10.8946 C   0  0  0  0  0  0  0  0  0  0  0  0
    4.9707    4.4862   11.5785 C   0  0  0  0  0  0  0  0  0  0  0  0
    4.0823    4.6761   12.5755 C   0  0  0  0  0  0  0  0  0  0  0  0
    3.7983    6.0314   12.8980 C   0  0  0  0  0  0  0  0  0  0  0  0
    4.3717    7.0947   12.2619 C   0  0  0  0  0  0  0  0  0  0  0  0
    5.5791    8.2335    9.2693 O   0  0  0  0  0  0  0  0  0  0  0  0
    5.8896    7.9391   10.5710 N   0  0  0  0  0  0  0  0  0  0  0  0
    6.7132    8.6596   11.1553 O   0  0  0  0  0  0  0  0  0  0  0  0
    1.5976    3.0014   12.0292 C   0  0  0  0  0  0  0  0  0  0  0  0
    1.8158    1.9001   11.0466 C   0  0  0  0  0  0  0  0  0  0  0  0
    3.1090    1.5818   10.6759 C   0  0  0  0  0  0  0  0  0  0  0  0
    3.3359    0.5485    9.8190 C   0  0  0  0  0  0  0  0  0  0  0  0
    2.2822   -0.1996    9.3049 C   0  0  0  0  0  0  0  0  0  0  0  0
    0.9837    0.0875    9.6508 C   0  0  0  0  0  0  0  0  0  0  0  0
    0.8004    1.1508   10.5283 C   0  0  0  0  0  0  0  0  0  0  0  0
    2.5484   -1.2824    8.4096 N   0  0  0  0  0  0  0  0  0  0  0  0
    2.3891   -2.6648    8.7474 C   0  0  0  0  0  0  0  0  0  0  0  0
    1.8132   -3.4565    7.5979 C   0  0  0  0  0  0  0  0  0  0  0  0
    2.3168   -3.1346    6.3645 O   0  0  0  0  0  0  0  0  0  0  0  0
    3.3832   -2.2621    6.3967 C   0  0  0  0  0  0  0  0  0  0  0  0
    3.0233   -0.9638    7.0579 C   0  0  0  0  0  0  0  0  0  0  0  0
 18 19  1  0  0  0
 19 20  2  0  0  0
 19 12  1  0  0  0
 12 13  2  0  0  0
 13 14  1  0  0  0
 14 15  2  0  0  0
 15 16  1  0  0  0
 16 17  2  0  0  0
 15  1  1  0  0  0
  1  2  2  0  0  0
  2  3  1  0  0  0
  3  4  2  0  0  0
  4  5  1  0  0  0
  5  6  2  0  0  0
  6  7  1  0  0  0
  7  8  2  0  0  0
  8  9  1  0  0  0
  9 10  2  0  0  0
  9 11  1  0  0  0
 11 21  1  0  0  0
 21 22  1  0  0  0
 22 23  2  0  0  0
 23 24  1  0  0  0
 24 25  2  0  0  0
 25 26  1  0  0  0
 26 27  2  0  0  0
 25 28  1  0  0  0
 28 29  1  0  0  0
 29 30  1  0  0  0
 30 31  1  0  0  0
 31 32  1  0  0  0
 32 33  1  0  0  0
 17 12  1  0  0  0
 11  1  1  0  0  0
 27 22  1  0  0  0
 33 28  1  0  0  0
  8  3  1  0  0  0
M  CHG 1  18  -1
M  CHG 1  19   1
M  END
> <minimizedAffinity>
-7.02265

> <CNNscore>
0.2459093183

> <CNNaffinity>
5.6391029358

> <CNN_VS>
1.3867079020

> <CNNaffinity_variance>
0.0804697126

$$$$
[H]c1c([H])c([N+](=O)[O-])c([H])c([H])c1-c1nc2c([H])c([H])c([H])c([H])c2c(=O)n1C([H])([H])c1c([H])c([H])c(N2C([H])([H])C([H])([H])OC([H])([H])C2([H])[H])c([H])c1[H]


 33 37  0  0  0  0  0  0  0  0999 V2000
    3.3755    3.9561   13.1628 C   0  0  0  0  0  0  0  0  0  0  0  0
    4.0568    3.8897   14.3714 N   0  0  0  0  0  0  0  0  0  0  0  0
    3.8308    3.0056   15.3237 C   0  0  0  0  0  0  0  0  0  0  0  0
    4.5391    2.9836   16.5198 C   0  0  0  0  0  0  0  0  0  0  0  0
    4.2704    2.0448   17.4910 C   0  0  0  0  0  0  0  0  0  0  0  0
    3.2919    1.0843   17.3295 C   0  0  0  0  0  0  0  0  0  0  0  0
    2.5978    1.1165   16.1417 C   0  0  0  0  0  0  0  0  0  0  0  0
    2.8543    2.0479   15.1619 C   0  0  0  0  0  0  0  0  0  0  0  0
    2.1730    2.0982   13.9784 C   0  0  0  0  0  0  0  0  0  0  0  0
    1.2740    1.2323   13.8054 O   0  0  0  0  0  0  0  0  0  0  0  0
    2.4406    3.0462   13.0017 N   0  0  0  0  0  0  0  0  0  0  0  0
    5.0305    6.4210   10.1286 C   0  0  0  0  0  0  0  0  0  0  0  0
    3.9121    6.8720   10.7737 C   0  0  0  0  0  0  0  0  0  0  0  0
    3.3572    6.1006   11.8088 C   0  0  0  0  0  0  0  0  0  0  0  0
    3.8780    4.9202   12.2023 C   0  0  0  0  0  0  0  0  0  0  0  0
    5.0405    4.4957   11.5022 C   0  0  0  0  0  0  0  0  0  0  0  0
    5.6159    5.2104   10.4914 C   0  0  0  0  0  0  0  0  0  0  0  0
    5.4616    8.5340    8.9952 O   0  0  0  0  0  0  0  0  0  0  0  0
    5.6237    7.1756    9.0722 N   0  0  0  0  0  0  0  0  0  0  0  0
    6.3023    6.6150    8.1980 O   0  0  0  0  0  0  0  0  0  0  0  0
    1.5667    2.9651   11.8680 C   0  0  0  0  0  0  0  0  0  0  0  0
    2.2245    2.4515   10.6312 C   0  0  0  0  0  0  0  0  0  0  0  0
    2.1650    3.2114    9.4779 C   0  0  0  0  0  0  0  0  0  0  0  0
    2.7996    2.7871    8.3507 C   0  0  0  0  0  0  0  0  0  0  0  0
    3.5128    1.5933    8.3370 C   0  0  0  0  0  0  0  0  0  0  0  0
    3.5940    0.8117    9.4644 C   0  0  0  0  0  0  0  0  0  0  0  0
    2.9306    1.2849   10.5913 C   0  0  0  0  0  0  0  0  0  0  0  0
    4.1735    1.1726    7.1407 N   0  0  0  0  0  0  0  0  0  0  0  0
    3.9659    1.7661    5.8542 C   0  0  0  0  0  0  0  0  0  0  0  0
    5.2560    1.8797    5.0781 C   0  0  0  0  0  0  0  0  0  0  0  0
    6.0866    0.7938    5.1751 O   0  0  0  0  0  0  0  0  0  0  0  0
    5.5337   -0.2875    5.8267 C   0  0  0  0  0  0  0  0  0  0  0  0
    5.1214    0.0555    7.2284 C   0  0  0  0  0  0  0  0  0  0  0  0
 18 19  1  0  0  0
 19 20  2  0  0  0
 19 12  1  0  0  0
 12 13  2  0  0  0
 13 14  1  0  0  0
 14 15  2  0  0  0
 15 16  1  0  0  0
 16 17  2  0  0  0
 15  1  1  0  0  0
  1  2  2  0  0  0
  2  3  1  0  0  0
  3  4  2  0  0  0
  4  5  1  0  0  0
  5  6  2  0  0  0
  6  7  1  0  0  0
  7  8  2  0  0  0
  8  9  1  0  0  0
  9 10  2  0  0  0
  9 11  1  0  0  0
 11 21  1  0  0  0
 21 22  1  0  0  0
 22 23  2  0  0  0
 23 24  1  0  0  0
 24 25  2  0  0  0
 25 26  1  0  0  0
 26 27  2  0  0  0
 25 28  1  0  0  0
 28 29  1  0  0  0
 29 30  1  0  0  0
 30 31  1  0  0  0
 31 32  1  0  0  0
 32 33  1  0  0  0
 17 12  1  0  0  0
 11  1  1  0  0  0
 27 22  1  0  0  0
 33 28  1  0  0  0
  8  3  1  0  0  0
M  CHG 1  18  -1
M  CHG 1  19   1
M  END
> <minimizedAffinity>
-6.25240

> <CNNscore>
0.2372873276

> <CNNaffinity>
5.6331734657

> <CNN_VS>
1.3366806507

> <CNNaffinity_variance>
0.0965921357

$$$$
[H]c1c([H])c([N+](=O)[O-])c([H])c([H])c1-c1nc2c([H])c([H])c([H])c([H])c2c(=O)n1C([H])([H])c1c([H])c([H])c(N2C([H])([H])C([H])([H])OC([H])([H])C2([H])[H])c([H])c1[H]


 33 37  0  0  0  0  0  0  0  0999 V2000
    3.4767   -0.7464    8.8716 C   0  0  0  0  0  0  0  0  0  0  0  0
    3.6079   -2.1283    8.9201 N   0  0  0  0  0  0  0  0  0  0  0  0
    2.6167   -2.9801    9.0974 C   0  0  0  0  0  0  0  0  0  0  0  0
    2.8010   -4.3574    9.1425 C   0  0  0  0  0  0  0  0  0  0  0  0
    1.7391   -5.2134    9.3326 C   0  0  0  0  0  0  0  0  0  0  0  0
    0.4466   -4.7533    9.4870 C   0  0  0  0  0  0  0  0  0  0  0  0
    0.2770   -3.3884    9.4406 C   0  0  0  0  0  0  0  0  0  0  0  0
    1.3276   -2.5201    9.2516 C   0  0  0  0  0  0  0  0  0  0  0  0
    1.1795   -1.1624    9.2069 C   0  0  0  0  0  0  0  0  0  0  0  0
    0.0093   -0.7157    9.3454 O   0  0  0  0  0  0  0  0  0  0  0  0
    2.2494   -0.2997    9.0197 N   0  0  0  0  0  0  0  0  0  0  0  0
    6.7199    1.6826    7.6054 C   0  0  0  0  0  0  0  0  0  0  0  0
    6.8214    1.0727    8.8253 C   0  0  0  0  0  0  0  0  0  0  0  0
    5.7839    0.2317    9.2621 C   0  0  0  0  0  0  0  0  0  0  0  0
    4.6765   -0.0058    8.5296 C   0  0  0  0  0  0  0  0  0  0  0  0
    4.6189    0.6498    7.2693 C   0  0  0  0  0  0  0  0  0  0  0  0
    5.6013    1.4744    6.8020 C   0  0  0  0  0  0  0  0  0  0  0  0
    8.1724    3.6217    7.8610 O   0  0  0  0  0  0  0  0  0  0  0  0
    7.7524    2.5439    7.1266 N   0  0  0  0  0  0  0  0  0  0  0  0
    8.2944    2.3333    6.0307 O   0  0  0  0  0  0  0  0  0  0  0  0
    1.8856    1.0862    9.0730 C   0  0  0  0  0  0  0  0  0  0  0  0
    2.0596    1.7071   10.4185 C   0  0  0  0  0  0  0  0  0  0  0  0
    3.0677    2.6353   10.6008 C   0  0  0  0  0  0  0  0  0  0  0  0
    3.2145    3.2518   11.8057 C   0  0  0  0  0  0  0  0  0  0  0  0
    2.3623    2.9630   12.8661 C   0  0  0  0  0  0  0  0  0  0  0  0
    1.3489    2.0461   12.7219 C   0  0  0  0  0  0  0  0  0  0  0  0
    1.2373    1.4421   11.4742 C   0  0  0  0  0  0  0  0  0  0  0  0
    2.5359    3.6277   14.1201 N   0  0  0  0  0  0  0  0  0  0  0  0
    3.0375    4.9614   14.2625 C   0  0  0  0  0  0  0  0  0  0  0  0
    2.3057    5.7195   15.3439 C   0  0  0  0  0  0  0  0  0  0  0  0
    2.0337    4.9949   16.4750 O   0  0  0  0  0  0  0  0  0  0  0  0
    2.6195    3.7478   16.5049 C   0  0  0  0  0  0  0  0  0  0  0  0
    2.1867    2.8990   15.3453 C   0  0  0  0  0  0  0  0  0  0  0  0
 18 19  1  0  0  0
 19 20  2  0  0  0
 19 12  1  0  0  0
 12 13  2  0  0  0
 13 14  1  0  0  0
 14 15  2  0  0  0
 15 16  1  0  0  0
 16 17  2  0  0  0
 15  1  1  0  0  0
  1  2  2  0  0  0
  2  3  1  0  0  0
  3  4  2  0  0  0
  4  5  1  0  0  0
  5  6  2  0  0  0
  6  7  1  0  0  0
  7  8  2  0  0  0
  8  9  1  0  0  0
  9 10  2  0  0  0
  9 11  1  0  0  0
 11 21  1  0  0  0
 21 22  1  0  0  0
 22 23  2  0  0  0
 23 24  1  0  0  0
 24 25  2  0  0  0
 25 26  1  0  0  0
 26 27  2  0  0  0
 25 28  1  0  0  0
 28 29  1  0  0  0
 29 30  1  0  0  0
 30 31  1  0  0  0
 31 32  1  0  0  0
 32 33  1  0  0  0
 17 12  1  0  0  0
 11  1  1  0  0  0
 27 22  1  0  0  0
 33 28  1  0  0  0
  8  3  1  0  0  0
M  CHG 1  18  -1
M  CHG 1  19   1
M  END
> <minimizedAffinity>
-6.19596

> <CNNscore>
0.2308067381

> <CNNaffinity>
5.5405936241

> <CNN_VS>
1.2788063288

> <CNNaffinity_variance>
0.0875097662

$$$$
[H]c1c([H])c([N+](=O)[O-])c([H])c([H])c1-c1nc2c([H])c([H])c([H])c([H])c2c(=O)n1C([H])([H])c1c([H])c([H])c(N2C([H])([H])C([H])([H])OC([H])([H])C2([H])[H])c([H])c1[H]


 33 37  0  0  0  0  0  0  0  0999 V2000
    5.1116    4.0952   19.3620 C   0  0  0  0  0  0  0  0  0  0  0  0
    4.6486    3.6221   20.5831 N   0  0  0  0  0  0  0  0  0  0  0  0
    4.1183    2.4315   20.7853 C   0  0  0  0  0  0  0  0  0  0  0  0
    3.6651    2.0058   22.0288 C   0  0  0  0  0  0  0  0  0  0  0  0
    3.1145    0.7549   22.1977 C   0  0  0  0  0  0  0  0  0  0  0  0
    2.9846   -0.1350   21.1501 C   0  0  0  0  0  0  0  0  0  0  0  0
    3.4365    0.2978   19.9245 C   0  0  0  0  0  0  0  0  0  0  0  0
    3.9888    1.5445   19.7396 C   0  0  0  0  0  0  0  0  0  0  0  0
    4.4390    1.9933   18.5299 C   0  0  0  0  0  0  0  0  0  0  0  0
    4.3320    1.2003   17.5564 O   0  0  0  0  0  0  0  0  0  0  0  0
    4.9898    3.2547   18.3587 N   0  0  0  0  0  0  0  0  0  0  0  0
    7.1937    7.7578   19.8830 C   0  0  0  0  0  0  0  0  0  0  0  0
    7.0972    7.2569   18.6141 C   0  0  0  0  0  0  0  0  0  0  0  0
    6.3841    6.0656   18.3974 C   0  0  0  0  0  0  0  0  0  0  0  0
    5.7834    5.3807   19.3921 C   0  0  0  0  0  0  0  0  0  0  0  0
    5.9112    5.9427   20.6919 C   0  0  0  0  0  0  0  0  0  0  0  0
    6.5925    7.0968   20.9515 C   0  0  0  0  0  0  0  0  0  0  0  0
    8.4919    9.1931   21.3628 O   0  0  0  0  0  0  0  0  0  0  0  0
    7.9093    8.9649   20.1437 N   0  0  0  0  0  0  0  0  0  0  0  0
    8.0202    9.8365   19.2679 O   0  0  0  0  0  0  0  0  0  0  0  0
    5.3349    3.5508   16.9989 C   0  0  0  0  0  0  0  0  0  0  0  0
    4.1913    4.0428   16.1767 C   0  0  0  0  0  0  0  0  0  0  0  0
    3.9782    3.4882   14.9285 C   0  0  0  0  0  0  0  0  0  0  0  0
    2.9123    3.8857   14.1808 C   0  0  0  0  0  0  0  0  0  0  0  0
    2.0258    4.8478   14.6527 C   0  0  0  0  0  0  0  0  0  0  0  0
    2.2055    5.4211   15.8886 C   0  0  0  0  0  0  0  0  0  0  0  0
    3.3071    4.9842   16.6163 C   0  0  0  0  0  0  0  0  0  0  0  0
    0.9119    5.2447   13.8488 N   0  0  0  0  0  0  0  0  0  0  0  0
    0.2311    6.4978   13.9776 C   0  0  0  0  0  0  0  0  0  0  0  0
   -0.1512    7.0653   12.6317 C   0  0  0  0  0  0  0  0  0  0  0  0
   -0.6269    6.1480   11.7314 O   0  0  0  0  0  0  0  0  0  0  0  0
   -0.8352    4.8913   12.2577 C   0  0  0  0  0  0  0  0  0  0  0  0
    0.4245    4.3087   12.8287 C   0  0  0  0  0  0  0  0  0  0  0  0
 18 19  1  0  0  0
 19 20  2  0  0  0
 19 12  1  0  0  0
 12 13  2  0  0  0
 13 14  1  0  0  0
 14 15  2  0  0  0
 15 16  1  0  0  0
 16 17  2  0  0  0
 15  1  1  0  0  0
  1  2  2  0  0  0
  2  3  1  0  0  0
  3  4  2  0  0  0
  4  5  1  0  0  0
  5  6  2  0  0  0
  6  7  1  0  0  0
  7  8  2  0  0  0
  8  9  1  0  0  0
  9 10  2  0  0  0
  9 11  1  0  0  0
 11 21  1  0  0  0
 21 22  1  0  0  0
 22 23  2  0  0  0
 23 24  1  0  0  0
 24 25  2  0  0  0
 25 26  1  0  0  0
 26 27  2  0  0  0
 25 28  1  0  0  0
 28 29  1  0  0  0
 29 30  1  0  0  0
 30 31  1  0  0  0
 31 32  1  0  0  0
 32 33  1  0  0  0
 17 12  1  0  0  0
 11  1  1  0  0  0
 27 22  1  0  0  0
 33 28  1  0  0  0
  8  3  1  0  0  0
M  CHG 1  18  -1
M  CHG 1  19   1
M  END
> <minimizedAffinity>
-9.09797

> <CNNscore>
0.2282195240

> <CNNaffinity>
6.1042213440

> <CNN_VS>
1.3931025267

> <CNNaffinity_variance>
0.2167562693

$$$$
[H]c1c([H])c(OC([H])([H])C([H])([H])OC([H])([H])C([H])([H])[H])c([H])c(C(=O)c2c([H])c([H])c(C(=O)N([H])[C@]3([H])C4([H])[C]C([H])([H])C([H])([H])[C@@]([H])(C([H])(N([H])C(=O)C(F)(F)F)C4([H])[H])C3([H])[H])c([H])c2[H])c1[H]


 41 44  0  0  0  0  0  0  0  0999 V2000
    2.8234    4.6754   13.5699 C   0  0  0  0  0  0  0  0  0  0  0  0
    1.6672    5.0744   13.2516 O   0  0  0  0  0  0  0  0  0  0  0  0
    3.9552    5.2078   12.9108 N   0  0  0  0  0  0  0  0  0  0  0  0
    4.9127    4.8806   13.1737 H   0  0  0  0  0  0  0  0  0  0  0  0
    3.8569    6.1926   11.8829 C   0  0  0  0  0  0  0  0  0  0  0  0
    5.1540    6.9510   11.7159 C   0  0  0  0  0  0  0  0  0  0  0  0
    5.8423    6.5655   10.4493 C   0  0  0  0  0  0  0  0  0  0  0  0
    6.3080    5.1613   10.5345 C   0  0  0  0  0  0  0  0  0  0  0  0
    5.3241    4.1259   10.1399 C   0  0  0  0  0  0  0  0  0  0  0  0
    3.9256    4.5110    9.9810 C   0  0  0  0  0  0  0  0  0  0  0  0
    3.3919    5.7365   10.5556 C   0  0  0  0  0  0  0  0  0  0  0  0
    3.5906    6.8866    9.5747 C   0  0  0  0  0  0  0  0  0  0  0  0
    5.0538    6.8680    9.1997 C   0  0  0  0  0  0  0  0  0  0  0  0
    5.4792    8.0674    8.5491 N   0  0  0  0  0  0  0  0  0  0  0  0
    5.3762    8.2626    7.1434 C   0  0  0  0  0  0  0  0  0  0  0  0
    4.8846    7.3360    6.4195 O   0  0  0  0  0  0  0  0  0  0  0  0
    5.8839    8.8379    9.1174 H   0  0  0  0  0  0  0  0  0  0  0  0
    5.8183    9.5025    6.4737 C   0  0  0  0  0  0  0  0  0  0  0  0
    5.9475   10.5486    7.3767 F   0  0  0  0  0  0  0  0  0  0  0  0
    4.9673    9.8725    5.4333 F   0  0  0  0  0  0  0  0  0  0  0  0
    7.0575    9.2984    5.9053 F   0  0  0  0  0  0  0  0  0  0  0  0
    3.0833    1.6772   16.6273 C   0  0  0  0  0  0  0  0  0  0  0  0
    2.8887    1.3491   15.2772 C   0  0  0  0  0  0  0  0  0  0  0  0
    2.8099    2.3252   14.3191 C   0  0  0  0  0  0  0  0  0  0  0  0
    2.9154    3.6709   14.6205 C   0  0  0  0  0  0  0  0  0  0  0  0
    3.1068    3.9849   15.9526 C   0  0  0  0  0  0  0  0  0  0  0  0
    3.1892    3.0117   16.9357 C   0  0  0  0  0  0  0  0  0  0  0  0
    3.1445    0.6188   17.6275 C   0  0  0  0  0  0  0  0  0  0  0  0
    2.7917   -0.5481   17.2468 O   0  0  0  0  0  0  0  0  0  0  0  0
    4.9281    1.9283   20.6232 C   0  0  0  0  0  0  0  0  0  0  0  0
    4.3502    1.1583   21.6267 C   0  0  0  0  0  0  0  0  0  0  0  0
    3.3942    0.2460   21.2786 C   0  0  0  0  0  0  0  0  0  0  0  0
    3.0061    0.0834   19.9867 C   0  0  0  0  0  0  0  0  0  0  0  0
    3.5805    0.8473   18.9944 C   0  0  0  0  0  0  0  0  0  0  0  0
    4.5400    1.7687   19.3132 C   0  0  0  0  0  0  0  0  0  0  0  0
    5.9146    2.8752   20.9405 O   0  0  0  0  0  0  0  0  0  0  0  0
    5.5486    3.9663   21.7566 C   0  0  0  0  0  0  0  0  0  0  0  0
    5.7865    5.2358   20.9327 C   0  0  0  0  0  0  0  0  0  0  0  0
    4.6544    5.3660   20.1085 O   0  0  0  0  0  0  0  0  0  0  0  0
    3.7753    6.8056   18.4438 C   0  0  0  0  0  0  0  0  0  0  0  0
    4.4633    6.7167   19.7875 C   0  0  0  0  0  0  0  0  0  0  0  0
 40 41  1  0  0  0
 41 39  1  0  0  0
 39 38  1  0  0  0
 38 37  1  0  0  0
 37 36  1  0  0  0
 36 30  1  0  0  0
 30 31  2  0  0  0
 31 32  1  0  0  0
 32 33  2  0  0  0
 33 34  1  0  0  0
 34 35  2  0  0  0
 34 28  1  0  0  0
 28 29  2  0  0  0
 28 22  1  0  0  0
 22 23  2  0  0  0
 23 24  1  0  0  0
 24 25  2  0  0  0
 25 26  1  0  0  0
 26 27  2  0  0  0
 25  1  1  0  0  0
  1  2  2  0  0  0
  1  3  1  0  0  0
  3  5  1  0  0  0
  5  6  1  0  0  0
  6  7  1  0  0  0
  7  8  1  0  0  0
  8  9  1  0  0  0
  9 10  1  0  0  0
 10 11  1  0  0  0
 11 12  1  0  0  0
 12 13  1  0  0  0
 13 14  1  0  0  0
 14 15  1  0  0  0
 15 16  2  0  0  0
 15 18  1  0  0  0
 18 19  1  0  0  0
 18 20  1  0  0  0
 18 21  1  0  0  0
 35 30  1  0  0  0
 27 22  1  0  0  0
 11  5  1  0  0  0
 13  7  1  0  0  0
  3  4  1  0  0  0
 14 17  1  0  0  0
M  END
> <minimizedAffinity>
-8.29435

> <CNNscore>
0.6710165143

> <CNNaffinity>
6.5467681885

> <CNN_VS>
4.3929896355

> <CNNaffinity_variance>
0.3010599315

$$$$
[H]c1c([H])c(OC([H])([H])C([H])([H])OC([H])([H])C([H])([H])[H])c([H])c(C(=O)c2c([H])c([H])c(C(=O)N([H])[C@]3([H])C4([H])[C]C([H])([H])C([H])([H])[C@@]([H])(C([H])(N([H])C(=O)C(F)(F)F)C4([H])[H])C3([H])[H])c([H])c2[H])c1[H]


 41 44  0  0  0  0  0  0  0  0999 V2000
    3.0517    5.3315   14.8447 C   0  0  0  0  0  0  0  0  0  0  0  0
    1.8023    5.1483   14.7923 O   0  0  0  0  0  0  0  0  0  0  0  0
    3.7583    5.6864   13.6726 N   0  0  0  0  0  0  0  0  0  0  0  0
    4.7916    5.8401   13.7138 H   0  0  0  0  0  0  0  0  0  0  0  0
    3.1198    5.8514   12.4072 C   0  0  0  0  0  0  0  0  0  0  0  0
    3.3157    7.2492   11.8656 C   0  0  0  0  0  0  0  0  0  0  0  0
    4.2627    7.2505   10.7125 C   0  0  0  0  0  0  0  0  0  0  0  0
    5.6254    6.8998   11.1773 C   0  0  0  0  0  0  0  0  0  0  0  0
    5.9376    5.4526   11.2399 C   0  0  0  0  0  0  0  0  0  0  0  0
    4.8437    4.4932   11.1293 C   0  0  0  0  0  0  0  0  0  0  0  0
    3.4570    4.8742   11.3502 C   0  0  0  0  0  0  0  0  0  0  0  0
    2.8538    5.3780   10.0439 C   0  0  0  0  0  0  0  0  0  0  0  0
    3.7982    6.4388    9.5293 C   0  0  0  0  0  0  0  0  0  0  0  0
    3.2268    7.2407    8.4932 N   0  0  0  0  0  0  0  0  0  0  0  0
    3.9869    7.7558    7.4062 C   0  0  0  0  0  0  0  0  0  0  0  0
    5.2335    7.4989    7.3398 O   0  0  0  0  0  0  0  0  0  0  0  0
    2.2123    7.4646    8.5248 H   0  0  0  0  0  0  0  0  0  0  0  0
    3.3940    8.5857    6.3380 C   0  0  0  0  0  0  0  0  0  0  0  0
    2.1856    8.0618    5.9002 F   0  0  0  0  0  0  0  0  0  0  0  0
    4.2601    8.7542    5.2587 F   0  0  0  0  0  0  0  0  0  0  0  0
    3.1378    9.8482    6.8287 F   0  0  0  0  0  0  0  0  0  0  0  0
    4.9169    4.8721   18.6806 C   0  0  0  0  0  0  0  0  0  0  0  0
    3.8366    5.7439   18.4775 C   0  0  0  0  0  0  0  0  0  0  0  0
    3.2573    5.8724   17.2426 C   0  0  0  0  0  0  0  0  0  0  0  0
    3.6958    5.1620   16.1398 C   0  0  0  0  0  0  0  0  0  0  0  0
    4.7603    4.3058   16.3491 C   0  0  0  0  0  0  0  0  0  0  0  0
    5.3590    4.1625   17.5906 C   0  0  0  0  0  0  0  0  0  0  0  0
    5.5255    4.7698   20.0010 C   0  0  0  0  0  0  0  0  0  0  0  0
    6.3061    5.7199   20.3455 O   0  0  0  0  0  0  0  0  0  0  0  0
    3.9906    1.8149   21.6694 C   0  0  0  0  0  0  0  0  0  0  0  0
    4.8951    1.6018   22.7039 C   0  0  0  0  0  0  0  0  0  0  0  0
    5.9748    2.4331   22.8064 C   0  0  0  0  0  0  0  0  0  0  0  0
    6.1743    3.4485   21.9258 C   0  0  0  0  0  0  0  0  0  0  0  0
    5.2764    3.6575   20.9020 C   0  0  0  0  0  0  0  0  0  0  0  0
    4.1863    2.8410   20.7745 C   0  0  0  0  0  0  0  0  0  0  0  0
    2.8682    0.9832   21.5314 O   0  0  0  0  0  0  0  0  0  0  0  0
    3.0077   -0.1990   20.7741 C   0  0  0  0  0  0  0  0  0  0  0  0
    3.2520    0.2296   19.3237 C   0  0  0  0  0  0  0  0  0  0  0  0
    2.2205   -0.3673   18.5771 O   0  0  0  0  0  0  0  0  0  0  0  0
    3.2260    0.9983   16.9216 C   0  0  0  0  0  0  0  0  0  0  0  0
    2.5421   -0.3184   17.2140 C   0  0  0  0  0  0  0  0  0  0  0  0
 40 41  1  0  0  0
 41 39  1  0  0  0
 39 38  1  0  0  0
 38 37  1  0  0  0
 37 36  1  0  0  0
 36 30  1  0  0  0
 30 31  2  0  0  0
 31 32  1  0  0  0
 32 33  2  0  0  0
 33 34  1  0  0  0
 34 35  2  0  0  0
 34 28  1  0  0  0
 28 29  2  0  0  0
 28 22  1  0  0  0
 22 23  2  0  0  0
 23 24  1  0  0  0
 24 25  2  0  0  0
 25 26  1  0  0  0
 26 27  2  0  0  0
 25  1  1  0  0  0
  1  2  2  0  0  0
  1  3  1  0  0  0
  3  5  1  0  0  0
  5  6  1  0  0  0
  6  7  1  0  0  0
  7  8  1  0  0  0
  8  9  1  0  0  0
  9 10  1  0  0  0
 10 11  1  0  0  0
 11 12  1  0  0  0
 12 13  1  0  0  0
 13 14  1  0  0  0
 14 15  1  0  0  0
 15 16  2  0  0  0
 15 18  1  0  0  0
 18 19  1  0  0  0
 18 20  1  0  0  0
 18 21  1  0  0  0
 35 30  1  0  0  0
 27 22  1  0  0  0
 11  5  1  0  0  0
 13  7  1  0  0  0
  3  4  1  0  0  0
 14 17  1  0  0  0
M  END
> <minimizedAffinity>
-7.49574

> <CNNscore>
0.5300442576

> <CNNaffinity>
6.3797512054

> <CNN_VS>
3.3815505505

> <CNNaffinity_variance>
0.1161565557

$$$$
[H]c1c([H])c(OC([H])([H])C([H])([H])OC([H])([H])C([H])([H])[H])c([H])c(C(=O)c2c([H])c([H])c(C(=O)N([H])[C@]3([H])C4([H])[C]C([H])([H])C([H])([H])[C@@]([H])(C([H])(N([H])C(=O)C(F)(F)F)C4([H])[H])C3([H])[H])c([H])c2[H])c1[H]


 41 44  0  0  0  0  0  0  0  0999 V2000
    3.3559    5.1031   13.7085 C   0  0  0  0  0  0  0  0  0  0  0  0
    2.2666    5.7367   13.6133 O   0  0  0  0  0  0  0  0  0  0  0  0
    4.3547    5.2732   12.7224 N   0  0  0  0  0  0  0  0  0  0  0  0
    5.2574    4.7515   12.7999 H   0  0  0  0  0  0  0  0  0  0  0  0
    4.1923    6.1414   11.6017 C   0  0  0  0  0  0  0  0  0  0  0  0
    5.3335    7.1270   11.4940 C   0  0  0  0  0  0  0  0  0  0  0  0
    6.2242    6.7938   10.3441 C   0  0  0  0  0  0  0  0  0  0  0  0
    6.9333    5.5194   10.6069 C   0  0  0  0  0  0  0  0  0  0  0  0
    6.2147    4.2840   10.2155 C   0  0  0  0  0  0  0  0  0  0  0  0
    4.7967    4.3724    9.8828 C   0  0  0  0  0  0  0  0  0  0  0  0
    3.9786    5.5068   10.2835 C   0  0  0  0  0  0  0  0  0  0  0  0
    4.0691    6.5987    9.2235 C   0  0  0  0  0  0  0  0  0  0  0  0
    5.5430    6.8425    8.9994 C   0  0  0  0  0  0  0  0  0  0  0  0
    5.8071    8.0515    8.2844 N   0  0  0  0  0  0  0  0  0  0  0  0
    5.7437    8.1403    6.8657 C   0  0  0  0  0  0  0  0  0  0  0  0
    5.4388    7.1042    6.1890 O   0  0  0  0  0  0  0  0  0  0  0  0
    6.0582    8.9104    8.8133 H   0  0  0  0  0  0  0  0  0  0  0  0
    6.0189    9.3907    6.1295 C   0  0  0  0  0  0  0  0  0  0  0  0
    7.3148    9.4127    5.6333 F   0  0  0  0  0  0  0  0  0  0  0  0
    5.7867   10.5235    6.9083 F   0  0  0  0  0  0  0  0  0  0  0  0
    5.1667    9.4829    5.0498 F   0  0  0  0  0  0  0  0  0  0  0  0
    3.8492    2.5412   17.1141 C   0  0  0  0  0  0  0  0  0  0  0  0
    4.2511    3.8853   17.1289 C   0  0  0  0  0  0  0  0  0  0  0  0
    4.0820    4.6835   16.0283 C   0  0  0  0  0  0  0  0  0  0  0  0
    3.5144    4.2197   14.8555 C   0  0  0  0  0  0  0  0  0  0  0  0
    3.1215    2.8947   14.8498 C   0  0  0  0  0  0  0  0  0  0  0  0
    3.2843    2.0721   15.9530 C   0  0  0  0  0  0  0  0  0  0  0  0
    4.0586    1.7106   18.2932 C   0  0  0  0  0  0  0  0  0  0  0  0
    3.6638    0.4985   18.2157 O   0  0  0  0  0  0  0  0  0  0  0  0
    5.1608    3.9164   21.0843 C   0  0  0  0  0  0  0  0  0  0  0  0
    5.9510    3.0357   21.8149 C   0  0  0  0  0  0  0  0  0  0  0  0
    6.0834    1.7525   21.3641 C   0  0  0  0  0  0  0  0  0  0  0  0
    5.4636    1.3313   20.2307 C   0  0  0  0  0  0  0  0  0  0  0  0
    4.6816    2.2061   19.5086 C   0  0  0  0  0  0  0  0  0  0  0  0
    4.5306    3.4968   19.9358 C   0  0  0  0  0  0  0  0  0  0  0  0
    5.0012    5.2432   21.5139 O   0  0  0  0  0  0  0  0  0  0  0  0
    4.5601    6.1969   20.5724 C   0  0  0  0  0  0  0  0  0  0  0  0
    5.1102    7.5535   21.0243 C   0  0  0  0  0  0  0  0  0  0  0  0
    6.2445    7.2585   21.8015 O   0  0  0  0  0  0  0  0  0  0  0  0
    7.3551    7.9833   23.7656 C   0  0  0  0  0  0  0  0  0  0  0  0
    6.6432    8.4060   22.5002 C   0  0  0  0  0  0  0  0  0  0  0  0
 40 41  1  0  0  0
 41 39  1  0  0  0
 39 38  1  0  0  0
 38 37  1  0  0  0
 37 36  1  0  0  0
 36 30  1  0  0  0
 30 31  2  0  0  0
 31 32  1  0  0  0
 32 33  2  0  0  0
 33 34  1  0  0  0
 34 35  2  0  0  0
 34 28  1  0  0  0
 28 29  2  0  0  0
 28 22  1  0  0  0
 22 23  2  0  0  0
 23 24  1  0  0  0
 24 25  2  0  0  0
 25 26  1  0  0  0
 26 27  2  0  0  0
 25  1  1  0  0  0
  1  2  2  0  0  0
  1  3  1  0  0  0
  3  5  1  0  0  0
  5  6  1  0  0  0
  6  7  1  0  0  0
  7  8  1  0  0  0
  8  9  1  0  0  0
  9 10  1  0  0  0
 10 11  1  0  0  0
 11 12  1  0  0  0
 12 13  1  0  0  0
 13 14  1  0  0  0
 14 15  1  0  0  0
 15 16  2  0  0  0
 15 18  1  0  0  0
 18 19  1  0  0  0
 18 20  1  0  0  0
 18 21  1  0  0  0
 35 30  1  0  0  0
 27 22  1  0  0  0
 11  5  1  0  0  0
 13  7  1  0  0  0
  3  4  1  0  0  0
 14 17  1  0  0  0
M  END
> <minimizedAffinity>
-8.18625

> <CNNscore>
0.4095338881

> <CNNaffinity>
6.1066856384

> <CNN_VS>
2.5008947849

> <CNNaffinity_variance>
0.5951179266

$$$$
[H]c1c([H])c(OC([H])([H])C([H])([H])OC([H])([H])C([H])([H])[H])c([H])c(C(=O)c2c([H])c([H])c(C(=O)N([H])[C@]3([H])C4([H])[C]C([H])([H])C([H])([H])[C@@]([H])(C([H])(N([H])C(=O)C(F)(F)F)C4([H])[H])C3([H])[H])c([H])c2[H])c1[H]


 41 44  0  0  0  0  0  0  0  0999 V2000
    2.6633    4.0011   14.5241 C   0  0  0  0  0  0  0  0  0  0  0  0
    2.8996    2.8460   14.0688 O   0  0  0  0  0  0  0  0  0  0  0  0
    1.8904    4.9095   13.7650 N   0  0  0  0  0  0  0  0  0  0  0  0
    1.6921    5.8649   14.1402 H   0  0  0  0  0  0  0  0  0  0  0  0
    1.3525    4.5823   12.4844 C   0  0  0  0  0  0  0  0  0  0  0  0
   -0.0019    3.9216   12.6044 C   0  0  0  0  0  0  0  0  0  0  0  0
   -1.0894    4.8411   12.1587 C   0  0  0  0  0  0  0  0  0  0  0  0
   -1.2091    5.9770   13.1027 C   0  0  0  0  0  0  0  0  0  0  0  0
   -0.3246    7.1364   12.8390 C   0  0  0  0  0  0  0  0  0  0  0  0
    0.7708    6.9812   11.8876 C   0  0  0  0  0  0  0  0  0  0  0  0
    1.2692    5.6734   11.4902 C   0  0  0  0  0  0  0  0  0  0  0  0
    0.4599    5.1594   10.3049 C   0  0  0  0  0  0  0  0  0  0  0  0
   -0.9908    5.2615   10.7137 C   0  0  0  0  0  0  0  0  0  0  0  0
   -1.8659    4.5236    9.8578 N   0  0  0  0  0  0  0  0  0  0  0  0
   -3.2464    4.8349    9.7100 C   0  0  0  0  0  0  0  0  0  0  0  0
   -3.7388    5.8123   10.3631 O   0  0  0  0  0  0  0  0  0  0  0  0
   -1.4886    3.7217    9.3146 H   0  0  0  0  0  0  0  0  0  0  0  0
   -4.1486    4.0694    8.8260 C   0  0  0  0  0  0  0  0  0  0  0  0
   -4.8559    4.9070    7.9749 F   0  0  0  0  0  0  0  0  0  0  0  0
   -5.0307    3.2626    9.5434 F   0  0  0  0  0  0  0  0  0  0  0  0
   -3.4031    3.2201    8.0365 F   0  0  0  0  0  0  0  0  0  0  0  0
    4.2399    4.9841   18.3909 C   0  0  0  0  0  0  0  0  0  0  0  0
    2.8997    5.2218   18.0507 C   0  0  0  0  0  0  0  0  0  0  0  0
    2.4198    4.8981   16.8090 C   0  0  0  0  0  0  0  0  0  0  0  0
    3.2149    4.3270   15.8319 C   0  0  0  0  0  0  0  0  0  0  0  0
    4.5335    4.0965   16.1756 C   0  0  0  0  0  0  0  0  0  0  0  0
    5.0369    4.4171   17.4263 C   0  0  0  0  0  0  0  0  0  0  0  0
    4.7275    5.3559   19.7131 C   0  0  0  0  0  0  0  0  0  0  0  0
    5.4169    6.4284   19.7871 O   0  0  0  0  0  0  0  0  0  0  0  0
    4.1462    2.5082   22.0418 C   0  0  0  0  0  0  0  0  0  0  0  0
    3.9000    3.1894   23.2288 C   0  0  0  0  0  0  0  0  0  0  0  0
    3.9417    4.5552   23.2164 C   0  0  0  0  0  0  0  0  0  0  0  0
    4.2164    5.2462   22.0792 C   0  0  0  0  0  0  0  0  0  0  0  0
    4.4597    4.5687   20.9045 C   0  0  0  0  0  0  0  0  0  0  0  0
    4.4248    3.2013   20.8868 C   0  0  0  0  0  0  0  0  0  0  0  0
    4.1110    1.1051   22.0135 O   0  0  0  0  0  0  0  0  0  0  0  0
    4.1591    0.4656   20.7568 C   0  0  0  0  0  0  0  0  0  0  0  0
    2.8036   -0.2194   20.5557 C   0  0  0  0  0  0  0  0  0  0  0  0
    2.5828   -0.2143   19.1668 O   0  0  0  0  0  0  0  0  0  0  0  0
    3.1462    0.7529   17.0779 C   0  0  0  0  0  0  0  0  0  0  0  0
    3.4347    0.7197   18.5620 C   0  0  0  0  0  0  0  0  0  0  0  0
 40 41  1  0  0  0
 41 39  1  0  0  0
 39 38  1  0  0  0
 38 37  1  0  0  0
 37 36  1  0  0  0
 36 30  1  0  0  0
 30 31  2  0  0  0
 31 32  1  0  0  0
 32 33  2  0  0  0
 33 34  1  0  0  0
 34 35  2  0  0  0
 34 28  1  0  0  0
 28 29  2  0  0  0
 28 22  1  0  0  0
 22 23  2  0  0  0
 23 24  1  0  0  0
 24 25  2  0  0  0
 25 26  1  0  0  0
 26 27  2  0  0  0
 25  1  1  0  0  0
  1  2  2  0  0  0
  1  3  1  0  0  0
  3  5  1  0  0  0
  5  6  1  0  0  0
  6  7  1  0  0  0
  7  8  1  0  0  0
  8  9  1  0  0  0
  9 10  1  0  0  0
 10 11  1  0  0  0
 11 12  1  0  0  0
 12 13  1  0  0  0
 13 14  1  0  0  0
 14 15  1  0  0  0
 15 16  2  0  0  0
 15 18  1  0  0  0
 18 19  1  0  0  0
 18 20  1  0  0  0
 18 21  1  0  0  0
 35 30  1  0  0  0
 27 22  1  0  0  0
 11  5  1  0  0  0
 13  7  1  0  0  0
  3  4  1  0  0  0
 14 17  1  0  0  0
M  END
> <minimizedAffinity>
-7.85392

> <CNNscore>
0.3952794373

> <CNNaffinity>
6.3115849495

> <CNN_VS>
2.4948396683

> <CNNaffinity_variance>
0.2030550241

$$$$
[H]c1c([H])c(OC([H])([H])C([H])([H])OC([H])([H])C([H])([H])[H])c([H])c(C(=O)c2c([H])c([H])c(C(=O)N([H])[C@]3([H])C4([H])[C]C([H])([H])C([H])([H])[C@@]([H])(C([H])(N([H])C(=O)C(F)(F)F)C4([H])[H])C3([H])[H])c([H])c2[H])c1[H]


 41 44  0  0  0  0  0  0  0  0999 V2000
    3.9800    7.3925   16.5834 C   0  0  0  0  0  0  0  0  0  0  0  0
    4.3934    8.5857   16.6354 O   0  0  0  0  0  0  0  0  0  0  0  0
    3.2705    6.9450   15.4453 N   0  0  0  0  0  0  0  0  0  0  0  0
    2.9291    5.9580   15.3993 H   0  0  0  0  0  0  0  0  0  0  0  0
    2.9911    7.7893   14.3294 C   0  0  0  0  0  0  0  0  0  0  0  0
    4.1344    7.7973   13.3404 C   0  0  0  0  0  0  0  0  0  0  0  0
    3.7760    7.0505   12.0992 C   0  0  0  0  0  0  0  0  0  0  0  0
    3.6324    5.6070   12.4017 C   0  0  0  0  0  0  0  0  0  0  0  0
    2.2959    5.1718   12.8708 C   0  0  0  0  0  0  0  0  0  0  0  0
    1.3280    6.1874   13.2722 C   0  0  0  0  0  0  0  0  0  0  0  0
    1.7270    7.5472   13.6017 C   0  0  0  0  0  0  0  0  0  0  0  0
    1.7543    8.3909   12.3322 C   0  0  0  0  0  0  0  0  0  0  0  0
    2.6069    7.6308   11.3436 C   0  0  0  0  0  0  0  0  0  0  0  0
    3.0058    8.4242   10.2236 N   0  0  0  0  0  0  0  0  0  0  0  0
    2.2864    8.4458    8.9961 C   0  0  0  0  0  0  0  0  0  0  0  0
    1.2378    7.7315    8.8751 O   0  0  0  0  0  0  0  0  0  0  0  0
    3.8576    9.0153   10.2970 H   0  0  0  0  0  0  0  0  0  0  0  0
    2.7020    9.2654    7.8400 C   0  0  0  0  0  0  0  0  0  0  0  0
    2.4714    8.6055    6.6410 F   0  0  0  0  0  0  0  0  0  0  0  0
    4.0385    9.6536    7.9217 F   0  0  0  0  0  0  0  0  0  0  0  0
    1.9627   10.4287    7.8146 F   0  0  0  0  0  0  0  0  0  0  0  0
    4.8854    4.8646   19.9292 C   0  0  0  0  0  0  0  0  0  0  0  0
    5.8539    5.2138   18.9762 C   0  0  0  0  0  0  0  0  0  0  0  0
    5.5401    6.0236   17.9166 C   0  0  0  0  0  0  0  0  0  0  0  0
    4.2700    6.5370   17.7258 C   0  0  0  0  0  0  0  0  0  0  0  0
    3.3224    6.1878   18.6692 C   0  0  0  0  0  0  0  0  0  0  0  0
    3.6211    5.3701   19.7474 C   0  0  0  0  0  0  0  0  0  0  0  0
    5.2432    3.9861   21.0358 C   0  0  0  0  0  0  0  0  0  0  0  0
    6.1776    4.3901   21.8069 O   0  0  0  0  0  0  0  0  0  0  0  0
    3.6907    0.6351   20.5552 C   0  0  0  0  0  0  0  0  0  0  0  0
    3.3034    0.3391   21.8576 C   0  0  0  0  0  0  0  0  0  0  0  0
    3.5743    1.2492   22.8403 C   0  0  0  0  0  0  0  0  0  0  0  0
    4.2068    2.4204   22.5676 C   0  0  0  0  0  0  0  0  0  0  0  0
    4.5891    2.7113   21.2763 C   0  0  0  0  0  0  0  0  0  0  0  0
    4.3313    1.8190   20.2720 C   0  0  0  0  0  0  0  0  0  0  0  0
    3.4291   -0.2736   19.5178 O   0  0  0  0  0  0  0  0  0  0  0  0
    2.2581   -0.0881   18.7529 C   0  0  0  0  0  0  0  0  0  0  0  0
    2.6584   -0.2497   17.2830 C   0  0  0  0  0  0  0  0  0  0  0  0
    3.6597    0.7119   17.0586 O   0  0  0  0  0  0  0  0  0  0  0  0
    4.1381    2.9547   16.4608 C   0  0  0  0  0  0  0  0  0  0  0  0
    3.0803    1.8769   16.5380 C   0  0  0  0  0  0  0  0  0  0  0  0
 40 41  1  0  0  0
 41 39  1  0  0  0
 39 38  1  0  0  0
 38 37  1  0  0  0
 37 36  1  0  0  0
 36 30  1  0  0  0
 30 31  2  0  0  0
 31 32  1  0  0  0
 32 33  2  0  0  0
 33 34  1  0  0  0
 34 35  2  0  0  0
 34 28  1  0  0  0
 28 29  2  0  0  0
 28 22  1  0  0  0
 22 23  2  0  0  0
 23 24  1  0  0  0
 24 25  2  0  0  0
 25 26  1  0  0  0
 26 27  2  0  0  0
 25  1  1  0  0  0
  1  2  2  0  0  0
  1  3  1  0  0  0
  3  5  1  0  0  0
  5  6  1  0  0  0
  6  7  1  0  0  0
  7  8  1  0  0  0
  8  9  1  0  0  0
  9 10  1  0  0  0
 10 11  1  0  0  0
 11 12  1  0  0  0
 12 13  1  0  0  0
 13 14  1  0  0  0
 14 15  1  0  0  0
 15 16  2  0  0  0
 15 18  1  0  0  0
 18 19  1  0  0  0
 18 20  1  0  0  0
 18 21  1  0  0  0
 35 30  1  0  0  0
 27 22  1  0  0  0
 11  5  1  0  0  0
 13  7  1  0  0  0
  3  4  1  0  0  0
 14 17  1  0  0  0
M  END
> <minimizedAffinity>
-8.24503

> <CNNscore>
0.3386259079

> <CNNaffinity>
6.1095376015

> <CNN_VS>
2.0688476562

> <CNNaffinity_variance>
0.1246010065

$$$$
[H]c1c([H])c(OC([H])([H])C([H])([H])OC([H])([H])C([H])([H])[H])c([H])c(C(=O)c2c([H])c([H])c(C(=O)N([H])[C@]3([H])C4([H])[C]C([H])([H])C([H])([H])[C@@]([H])(C([H])(N([H])C(=O)C(F)(F)F)C4([H])[H])C3([H])[H])c([H])c2[H])c1[H]


 41 44  0  0  0  0  0  0  0  0999 V2000
    2.9006    2.4121   14.3340 C   0  0  0  0  0  0  0  0  0  0  0  0
    3.1457    1.5680   13.4258 O   0  0  0  0  0  0  0  0  0  0  0  0
    2.4188    3.6953   13.9874 N   0  0  0  0  0  0  0  0  0  0  0  0
    2.2137    4.3946   14.7369 H   0  0  0  0  0  0  0  0  0  0  0  0
    2.1909    4.0946   12.6365 C   0  0  0  0  0  0  0  0  0  0  0  0
    0.7199    4.0611   12.2893 C   0  0  0  0  0  0  0  0  0  0  0  0
    0.1675    5.4410   12.1577 C   0  0  0  0  0  0  0  0  0  0  0  0
    0.1632    6.1117   13.4791 C   0  0  0  0  0  0  0  0  0  0  0  0
    1.4147    6.8093   13.8572 C   0  0  0  0  0  0  0  0  0  0  0  0
    2.6215    6.5586   13.0760 C   0  0  0  0  0  0  0  0  0  0  0  0
    2.7554    5.3941   12.2140 C   0  0  0  0  0  0  0  0  0  0  0  0
    2.1946    5.7162   10.8335 C   0  0  0  0  0  0  0  0  0  0  0  0
    0.8045    6.2609   11.0638 C   0  0  0  0  0  0  0  0  0  0  0  0
    0.0175    6.3065    9.8716 N   0  0  0  0  0  0  0  0  0  0  0  0
    0.3123    7.1748    8.7835 C   0  0  0  0  0  0  0  0  0  0  0  0
    1.3196    7.9517    8.8608 O   0  0  0  0  0  0  0  0  0  0  0  0
   -0.8095    5.6829    9.7842 H   0  0  0  0  0  0  0  0  0  0  0  0
   -0.5039    7.2210    7.5535 C   0  0  0  0  0  0  0  0  0  0  0  0
    0.0193    8.1160    6.6307 F   0  0  0  0  0  0  0  0  0  0  0  0
   -1.8373    7.5314    7.8164 F   0  0  0  0  0  0  0  0  0  0  0  0
   -0.5066    5.9770    6.9594 F   0  0  0  0  0  0  0  0  0  0  0  0
    3.5542    1.1475   18.3810 C   0  0  0  0  0  0  0  0  0  0  0  0
    2.7193    0.4380   17.5048 C   0  0  0  0  0  0  0  0  0  0  0  0
    2.5273    0.8619   16.2162 C   0  0  0  0  0  0  0  0  0  0  0  0
    3.1349    1.9966   15.7100 C   0  0  0  0  0  0  0  0  0  0  0  0
    3.9555    2.6892   16.5800 C   0  0  0  0  0  0  0  0  0  0  0  0
    4.1620    2.2759   17.8865 C   0  0  0  0  0  0  0  0  0  0  0  0
    3.7252    0.6835   19.7520 C   0  0  0  0  0  0  0  0  0  0  0  0
    3.0819   -0.3687   20.0835 O   0  0  0  0  0  0  0  0  0  0  0  0
    5.0213    3.0790   22.2922 C   0  0  0  0  0  0  0  0  0  0  0  0
    6.3043    2.5801   22.4889 C   0  0  0  0  0  0  0  0  0  0  0  0
    6.6879    1.4739   21.7841 C   0  0  0  0  0  0  0  0  0  0  0  0
    5.8470    0.8640   20.9084 C   0  0  0  0  0  0  0  0  0  0  0  0
    4.5765    1.3607   20.7152 C   0  0  0  0  0  0  0  0  0  0  0  0
    4.1648    2.4667   21.4070 C   0  0  0  0  0  0  0  0  0  0  0  0
    4.5904    4.2143   22.9964 O   0  0  0  0  0  0  0  0  0  0  0  0
    3.9187    5.2255   22.2775 C   0  0  0  0  0  0  0  0  0  0  0  0
    4.9958    6.1502   21.7014 C   0  0  0  0  0  0  0  0  0  0  0  0
    4.4559    6.6558   20.5052 O   0  0  0  0  0  0  0  0  0  0  0  0
    3.2020    5.7290   18.7205 C   0  0  0  0  0  0  0  0  0  0  0  0
    4.4821    5.6572   19.5223 C   0  0  0  0  0  0  0  0  0  0  0  0
 40 41  1  0  0  0
 41 39  1  0  0  0
 39 38  1  0  0  0
 38 37  1  0  0  0
 37 36  1  0  0  0
 36 30  1  0  0  0
 30 31  2  0  0  0
 31 32  1  0  0  0
 32 33  2  0  0  0
 33 34  1  0  0  0
 34 35  2  0  0  0
 34 28  1  0  0  0
 28 29  2  0  0  0
 28 22  1  0  0  0
 22 23  2  0  0  0
 23 24  1  0  0  0
 24 25  2  0  0  0
 25 26  1  0  0  0
 26 27  2  0  0  0
 25  1  1  0  0  0
  1  2  2  0  0  0
  1  3  1  0  0  0
  3  5  1  0  0  0
  5  6  1  0  0  0
  6  7  1  0  0  0
  7  8  1  0  0  0
  8  9  1  0  0  0
  9 10  1  0  0  0
 10 11  1  0  0  0
 11 12  1  0  0  0
 12 13  1  0  0  0
 13 14  1  0  0  0
 14 15  1  0  0  0
 15 16  2  0  0  0
 15 18  1  0  0  0
 18 19  1  0  0  0
 18 20  1  0  0  0
 18 21  1  0  0  0
 35 30  1  0  0  0
 27 22  1  0  0  0
 11  5  1  0  0  0
 13  7  1  0  0  0
  3  4  1  0  0  0
 14 17  1  0  0  0
M  END
> <minimizedAffinity>
-8.16862

> <CNNscore>
0.3089486957

> <CNNaffinity>
6.1691617966

> <CNN_VS>
1.9059544802

> <CNNaffinity_variance>
0.4910344183

$$$$
[H]c1c([H])c(OC([H])([H])C([H])([H])OC([H])([H])C([H])([H])[H])c([H])c(C(=O)c2c([H])c([H])c(C(=O)N([H])[C@]3([H])C4([H])[C]C([H])([H])C([H])([H])[C@@]([H])(C([H])(N([H])C(=O)C(F)(F)F)C4([H])[H])C3([H])[H])c([H])c2[H])c1[H]


 41 44  0  0  0  0  0  0  0  0999 V2000
    3.0001    3.2933   13.5468 C   0  0  0  0  0  0  0  0  0  0  0  0
    2.8858    2.4404   12.6211 O   0  0  0  0  0  0  0  0  0  0  0  0
    2.9055    4.6715   13.2462 N   0  0  0  0  0  0  0  0  0  0  0  0
    2.9980    5.3789   14.0104 H   0  0  0  0  0  0  0  0  0  0  0  0
    2.6833    5.1590   11.9236 C   0  0  0  0  0  0  0  0  0  0  0  0
    1.5642    6.1748   11.8879 C   0  0  0  0  0  0  0  0  0  0  0  0
    2.0948    7.5507   11.6597 C   0  0  0  0  0  0  0  0  0  0  0  0
    2.8811    7.9906   12.8362 C   0  0  0  0  0  0  0  0  0  0  0  0
    4.3110    7.6016   12.8438 C   0  0  0  0  0  0  0  0  0  0  0  0
    4.7718    6.6034   11.8843 C   0  0  0  0  0  0  0  0  0  0  0  0
    3.8524    5.7056   11.2021 C   0  0  0  0  0  0  0  0  0  0  0  0
    3.3416    6.3717    9.9295 C   0  0  0  0  0  0  0  0  0  0  0  0
    2.8177    7.7254   10.3477 C   0  0  0  0  0  0  0  0  0  0  0  0
    2.0102    8.3463    9.3450 N   0  0  0  0  0  0  0  0  0  0  0  0
    2.5587    9.0709    8.2501 C   0  0  0  0  0  0  0  0  0  0  0  0
    3.8242    9.1795    8.1453 O   0  0  0  0  0  0  0  0  0  0  0  0
    0.9754    8.2725    9.4081 H   0  0  0  0  0  0  0  0  0  0  0  0
    1.7216    9.7129    7.2164 C   0  0  0  0  0  0  0  0  0  0  0  0
    2.4178    9.8719    6.0263 F   0  0  0  0  0  0  0  0  0  0  0  0
    1.2108   10.9396    7.6381 F   0  0  0  0  0  0  0  0  0  0  0  0
    0.6319    8.9123    6.9482 F   0  0  0  0  0  0  0  0  0  0  0  0
    3.6290    1.7633   17.5051 C   0  0  0  0  0  0  0  0  0  0  0  0
    2.8192    1.1006   16.5705 C   0  0  0  0  0  0  0  0  0  0  0  0
    2.6346    1.6092   15.3119 C   0  0  0  0  0  0  0  0  0  0  0  0
    3.2257    2.7878   14.8938 C   0  0  0  0  0  0  0  0  0  0  0  0
    4.0216    3.4338   15.8208 C   0  0  0  0  0  0  0  0  0  0  0  0
    4.2201    2.9347   17.0982 C   0  0  0  0  0  0  0  0  0  0  0  0
    3.7922    1.2085   18.8429 C   0  0  0  0  0  0  0  0  0  0  0  0
    3.1719    0.1199   19.0896 O   0  0  0  0  0  0  0  0  0  0  0  0
    5.4122    3.7302   21.0537 C   0  0  0  0  0  0  0  0  0  0  0  0
    6.2463    2.9145   21.8105 C   0  0  0  0  0  0  0  0  0  0  0  0
    6.2370    1.5697   21.5677 C   0  0  0  0  0  0  0  0  0  0  0  0
    5.4369    1.0268   20.6132 C   0  0  0  0  0  0  0  0  0  0  0  0
    4.6117    1.8373   19.8647 C   0  0  0  0  0  0  0  0  0  0  0  0
    4.5997    3.1873   20.0856 C   0  0  0  0  0  0  0  0  0  0  0  0
    5.3941    5.1167   21.2722 O   0  0  0  0  0  0  0  0  0  0  0  0
    4.2631    5.8415   20.8408 C   0  0  0  0  0  0  0  0  0  0  0  0
    4.7791    7.1555   20.2455 C   0  0  0  0  0  0  0  0  0  0  0  0
    4.0637    7.3313   19.0475 O   0  0  0  0  0  0  0  0  0  0  0  0
    4.1561    7.0618   16.6948 C   0  0  0  0  0  0  0  0  0  0  0  0
    4.6558    6.5665   18.0334 C   0  0  0  0  0  0  0  0  0  0  0  0
 40 41  1  0  0  0
 41 39  1  0  0  0
 39 38  1  0  0  0
 38 37  1  0  0  0
 37 36  1  0  0  0
 36 30  1  0  0  0
 30 31  2  0  0  0
 31 32  1  0  0  0
 32 33  2  0  0  0
 33 34  1  0  0  0
 34 35  2  0  0  0
 34 28  1  0  0  0
 28 29  2  0  0  0
 28 22  1  0  0  0
 22 23  2  0  0  0
 23 24  1  0  0  0
 24 25  2  0  0  0
 25 26  1  0  0  0
 26 27  2  0  0  0
 25  1  1  0  0  0
  1  2  2  0  0  0
  1  3  1  0  0  0
  3  5  1  0  0  0
  5  6  1  0  0  0
  6  7  1  0  0  0
  7  8  1  0  0  0
  8  9  1  0  0  0
  9 10  1  0  0  0
 10 11  1  0  0  0
 11 12  1  0  0  0
 12 13  1  0  0  0
 13 14  1  0  0  0
 14 15  1  0  0  0
 15 16  2  0  0  0
 15 18  1  0  0  0
 18 19  1  0  0  0
 18 20  1  0  0  0
 18 21  1  0  0  0
 35 30  1  0  0  0
 27 22  1  0  0  0
 11  5  1  0  0  0
 13  7  1  0  0  0
  3  4  1  0  0  0
 14 17  1  0  0  0
M  END
> <minimizedAffinity>
-8.42420

> <CNNscore>
0.2982020676

> <CNNaffinity>
5.9320249557

> <CNN_VS>
1.7689421177

> <CNNaffinity_variance>
0.4288876951

$$$$
[H]c1c([H])c(OC([H])([H])C([H])([H])OC([H])([H])C([H])([H])[H])c([H])c(C(=O)c2c([H])c([H])c(C(=O)N([H])[C@]3([H])C4([H])[C]C([H])([H])C([H])([H])[C@@]([H])(C([H])(N([H])C(=O)C(F)(F)F)C4([H])[H])C3([H])[H])c([H])c2[H])c1[H]


 41 44  0  0  0  0  0  0  0  0999 V2000
    2.3641    4.0092   14.7524 C   0  0  0  0  0  0  0  0  0  0  0  0
    2.4684    2.8429   14.2769 O   0  0  0  0  0  0  0  0  0  0  0  0
    1.6084    4.9836   14.0608 N   0  0  0  0  0  0  0  0  0  0  0  0
    1.5192    5.9486   14.4530 H   0  0  0  0  0  0  0  0  0  0  0  0
    0.9440    4.7121   12.8275 C   0  0  0  0  0  0  0  0  0  0  0  0
   -0.3982    5.4041   12.7569 C   0  0  0  0  0  0  0  0  0  0  0  0
   -0.3647    6.5442   11.7948 C   0  0  0  0  0  0  0  0  0  0  0  0
    0.5153    7.6176   12.3138 C   0  0  0  0  0  0  0  0  0  0  0  0
    1.9549    7.4926   11.9853 C   0  0  0  0  0  0  0  0  0  0  0  0
    2.4448    6.2272   11.4485 C   0  0  0  0  0  0  0  0  0  0  0  0
    1.6938    4.9884   11.5835 C   0  0  0  0  0  0  0  0  0  0  0  0
    0.7218    4.8534   10.4169 C   0  0  0  0  0  0  0  0  0  0  0  0
   -0.0600    6.1451   10.3726 C   0  0  0  0  0  0  0  0  0  0  0  0
   -1.2290    6.0631    9.5543 N   0  0  0  0  0  0  0  0  0  0  0  0
   -1.4006    6.8357    8.3718 C   0  0  0  0  0  0  0  0  0  0  0  0
   -0.4796    7.6405    8.0135 O   0  0  0  0  0  0  0  0  0  0  0  0
   -1.9946    5.4144    9.8252 H   0  0  0  0  0  0  0  0  0  0  0  0
   -2.6105    6.7500    7.5291 C   0  0  0  0  0  0  0  0  0  0  0  0
   -3.2364    5.5186    7.6636 F   0  0  0  0  0  0  0  0  0  0  0  0
   -2.3367    7.0019    6.1856 F   0  0  0  0  0  0  0  0  0  0  0  0
   -3.5137    7.7126    7.9265 F   0  0  0  0  0  0  0  0  0  0  0  0
    4.4100    4.7699   18.4456 C   0  0  0  0  0  0  0  0  0  0  0  0
    4.9994    4.0360   17.4053 C   0  0  0  0  0  0  0  0  0  0  0  0
    4.3256    3.8072   16.2347 C   0  0  0  0  0  0  0  0  0  0  0  0
    3.0443    4.2781   16.0118 C   0  0  0  0  0  0  0  0  0  0  0  0
    2.4716    4.9999   17.0418 C   0  0  0  0  0  0  0  0  0  0  0  0
    3.1374    5.2415   18.2328 C   0  0  0  0  0  0  0  0  0  0  0  0
    5.1434    4.9818   19.6872 C   0  0  0  0  0  0  0  0  0  0  0  0
    6.1591    5.7535   19.6263 O   0  0  0  0  0  0  0  0  0  0  0  0
    4.1557    2.4897   22.2727 C   0  0  0  0  0  0  0  0  0  0  0  0
    4.0076    3.3128   23.3837 C   0  0  0  0  0  0  0  0  0  0  0  0
    4.2447    4.6508   23.2390 C   0  0  0  0  0  0  0  0  0  0  0  0
    4.6176    5.1800   22.0444 C   0  0  0  0  0  0  0  0  0  0  0  0
    4.7634    4.3621   20.9452 C   0  0  0  0  0  0  0  0  0  0  0  0
    4.5328    3.0187   21.0602 C   0  0  0  0  0  0  0  0  0  0  0  0
    3.9199    1.1101   22.3806 O   0  0  0  0  0  0  0  0  0  0  0  0
    2.8212    0.5682   21.6808 C   0  0  0  0  0  0  0  0  0  0  0  0
    3.3905   -0.4226   20.6603 C   0  0  0  0  0  0  0  0  0  0  0  0
    2.6377   -0.2285   19.4884 O   0  0  0  0  0  0  0  0  0  0  0  0
    2.8496    0.3992   17.2129 C   0  0  0  0  0  0  0  0  0  0  0  0
    3.3275    0.6362   18.6279 C   0  0  0  0  0  0  0  0  0  0  0  0
 40 41  1  0  0  0
 41 39  1  0  0  0
 39 38  1  0  0  0
 38 37  1  0  0  0
 37 36  1  0  0  0
 36 30  1  0  0  0
 30 31  2  0  0  0
 31 32  1  0  0  0
 32 33  2  0  0  0
 33 34  1  0  0  0
 34 35  2  0  0  0
 34 28  1  0  0  0
 28 29  2  0  0  0
 28 22  1  0  0  0
 22 23  2  0  0  0
 23 24  1  0  0  0
 24 25  2  0  0  0
 25 26  1  0  0  0
 26 27  2  0  0  0
 25  1  1  0  0  0
  1  2  2  0  0  0
  1  3  1  0  0  0
  3  5  1  0  0  0
  5  6  1  0  0  0
  6  7  1  0  0  0
  7  8  1  0  0  0
  8  9  1  0  0  0
  9 10  1  0  0  0
 10 11  1  0  0  0
 11 12  1  0  0  0
 12 13  1  0  0  0
 13 14  1  0  0  0
 14 15  1  0  0  0
 15 16  2  0  0  0
 15 18  1  0  0  0
 18 19  1  0  0  0
 18 20  1  0  0  0
 18 21  1  0  0  0
 35 30  1  0  0  0
 27 22  1  0  0  0
 11  5  1  0  0  0
 13  7  1  0  0  0
  3  4  1  0  0  0
 14 17  1  0  0  0
M  END
> <minimizedAffinity>
-7.87101

> <CNNscore>
0.2943290174

> <CNNaffinity>
5.9587693214

> <CNN_VS>
1.7538387775

> <CNNaffinity_variance>
0.1377295405

$$$$
[H]c1c([H])c(OC([H])([H])C([H])([H])OC([H])([H])C([H])([H])[H])c([H])c(C(=O)c2c([H])c([H])c(C(=O)N([H])[C@]3([H])C4([H])[C]C([H])([H])C([H])([H])[C@@]([H])(C([H])(N([H])C(=O)C(F)(F)F)C4([H])[H])C3([H])[H])c([H])c2[H])c1[H]


 41 44  0  0  0  0  0  0  0  0999 V2000
    2.1785    5.8886   14.9263 C   0  0  0  0  0  0  0  0  0  0  0  0
    1.0449    5.4271   15.2412 O   0  0  0  0  0  0  0  0  0  0  0  0
    3.2199    5.9038   15.8825 N   0  0  0  0  0  0  0  0  0  0  0  0
    4.1590    6.2834   15.6238 H   0  0  0  0  0  0  0  0  0  0  0  0
    3.0529    5.4149   17.2126 C   0  0  0  0  0  0  0  0  0  0  0  0
    3.4839    3.9707   17.3306 C   0  0  0  0  0  0  0  0  0  0  0  0
    4.7628    3.8522   18.0902 C   0  0  0  0  0  0  0  0  0  0  0  0
    5.8717    4.4482   17.3086 C   0  0  0  0  0  0  0  0  0  0  0  0
    6.0776    5.9055   17.4811 C   0  0  0  0  0  0  0  0  0  0  0  0
    5.0417    6.6864   18.1493 C   0  0  0  0  0  0  0  0  0  0  0  0
    3.6807    6.1948   18.3005 C   0  0  0  0  0  0  0  0  0  0  0  0
    3.5764    5.3725   19.5800 C   0  0  0  0  0  0  0  0  0  0  0  0
    4.6867    4.3505   19.5117 C   0  0  0  0  0  0  0  0  0  0  0  0
    4.5350    3.2959   20.4644 N   0  0  0  0  0  0  0  0  0  0  0  0
    5.3508    3.1787   21.6243 C   0  0  0  0  0  0  0  0  0  0  0  0
    6.2611    4.0451   21.8367 O   0  0  0  0  0  0  0  0  0  0  0  0
    3.7999    2.5766   20.3137 H   0  0  0  0  0  0  0  0  0  0  0  0
    5.1928    2.0868   22.6062 C   0  0  0  0  0  0  0  0  0  0  0  0
    4.5001    1.0132   22.0640 F   0  0  0  0  0  0  0  0  0  0  0  0
    4.5681    2.5158   23.7763 F   0  0  0  0  0  0  0  0  0  0  0  0
    6.4364    1.6238   22.9795 F   0  0  0  0  0  0  0  0  0  0  0  0
    2.7052    7.3740   10.9362 C   0  0  0  0  0  0  0  0  0  0  0  0
    3.6775    7.5528   11.9318 C   0  0  0  0  0  0  0  0  0  0  0  0
    3.4861    7.0681   13.1988 C   0  0  0  0  0  0  0  0  0  0  0  0
    2.3412    6.3847   13.5667 C   0  0  0  0  0  0  0  0  0  0  0  0
    1.3890    6.2133   12.5799 C   0  0  0  0  0  0  0  0  0  0  0  0
    1.5648    6.6962   11.2930 C   0  0  0  0  0  0  0  0  0  0  0  0
    2.9277    7.9168    9.6020 C   0  0  0  0  0  0  0  0  0  0  0  0
    2.1527    8.8625    9.2334 O   0  0  0  0  0  0  0  0  0  0  0  0
    5.3187    5.7046    7.7965 C   0  0  0  0  0  0  0  0  0  0  0  0
    5.9941    6.6354    7.0147 C   0  0  0  0  0  0  0  0  0  0  0  0
    5.6316    7.9496    7.1080 C   0  0  0  0  0  0  0  0  0  0  0  0
    4.6364    8.3535    7.9402 C   0  0  0  0  0  0  0  0  0  0  0  0
    3.9691    7.4292    8.7139 C   0  0  0  0  0  0  0  0  0  0  0  0
    4.3103    6.1065    8.6413 C   0  0  0  0  0  0  0  0  0  0  0  0
    5.6628    4.3453    7.7299 O   0  0  0  0  0  0  0  0  0  0  0  0
    6.8537    3.9945    7.0596 C   0  0  0  0  0  0  0  0  0  0  0  0
    7.5675    2.9601    7.9357 C   0  0  0  0  0  0  0  0  0  0  0  0
    6.8497    1.7631    7.7637 O   0  0  0  0  0  0  0  0  0  0  0  0
    6.1325   -0.2723    8.7431 C   0  0  0  0  0  0  0  0  0  0  0  0
    6.8802    1.0250    8.9546 C   0  0  0  0  0  0  0  0  0  0  0  0
 40 41  1  0  0  0
 41 39  1  0  0  0
 39 38  1  0  0  0
 38 37  1  0  0  0
 37 36  1  0  0  0
 36 30  1  0  0  0
 30 31  2  0  0  0
 31 32  1  0  0  0
 32 33  2  0  0  0
 33 34  1  0  0  0
 34 35  2  0  0  0
 34 28  1  0  0  0
 28 29  2  0  0  0
 28 22  1  0  0  0
 22 23  2  0  0  0
 23 24  1  0  0  0
 24 25  2  0  0  0
 25 26  1  0  0  0
 26 27  2  0  0  0
 25  1  1  0  0  0
  1  2  2  0  0  0
  1  3  1  0  0  0
  3  5  1  0  0  0
  5  6  1  0  0  0
  6  7  1  0  0  0
  7  8  1  0  0  0
  8  9  1  0  0  0
  9 10  1  0  0  0
 10 11  1  0  0  0
 11 12  1  0  0  0
 12 13  1  0  0  0
 13 14  1  0  0  0
 14 15  1  0  0  0
 15 16  2  0  0  0
 15 18  1  0  0  0
 18 19  1  0  0  0
 18 20  1  0  0  0
 18 21  1  0  0  0
 35 30  1  0  0  0
 27 22  1  0  0  0
 11  5  1  0  0  0
 13  7  1  0  0  0
  3  4  1  0  0  0
 14 17  1  0  0  0
M  END
> <minimizedAffinity>
-6.89107

> <CNNscore>
0.2922123075

> <CNNaffinity>
5.9461908340

> <CNN_VS>
1.7375501394

> <CNNaffinity_variance>
0.3440986276

$$$$
[H]OC([H])([H])[C@@]1(O[H])C([H])([H])[C@]2([H])O[C@]1(C([H])([H])[H])n1c3c([H])c([H])c([H])c([H])c3c3c4c(c5c6c([H])c([H])c([H])c([H])c6n2c5c31)C(=O)N([H])C4([H])[H]


 36 43  0  0  0  0  0  0  0  0999 V2000
    3.4445    1.8702   10.3759 C   0  0  0  0  0  0  0  0  0  0  0  0
    3.0996    3.3040   10.6507 C   0  0  0  0  0  0  0  0  0  0  0  0
    3.1109    4.4210    9.6497 O   0  0  0  0  0  0  0  0  0  0  0  0
    2.7011    5.6797   10.3552 C   0  0  0  0  0  0  0  0  0  0  0  0
    2.4365    5.3406   11.7922 C   0  0  0  0  0  0  0  0  0  0  0  0
    2.6828    3.8723   11.9749 C   0  0  0  0  0  0  0  0  0  0  0  0
    2.8493    2.4611   12.4554 O   0  0  0  0  0  0  0  0  0  0  0  0
    2.9955    5.8890    8.8993 N   0  0  0  0  0  0  0  0  0  0  0  0
    2.8907    7.2214    8.2182 C   0  0  0  0  0  0  0  0  0  0  0  0
    2.5071    8.5801    8.7248 C   0  0  0  0  0  0  0  0  0  0  0  0
    2.4924    9.7526    7.7894 C   0  0  0  0  0  0  0  0  0  0  0  0
    2.8613    9.5664    6.3474 C   0  0  0  0  0  0  0  0  0  0  0  0
    3.2449    8.2076    5.8409 C   0  0  0  0  0  0  0  0  0  0  0  0
    3.2596    7.0351    6.7763 C   0  0  0  0  0  0  0  0  0  0  0  0
    3.5923    5.5876    6.5662 C   0  0  0  0  0  0  0  0  0  0  0  0
    4.0507    4.5996    5.4190 C   0  0  0  0  0  0  0  0  0  0  0  0
    4.3152    4.9388    3.9820 C   0  0  0  0  0  0  0  0  0  0  0  0
    4.1916    6.2980    3.3597 O   0  0  0  0  0  0  0  0  0  0  0  0
    4.7250    3.6800    3.2765 N   0  0  0  0  0  0  0  0  0  0  0  0
    4.7137    2.5630    4.2775 C   0  0  0  0  0  0  0  0  0  0  0  0
    4.2970    3.1313    5.6017 C   0  0  0  0  0  0  0  0  0  0  0  0
    4.1099    2.5015    6.9501 C   0  0  0  0  0  0  0  0  0  0  0  0
    4.2520    1.1182    7.5124 C   0  0  0  0  0  0  0  0  0  0  0  0
    4.6524   -0.1841    6.8848 C   0  0  0  0  0  0  0  0  0  0  0  0
    4.7061   -1.4319    7.7156 C   0  0  0  0  0  0  0  0  0  0  0  0
    4.3593   -1.3774    9.1740 C   0  0  0  0  0  0  0  0  0  0  0  0
    3.9589   -0.0751    9.8015 C   0  0  0  0  0  0  0  0  0  0  0  0
    3.9053    1.1727    8.9706 C   0  0  0  0  0  0  0  0  0  0  0  0
    3.5489    2.5897    9.3097 N   0  0  0  0  0  0  0  0  0  0  0  0
    3.6753    3.4110    8.0610 C   0  0  0  0  0  0  0  0  0  0  0  0
    3.4290    4.8793    7.8783 C   0  0  0  0  0  0  0  0  0  0  0  0
    2.6288    1.9497   13.8481 H   0  0  0  0  0  0  0  0  0  0  0  0
    5.0832    3.5595    1.8249 H   0  0  0  0  0  0  0  0  0  0  0  0
    2.3009    4.1456   13.3995 C   0  0  0  0  0  0  0  0  0  0  0  0
    1.9189    4.4189   14.8240 O   0  0  0  0  0  0  0  0  0  0  0  0
    1.2097    3.3678   15.6252 H   0  0  0  0  0  0  0  0  0  0  0  0
  2  1  1  0  0  0
  2  3  1  0  0  0
  3  4  1  0  0  0
  4  5  1  0  0  0
  5  6  1  0  0  0
  6  7  1  0  0  0
  6 34  1  0  0  0
 34 35  1  0  0  0
  4  8  1  0  0  0
  8  9  1  0  0  0
  9 10  2  0  0  0
 10 11  1  0  0  0
 11 12  2  0  0  0
 12 13  1  0  0  0
 13 14  2  0  0  0
 14 15  1  0  0  0
 15 16  2  0  0  0
 16 17  1  0  0  0
 17 18  2  0  0  0
 17 19  1  0  0  0
 19 20  1  0  0  0
 20 21  1  0  0  0
 21 22  2  0  0  0
 22 23  1  0  0  0
 23 24  2  0  0  0
 24 25  1  0  0  0
 25 26  2  0  0  0
 26 27  1  0  0  0
 27 28  2  0  0  0
 28 29  1  0  0  0
 29 30  1  0  0  0
 30 31  2  0  0  0
  6  2  1  0  0  0
 31  8  1  0  0  0
 29  2  1  0  0  0
 14  9  1  0  0  0
 31 15  1  0  0  0
 21 16  1  0  0  0
 30 22  1  0  0  0
 28 23  1  0  0  0
  7 32  1  0  0  0
 35 36  1  0  0  0
 19 33  1  0  0  0
M  END
> <minimizedAffinity>
-4.92035

> <CNNscore>
0.6586853862

> <CNNaffinity>
5.9854073524

> <CNN_VS>
3.9425003529

> <CNNaffinity_variance>
0.7536212206

$$$$
[H]OC([H])([H])[C@@]1(O[H])C([H])([H])[C@]2([H])O[C@]1(C([H])([H])[H])n1c3c([H])c([H])c([H])c([H])c3c3c4c(c5c6c([H])c([H])c([H])c([H])c6n2c5c31)C(=O)N([H])C4([H])[H]


 36 43  0  0  0  0  0  0  0  0999 V2000
    0.8857    6.3197    7.9883 C   0  0  0  0  0  0  0  0  0  0  0  0
    0.8372    4.9141    8.5100 C   0  0  0  0  0  0  0  0  0  0  0  0
    1.9962    3.9661    8.5988 O   0  0  0  0  0  0  0  0  0  0  0  0
    1.4964    2.6760    9.1782 C   0  0  0  0  0  0  0  0  0  0  0  0
    0.0284    2.8266    9.4474 C   0  0  0  0  0  0  0  0  0  0  0  0
   -0.3790    4.2099    9.0345 C   0  0  0  0  0  0  0  0  0  0  0  0
   -1.0709    5.5024    8.7173 O   0  0  0  0  0  0  0  0  0  0  0  0
    2.9627    2.6519    8.8632 N   0  0  0  0  0  0  0  0  0  0  0  0
    3.8400    1.4590    9.1032 C   0  0  0  0  0  0  0  0  0  0  0  0
    3.5516    0.0972    9.6620 C   0  0  0  0  0  0  0  0  0  0  0  0
    4.6546   -0.9118    9.7853 C   0  0  0  0  0  0  0  0  0  0  0  0
    6.0460   -0.5591    9.3499 C   0  0  0  0  0  0  0  0  0  0  0  0
    6.3344    0.8028    8.7912 C   0  0  0  0  0  0  0  0  0  0  0  0
    5.2314    1.8118    8.6679 C   0  0  0  0  0  0  0  0  0  0  0  0
    5.2141    3.2227    8.1587 C   0  0  0  0  0  0  0  0  0  0  0  0
    6.1909    4.3072    7.5489 C   0  0  0  0  0  0  0  0  0  0  0  0
    7.6588    4.1565    7.2796 C   0  0  0  0  0  0  0  0  0  0  0  0
    8.4823    2.9309    7.5434 O   0  0  0  0  0  0  0  0  0  0  0  0
    8.1587    5.4467    6.7002 N   0  0  0  0  0  0  0  0  0  0  0  0
    6.9996    6.3947    6.6114 C   0  0  0  0  0  0  0  0  0  0  0  0
    5.7835    5.6905    7.1359 C   0  0  0  0  0  0  0  0  0  0  0  0
    4.3578    6.1301    7.2908 C   0  0  0  0  0  0  0  0  0  0  0  0
    3.5896    7.3861    7.0038 C   0  0  0  0  0  0  0  0  0  0  0  0
    4.0060    8.7085    6.4311 C   0  0  0  0  0  0  0  0  0  0  0  0
    2.9944    9.8022    6.2568 C   0  0  0  0  0  0  0  0  0  0  0  0
    1.5664    9.5736    6.6551 C   0  0  0  0  0  0  0  0  0  0  0  0
    1.1501    8.2512    7.2278 C   0  0  0  0  0  0  0  0  0  0  0  0
    2.1617    7.1574    7.4021 C   0  0  0  0  0  0  0  0  0  0  0  0
    2.0473    5.7601    7.9353 N   0  0  0  0  0  0  0  0  0  0  0  0
    3.4045    5.1251    7.8666 C   0  0  0  0  0  0  0  0  0  0  0  0
    3.8119    3.7418    8.2795 C   0  0  0  0  0  0  0  0  0  0  0  0
   -2.5219    5.8234    8.9209 H   0  0  0  0  0  0  0  0  0  0  0  0
    9.5698    5.7377    6.2830 H   0  0  0  0  0  0  0  0  0  0  0  0
   -1.7398    3.7759    9.4926 C   0  0  0  0  0  0  0  0  0  0  0  0
   -3.1006    3.3419    9.9508 O   0  0  0  0  0  0  0  0  0  0  0  0
   -3.5570    1.9326    9.7153 H   0  0  0  0  0  0  0  0  0  0  0  0
  2  1  1  0  0  0
  2  3  1  0  0  0
  3  4  1  0  0  0
  4  5  1  0  0  0
  5  6  1  0  0  0
  6  7  1  0  0  0
  6 34  1  0  0  0
 34 35  1  0  0  0
  4  8  1  0  0  0
  8  9  1  0  0  0
  9 10  2  0  0  0
 10 11  1  0  0  0
 11 12  2  0  0  0
 12 13  1  0  0  0
 13 14  2  0  0  0
 14 15  1  0  0  0
 15 16  2  0  0  0
 16 17  1  0  0  0
 17 18  2  0  0  0
 17 19  1  0  0  0
 19 20  1  0  0  0
 20 21  1  0  0  0
 21 22  2  0  0  0
 22 23  1  0  0  0
 23 24  2  0  0  0
 24 25  1  0  0  0
 25 26  2  0  0  0
 26 27  1  0  0  0
 27 28  2  0  0  0
 28 29  1  0  0  0
 29 30  1  0  0  0
 30 31  2  0  0  0
  6  2  1  0  0  0
 31  8  1  0  0  0
 29  2  1  0  0  0
 14  9  1  0  0  0
 31 15  1  0  0  0
 21 16  1  0  0  0
 30 22  1  0  0  0
 28 23  1  0  0  0
  7 32  1  0  0  0
 35 36  1  0  0  0
 19 33  1  0  0  0
M  END
> <minimizedAffinity>
-5.43500

> <CNNscore>
0.6155968308

> <CNNaffinity>
5.7002305984

> <CNN_VS>
3.5090439320

> <CNNaffinity_variance>
0.5804205537

$$$$
[H]OC([H])([H])[C@@]1(O[H])C([H])([H])[C@]2([H])O[C@]1(C([H])([H])[H])n1c3c([H])c([H])c([H])c([H])c3c3c4c(c5c6c([H])c([H])c([H])c([H])c6n2c5c31)C(=O)N([H])C4([H])[H]


 36 43  0  0  0  0  0  0  0  0999 V2000
    1.6762    5.4587    8.4233 C   0  0  0  0  0  0  0  0  0  0  0  0
    2.0993    6.6652    7.6389 C   0  0  0  0  0  0  0  0  0  0  0  0
    3.4780    6.9366    7.1139 O   0  0  0  0  0  0  0  0  0  0  0  0
    3.4487    8.2513    6.3923 C   0  0  0  0  0  0  0  0  0  0  0  0
    2.0520    8.7924    6.4713 C   0  0  0  0  0  0  0  0  0  0  0  0
    1.2180    7.8122    7.2418 C   0  0  0  0  0  0  0  0  0  0  0  0
    0.1532    7.0380    7.9606 O   0  0  0  0  0  0  0  0  0  0  0  0
    4.8019    7.6041    6.3839 N   0  0  0  0  0  0  0  0  0  0  0  0
    6.0036    8.2100    5.7214 C   0  0  0  0  0  0  0  0  0  0  0  0
    6.1921    9.4889    4.9605 C   0  0  0  0  0  0  0  0  0  0  0  0
    7.5397    9.8372    4.4013 C   0  0  0  0  0  0  0  0  0  0  0  0
    8.6987    8.9065    4.6029 C   0  0  0  0  0  0  0  0  0  0  0  0
    8.5102    7.6276    5.3638 C   0  0  0  0  0  0  0  0  0  0  0  0
    7.1626    7.2795    5.9230 C   0  0  0  0  0  0  0  0  0  0  0  0
    6.6773    6.0984    6.7102 C   0  0  0  0  0  0  0  0  0  0  0  0
    7.2125    4.7399    7.3187 C   0  0  0  0  0  0  0  0  0  0  0  0
    8.6093    4.1988    7.2397 C   0  0  0  0  0  0  0  0  0  0  0  0
    9.7725    4.8567    6.5587 O   0  0  0  0  0  0  0  0  0  0  0  0
    8.6385    2.8840    7.9613 N   0  0  0  0  0  0  0  0  0  0  0  0
    7.2599    2.6127    8.4863 C   0  0  0  0  0  0  0  0  0  0  0  0
    6.3785    3.7597    8.0892 C   0  0  0  0  0  0  0  0  0  0  0  0
    4.9244    4.0381    8.3296 C   0  0  0  0  0  0  0  0  0  0  0  0
    3.8018    3.3294    9.0277 C   0  0  0  0  0  0  0  0  0  0  0  0
    3.7438    2.0255    9.7671 C   0  0  0  0  0  0  0  0  0  0  0  0
    2.4518    1.5643   10.3739 C   0  0  0  0  0  0  0  0  0  0  0  0
    1.2179    2.4069   10.2413 C   0  0  0  0  0  0  0  0  0  0  0  0
    1.2760    3.7108    9.5020 C   0  0  0  0  0  0  0  0  0  0  0  0
    2.5680    4.1720    8.8952 C   0  0  0  0  0  0  0  0  0  0  0  0
    2.9280    5.4015    8.1151 N   0  0  0  0  0  0  0  0  0  0  0  0
    4.3843    5.3189    7.7655 C   0  0  0  0  0  0  0  0  0  0  0  0
    5.2183    6.2991    6.9950 C   0  0  0  0  0  0  0  0  0  0  0  0
   -1.2847    7.4280    8.1347 H   0  0  0  0  0  0  0  0  0  0  0  0
    9.8362    1.9965    8.1286 H   0  0  0  0  0  0  0  0  0  0  0  0
    0.1141    8.7973    6.9949 C   0  0  0  0  0  0  0  0  0  0  0  0
   -0.9898    9.7825    6.7480 O   0  0  0  0  0  0  0  0  0  0  0  0
   -0.9599   11.1252    7.4158 H   0  0  0  0  0  0  0  0  0  0  0  0
  2  1  1  0  0  0
  2  3  1  0  0  0
  3  4  1  0  0  0
  4  5  1  0  0  0
  5  6  1  0  0  0
  6  7  1  0  0  0
  6 34  1  0  0  0
 34 35  1  0  0  0
  4  8  1  0  0  0
  8  9  1  0  0  0
  9 10  2  0  0  0
 10 11  1  0  0  0
 11 12  2  0  0  0
 12 13  1  0  0  0
 13 14  2  0  0  0
 14 15  1  0  0  0
 15 16  2  0  0  0
 16 17  1  0  0  0
 17 18  2  0  0  0
 17 19  1  0  0  0
 19 20  1  0  0  0
 20 21  1  0  0  0
 21 22  2  0  0  0
 22 23  1  0  0  0
 23 24  2  0  0  0
 24 25  1  0  0  0
 25 26  2  0  0  0
 26 27  1  0  0  0
 27 28  2  0  0  0
 28 29  1  0  0  0
 29 30  1  0  0  0
 30 31  2  0  0  0
  6  2  1  0  0  0
 31  8  1  0  0  0
 29  2  1  0  0  0
 14  9  1  0  0  0
 31 15  1  0  0  0
 21 16  1  0  0  0
 30 22  1  0  0  0
 28 23  1  0  0  0
  7 32  1  0  0  0
 35 36  1  0  0  0
 19 33  1  0  0  0
M  END
> <minimizedAffinity>
-5.85112

> <CNNscore>
0.5414378643

> <CNNaffinity>
5.5777149200

> <CNN_VS>
3.0199861526

> <CNNaffinity_variance>
0.5664628744

$$$$
[H]OC([H])([H])[C@@]1(O[H])C([H])([H])[C@]2([H])O[C@]1(C([H])([H])[H])n1c3c([H])c([H])c([H])c([H])c3c3c4c(c5c6c([H])c([H])c([H])c([H])c6n2c5c31)C(=O)N([H])C4([H])[H]


 36 43  0  0  0  0  0  0  0  0999 V2000
    1.7141    6.4769    8.3225 C   0  0  0  0  0  0  0  0  0  0  0  0
    2.8579    5.6415    8.8164 C   0  0  0  0  0  0  0  0  0  0  0  0
    4.1693    5.4402    8.1166 O   0  0  0  0  0  0  0  0  0  0  0  0
    5.0129    4.5350    8.9645 C   0  0  0  0  0  0  0  0  0  0  0  0
    4.2230    4.1770   10.1883 C   0  0  0  0  0  0  0  0  0  0  0  0
    2.8911    4.8608   10.0968 C   0  0  0  0  0  0  0  0  0  0  0  0
    1.5056    5.4053   10.2810 O   0  0  0  0  0  0  0  0  0  0  0  0
    5.6972    4.9665    7.7013 N   0  0  0  0  0  0  0  0  0  0  0  0
    7.0840    4.5366    7.3243 C   0  0  0  0  0  0  0  0  0  0  0  0
    8.0828    3.6538    8.0121 C   0  0  0  0  0  0  0  0  0  0  0  0
    9.4194    3.3998    7.3804 C   0  0  0  0  0  0  0  0  0  0  0  0
    9.7571    4.0285    6.0611 C   0  0  0  0  0  0  0  0  0  0  0  0
    8.7582    4.9113    5.3734 C   0  0  0  0  0  0  0  0  0  0  0  0
    7.4217    5.1653    6.0051 C   0  0  0  0  0  0  0  0  0  0  0  0
    6.2436    5.9838    5.5666 C   0  0  0  0  0  0  0  0  0  0  0  0
    5.7866    6.9138    4.3714 C   0  0  0  0  0  0  0  0  0  0  0  0
    6.5766    7.2718    3.1475 C   0  0  0  0  0  0  0  0  0  0  0  0
    7.9662    6.8064    2.8277 O   0  0  0  0  0  0  0  0  0  0  0  0
    5.7329    8.1770    2.2996 N   0  0  0  0  0  0  0  0  0  0  0  0
    4.4215    8.3784    2.9994 C   0  0  0  0  0  0  0  0  0  0  0  0
    4.4547    7.5977    4.2798 C   0  0  0  0  0  0  0  0  0  0  0  0
    3.4442    7.4212    5.3742 C   0  0  0  0  0  0  0  0  0  0  0  0
    2.0545    7.9211    5.6363 C   0  0  0  0  0  0  0  0  0  0  0  0
    1.1463    8.8197    4.8503 C   0  0  0  0  0  0  0  0  0  0  0  0
   -0.2192    9.1509    5.3756 C   0  0  0  0  0  0  0  0  0  0  0  0
   -0.6764    8.5836    6.6867 C   0  0  0  0  0  0  0  0  0  0  0  0
    0.2318    7.6850    7.4726 C   0  0  0  0  0  0  0  0  0  0  0  0
    1.5973    7.3537    6.9473 C   0  0  0  0  0  0  0  0  0  0  0  0
    2.7044    6.5031    7.4956 N   0  0  0  0  0  0  0  0  0  0  0  0
    3.8459    6.5448    6.5234 C   0  0  0  0  0  0  0  0  0  0  0  0
    5.1778    5.8609    6.6149 C   0  0  0  0  0  0  0  0  0  0  0  0
    0.5821    5.1518   11.4355 H   0  0  0  0  0  0  0  0  0  0  0  0
    6.1307    8.7757    0.9830 H   0  0  0  0  0  0  0  0  0  0  0  0
    2.6346    4.1939   11.4157 C   0  0  0  0  0  0  0  0  0  0  0  0
    2.3782    3.5271   12.7347 O   0  0  0  0  0  0  0  0  0  0  0  0
    1.1774    3.9102   13.5478 H   0  0  0  0  0  0  0  0  0  0  0  0
  2  1  1  0  0  0
  2  3  1  0  0  0
  3  4  1  0  0  0
  4  5  1  0  0  0
  5  6  1  0  0  0
  6  7  1  0  0  0
  6 34  1  0  0  0
 34 35  1  0  0  0
  4  8  1  0  0  0
  8  9  1  0  0  0
  9 10  2  0  0  0
 10 11  1  0  0  0
 11 12  2  0  0  0
 12 13  1  0  0  0
 13 14  2  0  0  0
 14 15  1  0  0  0
 15 16  2  0  0  0
 16 17  1  0  0  0
 17 18  2  0  0  0
 17 19  1  0  0  0
 19 20  1  0  0  0
 20 21  1  0  0  0
 21 22  2  0  0  0
 22 23  1  0  0  0
 23 24  2  0  0  0
 24 25  1  0  0  0
 25 26  2  0  0  0
 26 27  1  0  0  0
 27 28  2  0  0  0
 28 29  1  0  0  0
 29 30  1  0  0  0
 30 31  2  0  0  0
  6  2  1  0  0  0
 31  8  1  0  0  0
 29  2  1  0  0  0
 14  9  1  0  0  0
 31 15  1  0  0  0
 21 16  1  0  0  0
 30 22  1  0  0  0
 28 23  1  0  0  0
  7 32  1  0  0  0
 35 36  1  0  0  0
 19 33  1  0  0  0
M  END
> <minimizedAffinity>
-4.93756

> <CNNscore>
0.5082508326

> <CNNaffinity>
5.7966547012

> <CNN_VS>
2.9461545944

> <CNNaffinity_variance>
1.2063795328

$$$$
[H]OC([H])([H])[C@@]1(O[H])C([H])([H])[C@]2([H])O[C@]1(C([H])([H])[H])n1c3c([H])c([H])c([H])c([H])c3c3c4c(c5c6c([H])c([H])c([H])c([H])c6n2c5c31)C(=O)N([H])C4([H])[H]


 36 43  0  0  0  0  0  0  0  0999 V2000
    4.4183   -0.0443    8.8734 C   0  0  0  0  0  0  0  0  0  0  0  0
    4.5702    1.4311    8.6498 C   0  0  0  0  0  0  0  0  0  0  0  0
    3.4527    2.4246    8.5309 O   0  0  0  0  0  0  0  0  0  0  0  0
    4.0582    3.7796    8.3134 C   0  0  0  0  0  0  0  0  0  0  0  0
    5.5500    3.6236    8.2979 C   0  0  0  0  0  0  0  0  0  0  0  0
    5.8665    2.1721    8.5058 C   0  0  0  0  0  0  0  0  0  0  0  0
    6.4808    0.8164    8.6917 O   0  0  0  0  0  0  0  0  0  0  0  0
    2.5588    3.8027    8.3489 N   0  0  0  0  0  0  0  0  0  0  0  0
    1.7475    5.0536    8.1837 C   0  0  0  0  0  0  0  0  0  0  0  0
    2.1419    6.4834    7.9606 C   0  0  0  0  0  0  0  0  0  0  0  0
    1.0861    7.5410    7.8305 C   0  0  0  0  0  0  0  0  0  0  0  0
   -0.3639    7.1687    7.9236 C   0  0  0  0  0  0  0  0  0  0  0  0
   -0.7583    5.7387    8.1467 C   0  0  0  0  0  0  0  0  0  0  0  0
    0.2975    4.6812    8.2768 C   0  0  0  0  0  0  0  0  0  0  0  0
    0.2126    3.2002    8.4995 C   0  0  0  0  0  0  0  0  0  0  0  0
   -0.8663    2.0604    8.6972 C   0  0  0  0  0  0  0  0  0  0  0  0
   -2.3581    2.2165    8.7126 C   0  0  0  0  0  0  0  0  0  0  0  0
   -3.1120    3.5018    8.5408 O   0  0  0  0  0  0  0  0  0  0  0  0
   -2.9637    0.8614    8.9301 N   0  0  0  0  0  0  0  0  0  0  0  0
   -1.8461   -0.1320    9.0490 C   0  0  0  0  0  0  0  0  0  0  0  0
   -0.5499    0.6090    8.9051 C   0  0  0  0  0  0  0  0  0  0  0  0
    0.8777    0.1496    8.9364 C   0  0  0  0  0  0  0  0  0  0  0  0
    1.5727   -1.1677    9.1145 C   0  0  0  0  0  0  0  0  0  0  0  0
    1.0502   -2.5564    9.3348 C   0  0  0  0  0  0  0  0  0  0  0  0
    2.0063   -3.7030    9.4807 C   0  0  0  0  0  0  0  0  0  0  0  0
    3.4848   -3.4609    9.4063 C   0  0  0  0  0  0  0  0  0  0  0  0
    4.0071   -2.0722    9.1860 C   0  0  0  0  0  0  0  0  0  0  0  0
    3.0511   -0.9256    9.0401 C   0  0  0  0  0  0  0  0  0  0  0  0
    3.2699    0.5413    8.8160 N   0  0  0  0  0  0  0  0  0  0  0  0
    1.9266    1.2059    8.7519 C   0  0  0  0  0  0  0  0  0  0  0  0
    1.6102    2.6574    8.5440 C   0  0  0  0  0  0  0  0  0  0  0  0
    7.9429    0.4816    8.7036 H   0  0  0  0  0  0  0  0  0  0  0  0
   -4.4294    0.5539    9.0139 H   0  0  0  0  0  0  0  0  0  0  0  0
    7.2911    2.6297    8.4007 C   0  0  0  0  0  0  0  0  0  0  0  0
    8.7158    3.0873    8.2956 O   0  0  0  0  0  0  0  0  0  0  0  0
    9.2443    4.1187    9.2478 H   0  0  0  0  0  0  0  0  0  0  0  0
  2  1  1  0  0  0
  2  3  1  0  0  0
  3  4  1  0  0  0
  4  5  1  0  0  0
  5  6  1  0  0  0
  6  7  1  0  0  0
  6 34  1  0  0  0
 34 35  1  0  0  0
  4  8  1  0  0  0
  8  9  1  0  0  0
  9 10  2  0  0  0
 10 11  1  0  0  0
 11 12  2  0  0  0
 12 13  1  0  0  0
 13 14  2  0  0  0
 14 15  1  0  0  0
 15 16  2  0  0  0
 16 17  1  0  0  0
 17 18  2  0  0  0
 17 19  1  0  0  0
 19 20  1  0  0  0
 20 21  1  0  0  0
 21 22  2  0  0  0
 22 23  1  0  0  0
 23 24  2  0  0  0
 24 25  1  0  0  0
 25 26  2  0  0  0
 26 27  1  0  0  0
 27 28  2  0  0  0
 28 29  1  0  0  0
 29 30  1  0  0  0
 30 31  2  0  0  0
  6  2  1  0  0  0
 31  8  1  0  0  0
 29  2  1  0  0  0
 14  9  1  0  0  0
 31 15  1  0  0  0
 21 16  1  0  0  0
 30 22  1  0  0  0
 28 23  1  0  0  0
  7 32  1  0  0  0
 35 36  1  0  0  0
 19 33  1  0  0  0
M  END
> <minimizedAffinity>
-5.16785

> <CNNscore>
0.5039311647

> <CNNaffinity>
5.6555228233

> <CNN_VS>
2.8499941826

> <CNNaffinity_variance>
0.7055762410

$$$$
[H]OC([H])([H])[C@@]1(O[H])C([H])([H])[C@]2([H])O[C@]1(C([H])([H])[H])n1c3c([H])c([H])c([H])c([H])c3c3c4c(c5c6c([H])c([H])c([H])c([H])c6n2c5c31)C(=O)N([H])C4([H])[H]


 36 43  0  0  0  0  0  0  0  0999 V2000
    3.4702    2.2792   10.0429 C   0  0  0  0  0  0  0  0  0  0  0  0
    3.3646    3.7743   10.1020 C   0  0  0  0  0  0  0  0  0  0  0  0
    4.0238    4.7425    9.1650 O   0  0  0  0  0  0  0  0  0  0  0  0
    3.6478    6.1302    9.5925 C   0  0  0  0  0  0  0  0  0  0  0  0
    2.7562    6.0197   10.7937 C   0  0  0  0  0  0  0  0  0  0  0  0
    2.5812    4.5636   11.1086 C   0  0  0  0  0  0  0  0  0  0  0  0
    2.2269    3.2136   11.6580 O   0  0  0  0  0  0  0  0  0  0  0  0
    4.5452    6.1064    8.3908 N   0  0  0  0  0  0  0  0  0  0  0  0
    5.0185    7.3442    7.6881 C   0  0  0  0  0  0  0  0  0  0  0  0
    4.7682    8.8010    7.9433 C   0  0  0  0  0  0  0  0  0  0  0  0
    5.3897    9.8360    7.0531 C   0  0  0  0  0  0  0  0  0  0  0  0
    6.2615    9.4141    5.9076 C   0  0  0  0  0  0  0  0  0  0  0  0
    6.5118    7.9573    5.6525 C   0  0  0  0  0  0  0  0  0  0  0  0
    5.8903    6.9224    6.5427 C   0  0  0  0  0  0  0  0  0  0  0  0
    5.9559    5.4238    6.5375 C   0  0  0  0  0  0  0  0  0  0  0  0
    6.6131    4.2385    5.7218 C   0  0  0  0  0  0  0  0  0  0  0  0
    7.5047    4.3491    4.5206 C   0  0  0  0  0  0  0  0  0  0  0  0
    7.9432    5.6236    3.8625 O   0  0  0  0  0  0  0  0  0  0  0  0
    7.8807    2.9613    4.0931 N   0  0  0  0  0  0  0  0  0  0  0  0
    7.2215    1.9931    5.0301 C   0  0  0  0  0  0  0  0  0  0  0  0
    6.4381    2.7824    6.0367 C   0  0  0  0  0  0  0  0  0  0  0  0
    5.5880    2.3634    7.1994 C   0  0  0  0  0  0  0  0  0  0  0  0
    5.1850    1.0548    7.8117 C   0  0  0  0  0  0  0  0  0  0  0  0
    5.5116   -0.3645    7.4522 C   0  0  0  0  0  0  0  0  0  0  0  0
    4.9507   -1.4925    8.2664 C   0  0  0  0  0  0  0  0  0  0  0  0
    4.0631   -1.2013    9.4401 C   0  0  0  0  0  0  0  0  0  0  0  0
    3.7366    0.2179    9.7996 C   0  0  0  0  0  0  0  0  0  0  0  0
    4.2975    1.3459    8.9853 C   0  0  0  0  0  0  0  0  0  0  0  0
    4.1520    2.8345    9.0984 N   0  0  0  0  0  0  0  0  0  0  0  0
    4.9495    3.4634    7.9946 C   0  0  0  0  0  0  0  0  0  0  0  0
    5.1245    4.9195    7.6797 C   0  0  0  0  0  0  0  0  0  0  0  0
    1.3549    2.9215   12.8430 H   0  0  0  0  0  0  0  0  0  0  0  0
    8.7613    2.6044    2.9324 H   0  0  0  0  0  0  0  0  0  0  0  0
    1.7237    5.0707   12.2301 C   0  0  0  0  0  0  0  0  0  0  0  0
    0.8663    5.5779   13.3515 O   0  0  0  0  0  0  0  0  0  0  0  0
    0.0217    6.8018   13.1553 H   0  0  0  0  0  0  0  0  0  0  0  0
  2  1  1  0  0  0
  2  3  1  0  0  0
  3  4  1  0  0  0
  4  5  1  0  0  0
  5  6  1  0  0  0
  6  7  1  0  0  0
  6 34  1  0  0  0
 34 35  1  0  0  0
  4  8  1  0  0  0
  8  9  1  0  0  0
  9 10  2  0  0  0
 10 11  1  0  0  0
 11 12  2  0  0  0
 12 13  1  0  0  0
 13 14  2  0  0  0
 14 15  1  0  0  0
 15 16  2  0  0  0
 16 17  1  0  0  0
 17 18  2  0  0  0
 17 19  1  0  0  0
 19 20  1  0  0  0
 20 21  1  0  0  0
 21 22  2  0  0  0
 22 23  1  0  0  0
 23 24  2  0  0  0
 24 25  1  0  0  0
 25 26  2  0  0  0
 26 27  1  0  0  0
 27 28  2  0  0  0
 28 29  1  0  0  0
 29 30  1  0  0  0
 30 31  2  0  0  0
  6  2  1  0  0  0
 31  8  1  0  0  0
 29  2  1  0  0  0
 14  9  1  0  0  0
 31 15  1  0  0  0
 21 16  1  0  0  0
 30 22  1  0  0  0
 28 23  1  0  0  0
  7 32  1  0  0  0
 35 36  1  0  0  0
 19 33  1  0  0  0
M  END
> <minimizedAffinity>
-5.84156

> <CNNscore>
0.4939628839

> <CNNaffinity>
5.6751461029

> <CNN_VS>
2.8033115864

> <CNNaffinity_variance>
0.6801790595

$$$$
[H]OC([H])([H])[C@@]1(O[H])C([H])([H])[C@]2([H])O[C@]1(C([H])([H])[H])n1c3c([H])c([H])c([H])c([H])c3c3c4c(c5c6c([H])c([H])c([H])c([H])c6n2c5c31)C(=O)N([H])C4([H])[H]


 36 43  0  0  0  0  0  0  0  0999 V2000
    3.4853    3.7569    9.6328 C   0  0  0  0  0  0  0  0  0  0  0  0
    2.0074    3.5095    9.7008 C   0  0  0  0  0  0  0  0  0  0  0  0
    1.3092    2.2339    9.3327 O   0  0  0  0  0  0  0  0  0  0  0  0
   -0.1615    2.4304    9.5532 C   0  0  0  0  0  0  0  0  0  0  0  0
   -0.3721    3.8273   10.0576 C   0  0  0  0  0  0  0  0  0  0  0  0
    0.9684    4.4942   10.1488 C   0  0  0  0  0  0  0  0  0  0  0  0
    2.1429    5.4069   10.3421 O   0  0  0  0  0  0  0  0  0  0  0  0
    0.1808    1.0613    9.0448 N   0  0  0  0  0  0  0  0  0  0  0  0
   -0.8434   -0.0031    8.7835 C   0  0  0  0  0  0  0  0  0  0  0  0
   -2.3358   -0.0182    8.9332 C   0  0  0  0  0  0  0  0  0  0  0  0
   -3.1118   -1.2543    8.5868 C   0  0  0  0  0  0  0  0  0  0  0  0
   -2.3953   -2.4752    8.0907 C   0  0  0  0  0  0  0  0  0  0  0  0
   -0.9028   -2.4601    7.9411 C   0  0  0  0  0  0  0  0  0  0  0  0
   -0.1270   -1.2239    8.2875 C   0  0  0  0  0  0  0  0  0  0  0  0
    1.3401   -0.9142    8.2422 C   0  0  0  0  0  0  0  0  0  0  0  0
    2.7157   -1.5971    7.8635 C   0  0  0  0  0  0  0  0  0  0  0  0
    2.9263   -2.9940    7.3592 C   0  0  0  0  0  0  0  0  0  0  0  0
    1.8545   -4.0152    7.1177 O   0  0  0  0  0  0  0  0  0  0  0  0
    4.3970   -3.1904    7.1387 N   0  0  0  0  0  0  0  0  0  0  0  0
    5.0953   -1.9149    7.5067 C   0  0  0  0  0  0  0  0  0  0  0  0
    4.0562   -0.9302    7.9547 C   0  0  0  0  0  0  0  0  0  0  0  0
    4.1575    0.4876    8.4339 C   0  0  0  0  0  0  0  0  0  0  0  0
    5.2748    1.4636    8.6550 C   0  0  0  0  0  0  0  0  0  0  0  0
    6.7582    1.3515    8.4623 C   0  0  0  0  0  0  0  0  0  0  0  0
    7.6454    2.5203    8.7739 C   0  0  0  0  0  0  0  0  0  0  0  0
    7.0492    3.8010    9.2782 C   0  0  0  0  0  0  0  0  0  0  0  0
    5.5658    3.9130    9.4708 C   0  0  0  0  0  0  0  0  0  0  0  0
    4.6787    2.7442    9.1592 C   0  0  0  0  0  0  0  0  0  0  0  0
    3.1928    2.5599    9.2498 N   0  0  0  0  0  0  0  0  0  0  0  0
    2.8706    1.1651    8.8015 C   0  0  0  0  0  0  0  0  0  0  0  0
    1.5302    0.4982    8.7103 C   0  0  0  0  0  0  0  0  0  0  0  0
    2.1141    6.8235   10.8344 H   0  0  0  0  0  0  0  0  0  0  0  0
    5.0540   -4.4425    6.6380 H   0  0  0  0  0  0  0  0  0  0  0  0
    0.1748    5.6697   10.6371 C   0  0  0  0  0  0  0  0  0  0  0  0
   -0.6187    6.8452   11.1255 O   0  0  0  0  0  0  0  0  0  0  0  0
   -1.6037    6.6728   12.2435 H   0  0  0  0  0  0  0  0  0  0  0  0
  2  1  1  0  0  0
  2  3  1  0  0  0
  3  4  1  0  0  0
  4  5  1  0  0  0
  5  6  1  0  0  0
  6  7  1  0  0  0
  6 34  1  0  0  0
 34 35  1  0  0  0
  4  8  1  0  0  0
  8  9  1  0  0  0
  9 10  2  0  0  0
 10 11  1  0  0  0
 11 12  2  0  0  0
 12 13  1  0  0  0
 13 14  2  0  0  0
 14 15  1  0  0  0
 15 16  2  0  0  0
 16 17  1  0  0  0
 17 18  2  0  0  0
 17 19  1  0  0  0
 19 20  1  0  0  0
 20 21  1  0  0  0
 21 22  2  0  0  0
 22 23  1  0  0  0
 23 24  2  0  0  0
 24 25  1  0  0  0
 25 26  2  0  0  0
 26 27  1  0  0  0
 27 28  2  0  0  0
 28 29  1  0  0  0
 29 30  1  0  0  0
 30 31  2  0  0  0
  6  2  1  0  0  0
 31  8  1  0  0  0
 29  2  1  0  0  0
 14  9  1  0  0  0
 31 15  1  0  0  0
 21 16  1  0  0  0
 30 22  1  0  0  0
 28 23  1  0  0  0
  7 32  1  0  0  0
 35 36  1  0  0  0
 19 33  1  0  0  0
M  END
> <minimizedAffinity>
-5.07917

> <CNNscore>
0.4853051603

> <CNNaffinity>
5.5443420410

> <CNN_VS>
2.6906979084

> <CNNaffinity_variance>
0.3633295298

$$$$
[H]OC([H])([H])[C@@]1(O[H])C([H])([H])[C@]2([H])O[C@]1(C([H])([H])[H])n1c3c([H])c([H])c([H])c([H])c3c3c4c(c5c6c([H])c([H])c([H])c([H])c6n2c5c31)C(=O)N([H])C4([H])[H]


 36 43  0  0  0  0  0  0  0  0999 V2000
    6.2817    5.5927    9.1847 C   0  0  0  0  0  0  0  0  0  0  0  0
    4.8288    5.7216    9.5346 C   0  0  0  0  0  0  0  0  0  0  0  0
    3.7480    6.2426    8.6343 O   0  0  0  0  0  0  0  0  0  0  0  0
    2.4528    6.1951    9.3894 C   0  0  0  0  0  0  0  0  0  0  0  0
    2.7331    5.6448   10.7564 C   0  0  0  0  0  0  0  0  0  0  0  0
    4.2016    5.3522   10.8461 C   0  0  0  0  0  0  0  0  0  0  0  0
    5.6000    4.9654   11.2267 O   0  0  0  0  0  0  0  0  0  0  0  0
    2.3039    6.7316    7.9966 N   0  0  0  0  0  0  0  0  0  0  0  0
    0.9931    7.1755    7.4178 C   0  0  0  0  0  0  0  0  0  0  0  0
   -0.3942    7.2125    7.9868 C   0  0  0  0  0  0  0  0  0  0  0  0
   -1.5335    7.7194    7.1532 C   0  0  0  0  0  0  0  0  0  0  0  0
   -1.2855    8.1893    5.7504 C   0  0  0  0  0  0  0  0  0  0  0  0
    0.1019    8.1523    5.1814 C   0  0  0  0  0  0  0  0  0  0  0  0
    1.2411    7.6454    6.0151 C   0  0  0  0  0  0  0  0  0  0  0  0
    2.7053    7.4919    5.7269 C   0  0  0  0  0  0  0  0  0  0  0  0
    3.7469    7.7345    4.5614 C   0  0  0  0  0  0  0  0  0  0  0  0
    3.4665    8.2848    3.1944 C   0  0  0  0  0  0  0  0  0  0  0  0
    2.1264    8.7125    2.6740 O   0  0  0  0  0  0  0  0  0  0  0  0
    4.7618    8.3323    2.4393 N   0  0  0  0  0  0  0  0  0  0  0  0
    5.8425    7.8113    3.3396 C   0  0  0  0  0  0  0  0  0  0  0  0
    5.2153    7.4419    4.6511 C   0  0  0  0  0  0  0  0  0  0  0  0
    5.7916    6.8769    5.9154 C   0  0  0  0  0  0  0  0  0  0  0  0
    7.1586    6.4661    6.3766 C   0  0  0  0  0  0  0  0  0  0  0  0
    8.4943    6.4799    5.6940 C   0  0  0  0  0  0  0  0  0  0  0  0
    9.7136    5.9974    6.4223 C   0  0  0  0  0  0  0  0  0  0  0  0
    9.5973    5.5012    7.8331 C   0  0  0  0  0  0  0  0  0  0  0  0
    8.2617    5.4876    8.5156 C   0  0  0  0  0  0  0  0  0  0  0  0
    7.0423    5.9700    7.7873 C   0  0  0  0  0  0  0  0  0  0  0  0
    5.6034    6.0741    8.1981 N   0  0  0  0  0  0  0  0  0  0  0  0
    4.8304    6.6346    7.0413 C   0  0  0  0  0  0  0  0  0  0  0  0
    3.3620    6.9272    6.9516 C   0  0  0  0  0  0  0  0  0  0  0  0
    6.0554    4.4036   12.5408 H   0  0  0  0  0  0  0  0  0  0  0  0
    4.9441    8.8158    1.0311 H   0  0  0  0  0  0  0  0  0  0  0  0
    3.8667    4.9019   12.2372 C   0  0  0  0  0  0  0  0  0  0  0  0
    3.5318    4.4517   13.6283 O   0  0  0  0  0  0  0  0  0  0  0  0
    4.3609    4.9187   14.7877 H   0  0  0  0  0  0  0  0  0  0  0  0
  2  1  1  0  0  0
  2  3  1  0  0  0
  3  4  1  0  0  0
  4  5  1  0  0  0
  5  6  1  0  0  0
  6  7  1  0  0  0
  6 34  1  0  0  0
 34 35  1  0  0  0
  4  8  1  0  0  0
  8  9  1  0  0  0
  9 10  2  0  0  0
 10 11  1  0  0  0
 11 12  2  0  0  0
 12 13  1  0  0  0
 13 14  2  0  0  0
 14 15  1  0  0  0
 15 16  2  0  0  0
 16 17  1  0  0  0
 17 18  2  0  0  0
 17 19  1  0  0  0
 19 20  1  0  0  0
 20 21  1  0  0  0
 21 22  2  0  0  0
 22 23  1  0  0  0
 23 24  2  0  0  0
 24 25  1  0  0  0
 25 26  2  0  0  0
 26 27  1  0  0  0
 27 28  2  0  0  0
 28 29  1  0  0  0
 29 30  1  0  0  0
 30 31  2  0  0  0
  6  2  1  0  0  0
 31  8  1  0  0  0
 29  2  1  0  0  0
 14  9  1  0  0  0
 31 15  1  0  0  0
 21 16  1  0  0  0
 30 22  1  0  0  0
 28 23  1  0  0  0
  7 32  1  0  0  0
 35 36  1  0  0  0
 19 33  1  0  0  0
M  END
> <minimizedAffinity>
-5.41669

> <CNNscore>
0.4455273449

> <CNNaffinity>
5.9044771194

> <CNN_VS>
2.6306059361

> <CNNaffinity_variance>
1.2946773767

$$$$
[H]OC([H])([H])[C@@]1(O[H])C([H])([H])[C@]2([H])O[C@]1(C([H])([H])[H])n1c3c([H])c([H])c([H])c([H])c3c3c4c(c5c6c([H])c([H])c([H])c([H])c6n2c5c31)C(=O)N([H])C4([H])[H]


 36 43  0  0  0  0  0  0  0  0999 V2000
   -0.5573    2.1561    7.0885 C   0  0  0  0  0  0  0  0  0  0  0  0
   -0.1020    1.5136    8.3652 C   0  0  0  0  0  0  0  0  0  0  0  0
    0.6674    2.1845    9.4643 O   0  0  0  0  0  0  0  0  0  0  0  0
    0.9086    1.1730   10.5454 C   0  0  0  0  0  0  0  0  0  0  0  0
    0.2884   -0.1230   10.1144 C   0  0  0  0  0  0  0  0  0  0  0  0
   -0.3363    0.0875    8.7670 C   0  0  0  0  0  0  0  0  0  0  0  0
   -1.0406   -0.0041    7.4458 O   0  0  0  0  0  0  0  0  0  0  0  0
    1.4856    2.5213   10.8602 N   0  0  0  0  0  0  0  0  0  0  0  0
    2.2283    2.8270   12.1271 C   0  0  0  0  0  0  0  0  0  0  0  0
    2.5757    1.9809   13.3159 C   0  0  0  0  0  0  0  0  0  0  0  0
    3.3439    2.5739   14.4597 C   0  0  0  0  0  0  0  0  0  0  0  0
    3.7647    4.0130   14.4146 C   0  0  0  0  0  0  0  0  0  0  0  0
    3.4172    4.8591   13.2257 C   0  0  0  0  0  0  0  0  0  0  0  0
    2.6490    4.2660   12.0820 C   0  0  0  0  0  0  0  0  0  0  0  0
    2.1664    4.8498   10.7872 C   0  0  0  0  0  0  0  0  0  0  0  0
    2.1795    6.2158    9.9897 C   0  0  0  0  0  0  0  0  0  0  0  0
    2.7998    7.5117   10.4207 C   0  0  0  0  0  0  0  0  0  0  0  0
    3.5326    7.7537   11.7068 O   0  0  0  0  0  0  0  0  0  0  0  0
    2.5585    8.5233    9.3396 N   0  0  0  0  0  0  0  0  0  0  0  0
    1.7891    7.8524    8.2405 C   0  0  0  0  0  0  0  0  0  0  0  0
    1.5549    6.4263    8.6422 C   0  0  0  0  0  0  0  0  0  0  0  0
    0.8535    5.2923    7.9552 C   0  0  0  0  0  0  0  0  0  0  0  0
    0.1319    5.1145    6.6523 C   0  0  0  0  0  0  0  0  0  0  0  0
   -0.1526    6.0624    5.5251 C   0  0  0  0  0  0  0  0  0  0  0  0
   -0.9140    5.5901    4.3221 C   0  0  0  0  0  0  0  0  0  0  0  0
   -1.3908    4.1699    4.2462 C   0  0  0  0  0  0  0  0  0  0  0  0
   -1.1062    3.2220    5.3735 C   0  0  0  0  0  0  0  0  0  0  0  0
   -0.3449    3.6944    6.5765 C   0  0  0  0  0  0  0  0  0  0  0  0
    0.0821    2.9944    7.8326 N   0  0  0  0  0  0  0  0  0  0  0  0
    0.8227    3.9819    8.6847 C   0  0  0  0  0  0  0  0  0  0  0  0
    1.4474    3.7714   10.0321 C   0  0  0  0  0  0  0  0  0  0  0  0
   -1.7118   -1.2120    6.8624 H   0  0  0  0  0  0  0  0  0  0  0  0
    3.0077    9.9543    9.3550 H   0  0  0  0  0  0  0  0  0  0  0  0
   -0.7177   -1.3577    8.8925 C   0  0  0  0  0  0  0  0  0  0  0  0
   -1.0992   -2.8030    9.0181 O   0  0  0  0  0  0  0  0  0  0  0  0
   -1.7987   -3.2895   10.2526 H   0  0  0  0  0  0  0  0  0  0  0  0
  2  1  1  0  0  0
  2  3  1  0  0  0
  3  4  1  0  0  0
  4  5  1  0  0  0
  5  6  1  0  0  0
  6  7  1  0  0  0
  6 34  1  0  0  0
 34 35  1  0  0  0
  4  8  1  0  0  0
  8  9  1  0  0  0
  9 10  2  0  0  0
 10 11  1  0  0  0
 11 12  2  0  0  0
 12 13  1  0  0  0
 13 14  2  0  0  0
 14 15  1  0  0  0
 15 16  2  0  0  0
 16 17  1  0  0  0
 17 18  2  0  0  0
 17 19  1  0  0  0
 19 20  1  0  0  0
 20 21  1  0  0  0
 21 22  2  0  0  0
 22 23  1  0  0  0
 23 24  2  0  0  0
 24 25  1  0  0  0
 25 26  2  0  0  0
 26 27  1  0  0  0
 27 28  2  0  0  0
 28 29  1  0  0  0
 29 30  1  0  0  0
 30 31  2  0  0  0
  6  2  1  0  0  0
 31  8  1  0  0  0
 29  2  1  0  0  0
 14  9  1  0  0  0
 31 15  1  0  0  0
 21 16  1  0  0  0
 30 22  1  0  0  0
 28 23  1  0  0  0
  7 32  1  0  0  0
 35 36  1  0  0  0
 19 33  1  0  0  0
M  END
> <minimizedAffinity>
-5.11905

> <CNNscore>
0.4095495641

> <CNNaffinity>
5.7510695457

> <CNN_VS>
2.3553481102

> <CNNaffinity_variance>
0.8955224752

$$$$
[H]/C(C(=O)N([H])[C@]([H])(C(=O)N([H])C([H])([H])C([H])([H])C([H])([H])C([H])([H])C([H])([H])N([H])C(=O)c1c([H])c(F)c([H])c([H])c1F)C([H])([H])[H])=C(/[H])c1c([H])c([H])c(OC([H])([H])C([H])([H])N2C([H])([H])C([H])([H])C([H])([H])C([H])([H])C([H])([H])C2([H])[H])c([H])c1[H]


 45 47  0  0  0  0  0  0  0  0999 V2000
    3.8671    7.3242   13.2104 C   0  0  0  0  0  0  0  0  0  0  0  0
    2.9096    7.7307   14.3090 C   0  0  0  0  0  0  0  0  0  0  0  0
    1.5725    7.8520   13.8236 N   0  0  0  0  0  0  0  0  0  0  0  0
    0.6273    6.8071   13.9216 C   0  0  0  0  0  0  0  0  0  0  0  0
    0.9890    5.7386   14.4635 O   0  0  0  0  0  0  0  0  0  0  0  0
    1.2904    8.7536   13.3797 H   0  0  0  0  0  0  0  0  0  0  0  0
   -0.7411    6.8893   13.4324 C   0  0  0  0  0  0  0  0  0  0  0  0
   -1.2623    6.0786   12.5581 C   0  0  0  0  0  0  0  0  0  0  0  0
   -2.6091    6.0985   12.0272 C   0  0  0  0  0  0  0  0  0  0  0  0
   -3.6695    6.4489   12.8324 C   0  0  0  0  0  0  0  0  0  0  0  0
   -4.9740    6.4853   12.3557 C   0  0  0  0  0  0  0  0  0  0  0  0
   -5.2895    6.1740   11.0568 C   0  0  0  0  0  0  0  0  0  0  0  0
   -4.2003    5.8157   10.2353 C   0  0  0  0  0  0  0  0  0  0  0  0
   -2.9172    5.7865   10.7260 C   0  0  0  0  0  0  0  0  0  0  0  0
   -6.5478    6.1810   10.5049 O   0  0  0  0  0  0  0  0  0  0  0  0
   -7.3364    5.0567   10.3463 C   0  0  0  0  0  0  0  0  0  0  0  0
   -6.5962    3.7733   10.5150 C   0  0  0  0  0  0  0  0  0  0  0  0
   -6.8823    2.7911    9.5003 N   0  0  0  0  0  0  0  0  0  0  0  0
   -7.8414    3.3354    8.5995 C   0  0  0  0  0  0  0  0  0  0  0  0
   -7.7115    2.7467    7.2371 C   0  0  0  0  0  0  0  0  0  0  0  0
   -6.7209    3.5582    6.4456 C   0  0  0  0  0  0  0  0  0  0  0  0
   -5.5816    4.1002    7.2652 C   0  0  0  0  0  0  0  0  0  0  0  0
   -4.8780    3.0402    8.0514 C   0  0  0  0  0  0  0  0  0  0  0  0
   -5.7492    2.2229    8.9423 C   0  0  0  0  0  0  0  0  0  0  0  0
    3.3774    9.0009   14.9688 C   0  0  0  0  0  0  0  0  0  0  0  0
    4.0818    9.8512   14.3740 O   0  0  0  0  0  0  0  0  0  0  0  0
    3.0141    9.2513   16.3090 N   0  0  0  0  0  0  0  0  0  0  0  0
    2.4306    8.5347   16.8030 H   0  0  0  0  0  0  0  0  0  0  0  0
    3.4073   10.4277   17.0064 C   0  0  0  0  0  0  0  0  0  0  0  0
    3.0985   10.3839   18.4959 C   0  0  0  0  0  0  0  0  0  0  0  0
    4.3600   10.6633   19.2750 C   0  0  0  0  0  0  0  0  0  0  0  0
    4.5539    9.5764   20.3029 C   0  0  0  0  0  0  0  0  0  0  0  0
    4.9960    8.2892   19.6926 C   0  0  0  0  0  0  0  0  0  0  0  0
    4.5081    7.1746   20.5178 N   0  0  0  0  0  0  0  0  0  0  0  0
    4.9482    5.8696   20.2810 C   0  0  0  0  0  0  0  0  0  0  0  0
    5.7736    5.6340   19.3225 O   0  0  0  0  0  0  0  0  0  0  0  0
    3.8140    7.4201   21.2668 H   0  0  0  0  0  0  0  0  0  0  0  0
    4.5382    4.7168   21.0492 C   0  0  0  0  0  0  0  0  0  0  0  0
    4.0137    4.9329   22.3258 C   0  0  0  0  0  0  0  0  0  0  0  0
    3.6192    3.9133   23.1571 C   0  0  0  0  0  0  0  0  0  0  0  0
    3.1180    4.2149   24.3882 F   0  0  0  0  0  0  0  0  0  0  0  0
    3.7501    2.6205   22.7014 C   0  0  0  0  0  0  0  0  0  0  0  0
    4.2524    2.3454   21.4684 C   0  0  0  0  0  0  0  0  0  0  0  0
    4.6473    3.4049   20.6408 C   0  0  0  0  0  0  0  0  0  0  0  0
    5.1117    3.0879   19.4289 F   0  0  0  0  0  0  0  0  0  0  0  0
  1  2  1  0  0  0
  2  3  1  0  0  0
  3  4  1  0  0  0
  4  5  2  0  0  0
  4  7  1  0  0  0
  7  8  2  0  0  0
  8  9  1  0  0  0
  9 10  2  0  0  0
 10 11  1  0  0  0
 11 12  2  0  0  0
 12 15  1  0  0  0
 15 16  1  0  0  0
 16 17  1  0  0  0
 17 18  1  0  0  0
 18 19  1  0  0  0
 19 20  1  0  0  0
 20 21  1  0  0  0
 21 22  1  0  0  0
 22 23  1  0  0  0
 23 24  1  0  0  0
 12 13  1  0  0  0
 13 14  2  0  0  0
  2 25  1  0  0  0
 25 26  2  0  0  0
 25 27  1  0  0  0
 27 29  1  0  0  0
 29 30  1  0  0  0
 30 31  1  0  0  0
 31 32  1  0  0  0
 32 33  1  0  0  0
 33 34  1  0  0  0
 34 35  1  0  0  0
 35 36  2  0  0  0
 35 38  1  0  0  0
 38 39  2  0  0  0
 39 40  1  0  0  0
 40 41  1  0  0  0
 40 42  2  0  0  0
 42 43  1  0  0  0
 43 44  2  0  0  0
 44 45  1  0  0  0
 14  9  1  0  0  0
 44 38  1  0  0  0
 24 18  1  0  0  0
  3  6  1  0  0  0
 27 28  1  0  0  0
 34 37  1  0  0  0
M  END
> <minimizedAffinity>
-7.89155

> <CNNscore>
0.5950678587

> <CNNaffinity>
6.4340124130

> <CNN_VS>
3.8286740780

> <CNNaffinity_variance>
0.1107454076

$$$$
[H]/C(C(=O)N([H])[C@]([H])(C(=O)N([H])C([H])([H])C([H])([H])C([H])([H])C([H])([H])C([H])([H])N([H])C(=O)c1c([H])c(F)c([H])c([H])c1F)C([H])([H])[H])=C(/[H])c1c([H])c([H])c(OC([H])([H])C([H])([H])N2C([H])([H])C([H])([H])C([H])([H])C([H])([H])C([H])([H])C2([H])[H])c([H])c1[H]


 45 47  0  0  0  0  0  0  0  0999 V2000
    2.0832    5.3191    9.9794 C   0  0  0  0  0  0  0  0  0  0  0  0
    2.1203    3.8494   10.3367 C   0  0  0  0  0  0  0  0  0  0  0  0
    2.2373    3.6531   11.7459 N   0  0  0  0  0  0  0  0  0  0  0  0
    1.8334    2.4609   12.3865 C   0  0  0  0  0  0  0  0  0  0  0  0
    1.3604    1.5453   11.6764 O   0  0  0  0  0  0  0  0  0  0  0  0
    2.6392    4.4277   12.3186 H   0  0  0  0  0  0  0  0  0  0  0  0
    1.9293    2.2259   13.8197 C   0  0  0  0  0  0  0  0  0  0  0  0
    2.9420    1.6592   14.4086 C   0  0  0  0  0  0  0  0  0  0  0  0
    3.1069    1.3937   15.8222 C   0  0  0  0  0  0  0  0  0  0  0  0
    3.8963    2.2137   16.5969 C   0  0  0  0  0  0  0  0  0  0  0  0
    4.0724    1.9933   17.9573 C   0  0  0  0  0  0  0  0  0  0  0  0
    3.4746    0.9473   18.6146 C   0  0  0  0  0  0  0  0  0  0  0  0
    2.6668    0.1098   17.8174 C   0  0  0  0  0  0  0  0  0  0  0  0
    2.5050    0.3454   16.4734 C   0  0  0  0  0  0  0  0  0  0  0  0
    3.5965    0.6551   19.9517 O   0  0  0  0  0  0  0  0  0  0  0  0
    4.6844    1.0035   20.7304 C   0  0  0  0  0  0  0  0  0  0  0  0
    4.3341    1.3289   22.1428 C   0  0  0  0  0  0  0  0  0  0  0  0
    5.2676    2.2142   22.7916 N   0  0  0  0  0  0  0  0  0  0  0  0
    5.9526    2.9626   21.7926 C   0  0  0  0  0  0  0  0  0  0  0  0
    6.3985    4.2875   22.3077 C   0  0  0  0  0  0  0  0  0  0  0  0
    5.2956    5.2906   22.0981 C   0  0  0  0  0  0  0  0  0  0  0  0
    3.9126    4.7209   22.2604 C   0  0  0  0  0  0  0  0  0  0  0  0
    3.7290    4.0080   23.5623 C   0  0  0  0  0  0  0  0  0  0  0  0
    4.7168    2.9281   23.8429 C   0  0  0  0  0  0  0  0  0  0  0  0
    3.2261    3.1551    9.5864 C   0  0  0  0  0  0  0  0  0  0  0  0
    4.3935    3.6101    9.5305 O   0  0  0  0  0  0  0  0  0  0  0  0
    2.9457    1.9454    8.9166 N   0  0  0  0  0  0  0  0  0  0  0  0
    1.9673    1.5731    8.9616 H   0  0  0  0  0  0  0  0  0  0  0  0
    3.9318    1.2213    8.1899 C   0  0  0  0  0  0  0  0  0  0  0  0
    3.9889    1.5850    6.7133 C   0  0  0  0  0  0  0  0  0  0  0  0
    5.4305    1.6709    6.2764 C   0  0  0  0  0  0  0  0  0  0  0  0
    5.9258    3.0796    6.4896 C   0  0  0  0  0  0  0  0  0  0  0  0
    5.3406    4.0420    5.5118 C   0  0  0  0  0  0  0  0  0  0  0  0
    5.7778    5.4025    5.8573 N   0  0  0  0  0  0  0  0  0  0  0  0
    5.1567    6.5154    5.2843 C   0  0  0  0  0  0  0  0  0  0  0  0
    4.2057    6.3530    4.4331 O   0  0  0  0  0  0  0  0  0  0  0  0
    6.5770    5.4756    6.5350 H   0  0  0  0  0  0  0  0  0  0  0  0
    5.5061    7.8866    5.5758 C   0  0  0  0  0  0  0  0  0  0  0  0
    6.3899    8.5358    4.7104 C   0  0  0  0  0  0  0  0  0  0  0  0
    6.8159    9.8271    4.9035 C   0  0  0  0  0  0  0  0  0  0  0  0
    7.6804   10.3832    4.0083 F   0  0  0  0  0  0  0  0  0  0  0  0
    6.3433   10.5059    6.0044 C   0  0  0  0  0  0  0  0  0  0  0  0
    5.4805    9.9292    6.8827 C   0  0  0  0  0  0  0  0  0  0  0  0
    5.0622    8.6104    6.6617 C   0  0  0  0  0  0  0  0  0  0  0  0
    4.1952    8.0938    7.5370 F   0  0  0  0  0  0  0  0  0  0  0  0
  1  2  1  0  0  0
  2  3  1  0  0  0
  3  4  1  0  0  0
  4  5  2  0  0  0
  4  7  1  0  0  0
  7  8  2  0  0  0
  8  9  1  0  0  0
  9 10  2  0  0  0
 10 11  1  0  0  0
 11 12  2  0  0  0
 12 15  1  0  0  0
 15 16  1  0  0  0
 16 17  1  0  0  0
 17 18  1  0  0  0
 18 19  1  0  0  0
 19 20  1  0  0  0
 20 21  1  0  0  0
 21 22  1  0  0  0
 22 23  1  0  0  0
 23 24  1  0  0  0
 12 13  1  0  0  0
 13 14  2  0  0  0
  2 25  1  0  0  0
 25 26  2  0  0  0
 25 27  1  0  0  0
 27 29  1  0  0  0
 29 30  1  0  0  0
 30 31  1  0  0  0
 31 32  1  0  0  0
 32 33  1  0  0  0
 33 34  1  0  0  0
 34 35  1  0  0  0
 35 36  2  0  0  0
 35 38  1  0  0  0
 38 39  2  0  0  0
 39 40  1  0  0  0
 40 41  1  0  0  0
 40 42  2  0  0  0
 42 43  1  0  0  0
 43 44  2  0  0  0
 44 45  1  0  0  0
 14  9  1  0  0  0
 44 38  1  0  0  0
 24 18  1  0  0  0
  3  6  1  0  0  0
 27 28  1  0  0  0
 34 37  1  0  0  0
M  END
> <minimizedAffinity>
-7.50139

> <CNNscore>
0.5090057254

> <CNNaffinity>
5.9830422401

> <CNN_VS>
3.0454027653

> <CNNaffinity_variance>
0.6197611094

$$$$
[H]/C(C(=O)N([H])[C@]([H])(C(=O)N([H])C([H])([H])C([H])([H])C([H])([H])C([H])([H])C([H])([H])N([H])C(=O)c1c([H])c(F)c([H])c([H])c1F)C([H])([H])[H])=C(/[H])c1c([H])c([H])c(OC([H])([H])C([H])([H])N2C([H])([H])C([H])([H])C([H])([H])C([H])([H])C([H])([H])C2([H])[H])c([H])c1[H]


 45 47  0  0  0  0  0  0  0  0999 V2000
    3.7396   10.3794   16.6854 C   0  0  0  0  0  0  0  0  0  0  0  0
    3.8760    9.1613   15.7984 C   0  0  0  0  0  0  0  0  0  0  0  0
    2.6323    8.8101   15.1919 N   0  0  0  0  0  0  0  0  0  0  0  0
    2.5494    8.1781   13.9315 C   0  0  0  0  0  0  0  0  0  0  0  0
    3.6185    7.9164   13.3357 O   0  0  0  0  0  0  0  0  0  0  0  0
    1.7530    9.0329   15.7083 H   0  0  0  0  0  0  0  0  0  0  0  0
    1.3020    7.8116   13.2773 C   0  0  0  0  0  0  0  0  0  0  0  0
    0.3512    7.1202   13.8354 C   0  0  0  0  0  0  0  0  0  0  0  0
   -0.9109    6.7198   13.2500 C   0  0  0  0  0  0  0  0  0  0  0  0
   -2.0995    7.1325   13.8091 C   0  0  0  0  0  0  0  0  0  0  0  0
   -3.3290    6.7733   13.2709 C   0  0  0  0  0  0  0  0  0  0  0  0
   -3.4384    5.9856   12.1524 C   0  0  0  0  0  0  0  0  0  0  0  0
   -2.2185    5.5650   11.5827 C   0  0  0  0  0  0  0  0  0  0  0  0
   -1.0127    5.9320   12.1301 C   0  0  0  0  0  0  0  0  0  0  0  0
   -4.6092    5.5816   11.5575 O   0  0  0  0  0  0  0  0  0  0  0  0
   -4.7373    4.4474   10.7776 C   0  0  0  0  0  0  0  0  0  0  0  0
   -5.0399    4.7324    9.3456 C   0  0  0  0  0  0  0  0  0  0  0  0
   -6.2814    4.1662    8.8824 N   0  0  0  0  0  0  0  0  0  0  0  0
   -7.2126    5.2232    8.6744 C   0  0  0  0  0  0  0  0  0  0  0  0
   -8.2125    4.8761    7.6261 C   0  0  0  0  0  0  0  0  0  0  0  0
   -7.6719    5.2812    6.2807 C   0  0  0  0  0  0  0  0  0  0  0  0
   -6.1830    5.1129    6.1446 C   0  0  0  0  0  0  0  0  0  0  0  0
   -5.7210    3.7354    6.4993 C   0  0  0  0  0  0  0  0  0  0  0  0
   -6.1255    3.2554    7.8509 C   0  0  0  0  0  0  0  0  0  0  0  0
    4.4592    8.0101   16.5746 C   0  0  0  0  0  0  0  0  0  0  0  0
    5.6387    7.6155   16.4134 O   0  0  0  0  0  0  0  0  0  0  0  0
    3.6532    7.3434   17.5214 N   0  0  0  0  0  0  0  0  0  0  0  0
    2.6667    7.6734   17.6476 H   0  0  0  0  0  0  0  0  0  0  0  0
    4.1254    6.2513   18.3018 C   0  0  0  0  0  0  0  0  0  0  0  0
    4.2477    6.5709   19.7846 C   0  0  0  0  0  0  0  0  0  0  0  0
    5.7062    6.7046   20.1472 C   0  0  0  0  0  0  0  0  0  0  0  0
    5.8462    6.6543   21.6483 C   0  0  0  0  0  0  0  0  0  0  0  0
    6.4519    5.3755   22.1201 C   0  0  0  0  0  0  0  0  0  0  0  0
    5.8643    4.2592   21.3651 N   0  0  0  0  0  0  0  0  0  0  0  0
    5.0356    3.3302   21.9999 C   0  0  0  0  0  0  0  0  0  0  0  0
    4.7962    3.4383   23.2594 O   0  0  0  0  0  0  0  0  0  0  0  0
    6.1165    4.2032   20.3470 H   0  0  0  0  0  0  0  0  0  0  0  0
    4.4014    2.2140   21.3375 C   0  0  0  0  0  0  0  0  0  0  0  0
    4.5013    2.1347   19.9464 C   0  0  0  0  0  0  0  0  0  0  0  0
    3.9145    1.1364   19.2079 C   0  0  0  0  0  0  0  0  0  0  0  0
    4.0630    1.1362   17.8530 F   0  0  0  0  0  0  0  0  0  0  0  0
    3.1964    0.1724   19.8796 C   0  0  0  0  0  0  0  0  0  0  0  0
    3.0635    0.1941   21.2325 C   0  0  0  0  0  0  0  0  0  0  0  0
    3.6726    1.2242   21.9612 C   0  0  0  0  0  0  0  0  0  0  0  0
    3.5358    1.1908   23.2898 F   0  0  0  0  0  0  0  0  0  0  0  0
  1  2  1  0  0  0
  2  3  1  0  0  0
  3  4  1  0  0  0
  4  5  2  0  0  0
  4  7  1  0  0  0
  7  8  2  0  0  0
  8  9  1  0  0  0
  9 10  2  0  0  0
 10 11  1  0  0  0
 11 12  2  0  0  0
 12 15  1  0  0  0
 15 16  1  0  0  0
 16 17  1  0  0  0
 17 18  1  0  0  0
 18 19  1  0  0  0
 19 20  1  0  0  0
 20 21  1  0  0  0
 21 22  1  0  0  0
 22 23  1  0  0  0
 23 24  1  0  0  0
 12 13  1  0  0  0
 13 14  2  0  0  0
  2 25  1  0  0  0
 25 26  2  0  0  0
 25 27  1  0  0  0
 27 29  1  0  0  0
 29 30  1  0  0  0
 30 31  1  0  0  0
 31 32  1  0  0  0
 32 33  1  0  0  0
 33 34  1  0  0  0
 34 35  1  0  0  0
 35 36  2  0  0  0
 35 38  1  0  0  0
 38 39  2  0  0  0
 39 40  1  0  0  0
 40 41  1  0  0  0
 40 42  2  0  0  0
 42 43  1  0  0  0
 43 44  2  0  0  0
 44 45  1  0  0  0
 14  9  1  0  0  0
 44 38  1  0  0  0
 24 18  1  0  0  0
  3  6  1  0  0  0
 27 28  1  0  0  0
 34 37  1  0  0  0
M  END
> <minimizedAffinity>
-7.77819

> <CNNscore>
0.4434357285

> <CNNaffinity>
6.2238698006

> <CNN_VS>
2.7598862648

> <CNNaffinity_variance>
0.0423411168

$$$$
[H]/C(C(=O)N([H])[C@]([H])(C(=O)N([H])C([H])([H])C([H])([H])C([H])([H])C([H])([H])C([H])([H])N([H])C(=O)c1c([H])c(F)c([H])c([H])c1F)C([H])([H])[H])=C(/[H])c1c([H])c([H])c(OC([H])([H])C([H])([H])N2C([H])([H])C([H])([H])C([H])([H])C([H])([H])C([H])([H])C2([H])[H])c([H])c1[H]


 45 47  0  0  0  0  0  0  0  0999 V2000
    4.8822    7.5867   12.0518 C   0  0  0  0  0  0  0  0  0  0  0  0
    3.6714    8.1125   12.7910 C   0  0  0  0  0  0  0  0  0  0  0  0
    3.9307    8.2616   14.1869 N   0  0  0  0  0  0  0  0  0  0  0  0
    3.4155    9.3337   14.9486 C   0  0  0  0  0  0  0  0  0  0  0  0
    2.6994   10.1771   14.3637 O   0  0  0  0  0  0  0  0  0  0  0  0
    4.5262    7.5440   14.6559 H   0  0  0  0  0  0  0  0  0  0  0  0
    3.6633    9.5244   16.3701 C   0  0  0  0  0  0  0  0  0  0  0  0
    4.7405    9.1385   16.9899 C   0  0  0  0  0  0  0  0  0  0  0  0
    5.0555    9.2933   18.3944 C   0  0  0  0  0  0  0  0  0  0  0  0
    5.3874   10.5297   18.9011 C   0  0  0  0  0  0  0  0  0  0  0  0
    5.6891   10.7170   20.2443 C   0  0  0  0  0  0  0  0  0  0  0  0
    5.6775    9.6856   21.1496 C   0  0  0  0  0  0  0  0  0  0  0  0
    5.3369    8.4207   20.6265 C   0  0  0  0  0  0  0  0  0  0  0  0
    5.0411    8.2568   19.2948 C   0  0  0  0  0  0  0  0  0  0  0  0
    5.9647    9.7810   22.4899 O   0  0  0  0  0  0  0  0  0  0  0  0
    7.1128   10.3555   23.0028 C   0  0  0  0  0  0  0  0  0  0  0  0
    8.3211    9.4888   22.8918 C   0  0  0  0  0  0  0  0  0  0  0  0
    8.1204    8.1378   23.3507 N   0  0  0  0  0  0  0  0  0  0  0  0
    9.0449    7.2883   22.6790 C   0  0  0  0  0  0  0  0  0  0  0  0
    9.3873    6.0921   23.4983 C   0  0  0  0  0  0  0  0  0  0  0  0
   10.5580    6.4245   24.3845 C   0  0  0  0  0  0  0  0  0  0  0  0
   10.5631    7.8440   24.8832 C   0  0  0  0  0  0  0  0  0  0  0  0
    9.2797    8.2291   25.5476 C   0  0  0  0  0  0  0  0  0  0  0  0
    8.0513    8.0241   24.7293 C   0  0  0  0  0  0  0  0  0  0  0  0
    2.4788    7.2279   12.5399 C   0  0  0  0  0  0  0  0  0  0  0  0
    1.2997    7.6516   12.5966 O   0  0  0  0  0  0  0  0  0  0  0  0
    2.6876    5.8676   12.2290 N   0  0  0  0  0  0  0  0  0  0  0  0
    3.6745    5.5176   12.1889 H   0  0  0  0  0  0  0  0  0  0  0  0
    1.6192    4.9638   11.9715 C   0  0  0  0  0  0  0  0  0  0  0  0
    1.5187    3.8351   12.9873 C   0  0  0  0  0  0  0  0  0  0  0  0
    2.8818    3.2194   13.1851 C   0  0  0  0  0  0  0  0  0  0  0  0
    3.2397    3.2770   14.6493 C   0  0  0  0  0  0  0  0  0  0  0  0
    3.2914    1.9242   15.2754 C   0  0  0  0  0  0  0  0  0  0  0  0
    3.6065    2.0686   16.7041 N   0  0  0  0  0  0  0  0  0  0  0  0
    3.4265    0.9974   17.5832 C   0  0  0  0  0  0  0  0  0  0  0  0
    2.9643   -0.1212   17.1466 O   0  0  0  0  0  0  0  0  0  0  0  0
    3.9528    3.0117   17.0105 H   0  0  0  0  0  0  0  0  0  0  0  0
    3.7246    1.0407   18.9962 C   0  0  0  0  0  0  0  0  0  0  0  0
    4.7206    1.9194   19.4290 C   0  0  0  0  0  0  0  0  0  0  0  0
    5.1091    2.0246   20.7421 C   0  0  0  0  0  0  0  0  0  0  0  0
    6.0907    2.9092   21.0766 F   0  0  0  0  0  0  0  0  0  0  0  0
    4.4806    1.2225   21.6684 C   0  0  0  0  0  0  0  0  0  0  0  0
    3.5032    0.3482   21.3097 C   0  0  0  0  0  0  0  0  0  0  0  0
    3.1265    0.2613   19.9629 C   0  0  0  0  0  0  0  0  0  0  0  0
    2.1450   -0.5935   19.6611 F   0  0  0  0  0  0  0  0  0  0  0  0
  1  2  1  0  0  0
  2  3  1  0  0  0
  3  4  1  0  0  0
  4  5  2  0  0  0
  4  7  1  0  0  0
  7  8  2  0  0  0
  8  9  1  0  0  0
  9 10  2  0  0  0
 10 11  1  0  0  0
 11 12  2  0  0  0
 12 15  1  0  0  0
 15 16  1  0  0  0
 16 17  1  0  0  0
 17 18  1  0  0  0
 18 19  1  0  0  0
 19 20  1  0  0  0
 20 21  1  0  0  0
 21 22  1  0  0  0
 22 23  1  0  0  0
 23 24  1  0  0  0
 12 13  1  0  0  0
 13 14  2  0  0  0
  2 25  1  0  0  0
 25 26  2  0  0  0
 25 27  1  0  0  0
 27 29  1  0  0  0
 29 30  1  0  0  0
 30 31  1  0  0  0
 31 32  1  0  0  0
 32 33  1  0  0  0
 33 34  1  0  0  0
 34 35  1  0  0  0
 35 36  2  0  0  0
 35 38  1  0  0  0
 38 39  2  0  0  0
 39 40  1  0  0  0
 40 41  1  0  0  0
 40 42  2  0  0  0
 42 43  1  0  0  0
 43 44  2  0  0  0
 44 45  1  0  0  0
 14  9  1  0  0  0
 44 38  1  0  0  0
 24 18  1  0  0  0
  3  6  1  0  0  0
 27 28  1  0  0  0
 34 37  1  0  0  0
M  END
> <minimizedAffinity>
-7.57638

> <CNNscore>
0.3809087873

> <CNNaffinity>
6.7967605591

> <CNN_VS>
2.5889458656

> <CNNaffinity_variance>
0.2209809124

$$$$
[H]/C(C(=O)N([H])[C@]([H])(C(=O)N([H])C([H])([H])C([H])([H])C([H])([H])C([H])([H])C([H])([H])N([H])C(=O)c1c([H])c(F)c([H])c([H])c1F)C([H])([H])[H])=C(/[H])c1c([H])c([H])c(OC([H])([H])C([H])([H])N2C([H])([H])C([H])([H])C([H])([H])C([H])([H])C([H])([H])C2([H])[H])c([H])c1[H]


 45 47  0  0  0  0  0  0  0  0999 V2000
    4.5497    3.9958   17.8319 C   0  0  0  0  0  0  0  0  0  0  0  0
    3.4837    4.9868   17.4188 C   0  0  0  0  0  0  0  0  0  0  0  0
    3.6757    5.4378   16.0779 N   0  0  0  0  0  0  0  0  0  0  0  0
    3.1001    4.7873   14.9642 C   0  0  0  0  0  0  0  0  0  0  0  0
    2.3905    3.7786   15.1769 O   0  0  0  0  0  0  0  0  0  0  0  0
    4.2669    6.2840   15.9236 H   0  0  0  0  0  0  0  0  0  0  0  0
    3.2783    5.2113   13.5833 C   0  0  0  0  0  0  0  0  0  0  0  0
    3.4037    6.4491   13.2015 C   0  0  0  0  0  0  0  0  0  0  0  0
    3.5835    6.9441   11.8530 C   0  0  0  0  0  0  0  0  0  0  0  0
    4.8363    6.9705   11.2826 C   0  0  0  0  0  0  0  0  0  0  0  0
    5.0456    7.4325    9.9891 C   0  0  0  0  0  0  0  0  0  0  0  0
    4.0215    7.8923    9.1995 C   0  0  0  0  0  0  0  0  0  0  0  0
    2.7398    7.8634    9.7876 C   0  0  0  0  0  0  0  0  0  0  0  0
    2.5539    7.4019   11.0684 C   0  0  0  0  0  0  0  0  0  0  0  0
    4.1393    8.3679    7.9158 O   0  0  0  0  0  0  0  0  0  0  0  0
    5.3419    8.5518    7.2592 C   0  0  0  0  0  0  0  0  0  0  0  0
    5.1939    9.0270    5.8536 C   0  0  0  0  0  0  0  0  0  0  0  0
    5.7932    8.1584    4.8725 N   0  0  0  0  0  0  0  0  0  0  0  0
    5.4387    8.6263    3.5752 C   0  0  0  0  0  0  0  0  0  0  0  0
    6.4700    8.2687    2.5614 C   0  0  0  0  0  0  0  0  0  0  0  0
    7.5076    9.3585    2.5131 C   0  0  0  0  0  0  0  0  0  0  0  0
    7.7910    9.9918    3.8481 C   0  0  0  0  0  0  0  0  0  0  0  0
    8.1357    8.9894    4.9032 C   0  0  0  0  0  0  0  0  0  0  0  0
    7.1349    7.9034    5.1024 C   0  0  0  0  0  0  0  0  0  0  0  0
    3.4332    6.1374   18.3890 C   0  0  0  0  0  0  0  0  0  0  0  0
    3.2036    5.9801   19.6119 O   0  0  0  0  0  0  0  0  0  0  0  0
    3.6507    7.4471   17.9112 N   0  0  0  0  0  0  0  0  0  0  0  0
    3.8360    7.5732   16.8877 H   0  0  0  0  0  0  0  0  0  0  0  0
    3.6270    8.5897   18.7589 C   0  0  0  0  0  0  0  0  0  0  0  0
    5.0051    9.0172   19.2425 C   0  0  0  0  0  0  0  0  0  0  0  0
    5.2052    8.5431   20.6608 C   0  0  0  0  0  0  0  0  0  0  0  0
    6.1852    7.3964   20.6623 C   0  0  0  0  0  0  0  0  0  0  0  0
    6.1585    6.6275   21.9402 C   0  0  0  0  0  0  0  0  0  0  0  0
    5.2737    5.4642   21.7817 N   0  0  0  0  0  0  0  0  0  0  0  0
    5.7398    4.1749   22.0524 C   0  0  0  0  0  0  0  0  0  0  0  0
    6.9580    3.9977   22.4267 O   0  0  0  0  0  0  0  0  0  0  0  0
    4.2988    5.6642   21.4460 H   0  0  0  0  0  0  0  0  0  0  0  0
    4.9402    2.9768   21.9418 C   0  0  0  0  0  0  0  0  0  0  0  0
    4.7828    2.4087   20.6754 C   0  0  0  0  0  0  0  0  0  0  0  0
    4.0220    1.2887   20.4450 C   0  0  0  0  0  0  0  0  0  0  0  0
    3.9229    0.8013   19.1760 F   0  0  0  0  0  0  0  0  0  0  0  0
    3.3891    0.7050   21.5197 C   0  0  0  0  0  0  0  0  0  0  0  0
    3.5043    1.2099   22.7767 C   0  0  0  0  0  0  0  0  0  0  0  0
    4.2868    2.3536   22.9833 C   0  0  0  0  0  0  0  0  0  0  0  0
    4.3910    2.7993   24.2385 F   0  0  0  0  0  0  0  0  0  0  0  0
  1  2  1  0  0  0
  2  3  1  0  0  0
  3  4  1  0  0  0
  4  5  2  0  0  0
  4  7  1  0  0  0
  7  8  2  0  0  0
  8  9  1  0  0  0
  9 10  2  0  0  0
 10 11  1  0  0  0
 11 12  2  0  0  0
 12 15  1  0  0  0
 15 16  1  0  0  0
 16 17  1  0  0  0
 17 18  1  0  0  0
 18 19  1  0  0  0
 19 20  1  0  0  0
 20 21  1  0  0  0
 21 22  1  0  0  0
 22 23  1  0  0  0
 23 24  1  0  0  0
 12 13  1  0  0  0
 13 14  2  0  0  0
  2 25  1  0  0  0
 25 26  2  0  0  0
 25 27  1  0  0  0
 27 29  1  0  0  0
 29 30  1  0  0  0
 30 31  1  0  0  0
 31 32  1  0  0  0
 32 33  1  0  0  0
 33 34  1  0  0  0
 34 35  1  0  0  0
 35 36  2  0  0  0
 35 38  1  0  0  0
 38 39  2  0  0  0
 39 40  1  0  0  0
 40 41  1  0  0  0
 40 42  2  0  0  0
 42 43  1  0  0  0
 43 44  2  0  0  0
 44 45  1  0  0  0
 14  9  1  0  0  0
 44 38  1  0  0  0
 24 18  1  0  0  0
  3  6  1  0  0  0
 27 28  1  0  0  0
 34 37  1  0  0  0
M  END
> <minimizedAffinity>
-7.74024

> <CNNscore>
0.3155066967

> <CNNaffinity>
5.8685522079

> <CNN_VS>
1.8515675068

> <CNNaffinity_variance>
0.5937236547

$$$$
[H]/C(C(=O)N([H])[C@]([H])(C(=O)N([H])C([H])([H])C([H])([H])C([H])([H])C([H])([H])C([H])([H])N([H])C(=O)c1c([H])c(F)c([H])c([H])c1F)C([H])([H])[H])=C(/[H])c1c([H])c([H])c(OC([H])([H])C([H])([H])N2C([H])([H])C([H])([H])C([H])([H])C([H])([H])C([H])([H])C2([H])[H])c([H])c1[H]


 45 47  0  0  0  0  0  0  0  0999 V2000
    4.0749    3.5666   18.2869 C   0  0  0  0  0  0  0  0  0  0  0  0
    3.3126    4.7617   17.7581 C   0  0  0  0  0  0  0  0  0  0  0  0
    3.7660    5.1422   16.4588 N   0  0  0  0  0  0  0  0  0  0  0  0
    2.8867    5.3399   15.3714 C   0  0  0  0  0  0  0  0  0  0  0  0
    1.6620    5.1768   15.5708 O   0  0  0  0  0  0  0  0  0  0  0  0
    4.7909    5.2778   16.3158 H   0  0  0  0  0  0  0  0  0  0  0  0
    3.3102    5.7199   14.0317 C   0  0  0  0  0  0  0  0  0  0  0  0
    2.6680    6.5499   13.2622 C   0  0  0  0  0  0  0  0  0  0  0  0
    3.0268    6.9736   11.9252 C   0  0  0  0  0  0  0  0  0  0  0  0
    2.1327    7.6851   11.1571 C   0  0  0  0  0  0  0  0  0  0  0  0
    2.4449    8.1136    9.8728 C   0  0  0  0  0  0  0  0  0  0  0  0
    3.6593    7.8552    9.2880 C   0  0  0  0  0  0  0  0  0  0  0  0
    4.5723    7.1262   10.0783 C   0  0  0  0  0  0  0  0  0  0  0  0
    4.2443    6.7122   11.3467 C   0  0  0  0  0  0  0  0  0  0  0  0
    4.0487    8.2373    8.0269 O   0  0  0  0  0  0  0  0  0  0  0  0
    3.9572    7.4343    6.9052 C   0  0  0  0  0  0  0  0  0  0  0  0
    3.0497    7.9729    5.8517 C   0  0  0  0  0  0  0  0  0  0  0  0
    1.7157    8.2599    6.3146 N   0  0  0  0  0  0  0  0  0  0  0  0
    1.4760    9.6562    6.1708 C   0  0  0  0  0  0  0  0  0  0  0  0
    0.0285    9.9477    5.9734 C   0  0  0  0  0  0  0  0  0  0  0  0
   -0.2867    9.8886    4.5025 C   0  0  0  0  0  0  0  0  0  0  0  0
    0.4951    8.8453    3.7516 C   0  0  0  0  0  0  0  0  0  0  0  0
    0.3835    7.4855    4.3641 C   0  0  0  0  0  0  0  0  0  0  0  0
    0.7547    7.4027    5.8050 C   0  0  0  0  0  0  0  0  0  0  0  0
    3.3937    5.9080   18.7313 C   0  0  0  0  0  0  0  0  0  0  0  0
    3.3492    5.7434   19.9739 O   0  0  0  0  0  0  0  0  0  0  0  0
    3.5240    7.2218   18.2339 N   0  0  0  0  0  0  0  0  0  0  0  0
    3.5546    7.3540   17.1948 H   0  0  0  0  0  0  0  0  0  0  0  0
    3.6137    8.3609   19.0820 C   0  0  0  0  0  0  0  0  0  0  0  0
    5.0434    8.7524   19.4260 C   0  0  0  0  0  0  0  0  0  0  0  0
    5.2221    8.7218   20.9238 C   0  0  0  0  0  0  0  0  0  0  0  0
    6.6747    8.4667   21.2406 C   0  0  0  0  0  0  0  0  0  0  0  0
    6.8508    7.6024   22.4435 C   0  0  0  0  0  0  0  0  0  0  0  0
    5.9342    6.4568   22.3494 N   0  0  0  0  0  0  0  0  0  0  0  0
    6.4299    5.1506   22.3223 C   0  0  0  0  0  0  0  0  0  0  0  0
    7.6993    4.9444   22.3619 O   0  0  0  0  0  0  0  0  0  0  0  0
    4.9105    6.6845   22.2908 H   0  0  0  0  0  0  0  0  0  0  0  0
    5.6069    3.9655   22.2489 C   0  0  0  0  0  0  0  0  0  0  0  0
    6.0540    2.9053   21.4567 C   0  0  0  0  0  0  0  0  0  0  0  0
    5.3423    1.7429   21.2882 C   0  0  0  0  0  0  0  0  0  0  0  0
    5.8539    0.7586   20.4961 F   0  0  0  0  0  0  0  0  0  0  0  0
    4.1325    1.6261   21.9353 C   0  0  0  0  0  0  0  0  0  0  0  0
    3.6439    2.6222   22.7210 C   0  0  0  0  0  0  0  0  0  0  0  0
    4.3907    3.7976   22.8755 C   0  0  0  0  0  0  0  0  0  0  0  0
    3.8828    4.7387   23.6764 F   0  0  0  0  0  0  0  0  0  0  0  0
  1  2  1  0  0  0
  2  3  1  0  0  0
  3  4  1  0  0  0
  4  5  2  0  0  0
  4  7  1  0  0  0
  7  8  2  0  0  0
  8  9  1  0  0  0
  9 10  2  0  0  0
 10 11  1  0  0  0
 11 12  2  0  0  0
 12 15  1  0  0  0
 15 16  1  0  0  0
 16 17  1  0  0  0
 17 18  1  0  0  0
 18 19  1  0  0  0
 19 20  1  0  0  0
 20 21  1  0  0  0
 21 22  1  0  0  0
 22 23  1  0  0  0
 23 24  1  0  0  0
 12 13  1  0  0  0
 13 14  2  0  0  0
  2 25  1  0  0  0
 25 26  2  0  0  0
 25 27  1  0  0  0
 27 29  1  0  0  0
 29 30  1  0  0  0
 30 31  1  0  0  0
 31 32  1  0  0  0
 32 33  1  0  0  0
 33 34  1  0  0  0
 34 35  1  0  0  0
 35 36  2  0  0  0
 35 38  1  0  0  0
 38 39  2  0  0  0
 39 40  1  0  0  0
 40 41  1  0  0  0
 40 42  2  0  0  0
 42 43  1  0  0  0
 43 44  2  0  0  0
 44 45  1  0  0  0
 14  9  1  0  0  0
 44 38  1  0  0  0
 24 18  1  0  0  0
  3  6  1  0  0  0
 27 28  1  0  0  0
 34 37  1  0  0  0
M  END
> <minimizedAffinity>
-7.11043

> <CNNscore>
0.3109359443

> <CNNaffinity>
5.9696412086

> <CNN_VS>
1.8561760187

> <CNNaffinity_variance>
0.5208097100

$$$$
[H]/C(C(=O)N([H])[C@]([H])(C(=O)N([H])C([H])([H])C([H])([H])C([H])([H])C([H])([H])C([H])([H])N([H])C(=O)c1c([H])c(F)c([H])c([H])c1F)C([H])([H])[H])=C(/[H])c1c([H])c([H])c(OC([H])([H])C([H])([H])N2C([H])([H])C([H])([H])C([H])([H])C([H])([H])C([H])([H])C2([H])[H])c([H])c1[H]


 45 47  0  0  0  0  0  0  0  0999 V2000
    1.5917    6.8874    9.7869 C   0  0  0  0  0  0  0  0  0  0  0  0
    2.5678    5.7315    9.7700 C   0  0  0  0  0  0  0  0  0  0  0  0
    3.0118    5.3983   11.0853 N   0  0  0  0  0  0  0  0  0  0  0  0
    2.5865    4.2339   11.7622 C   0  0  0  0  0  0  0  0  0  0  0  0
    1.7921    3.4692   11.1703 O   0  0  0  0  0  0  0  0  0  0  0  0
    3.6781    6.0475   11.5586 H   0  0  0  0  0  0  0  0  0  0  0  0
    3.0098    3.8639   13.1047 C   0  0  0  0  0  0  0  0  0  0  0  0
    2.6891    2.7517   13.6995 C   0  0  0  0  0  0  0  0  0  0  0  0
    3.0711    2.3173   15.0266 C   0  0  0  0  0  0  0  0  0  0  0  0
    2.6410    1.1028   15.5120 C   0  0  0  0  0  0  0  0  0  0  0  0
    2.9929    0.6506   16.7778 C   0  0  0  0  0  0  0  0  0  0  0  0
    3.7876    1.3829   17.6238 C   0  0  0  0  0  0  0  0  0  0  0  0
    4.2261    2.6263   17.1227 C   0  0  0  0  0  0  0  0  0  0  0  0
    3.8674    3.0549   15.8675 C   0  0  0  0  0  0  0  0  0  0  0  0
    4.1802    1.0143   18.8879 O   0  0  0  0  0  0  0  0  0  0  0  0
    4.1920    1.8624   19.9796 C   0  0  0  0  0  0  0  0  0  0  0  0
    5.5608    2.1996   20.4654 C   0  0  0  0  0  0  0  0  0  0  0  0
    5.6390    3.4437   21.1881 N   0  0  0  0  0  0  0  0  0  0  0  0
    4.3488    4.0462   21.1952 C   0  0  0  0  0  0  0  0  0  0  0  0
    4.1516    4.9080   22.3943 C   0  0  0  0  0  0  0  0  0  0  0  0
    3.6062    4.0668   23.5174 C   0  0  0  0  0  0  0  0  0  0  0  0
    4.1401    2.6604   23.5422 C   0  0  0  0  0  0  0  0  0  0  0  0
    5.6348    2.6080   23.5292 C   0  0  0  0  0  0  0  0  0  0  0  0
    6.2888    3.3380   22.4066 C   0  0  0  0  0  0  0  0  0  0  0  0
    3.7244    6.0353    8.8547 C   0  0  0  0  0  0  0  0  0  0  0  0
    4.3519    7.1204    8.8965 O   0  0  0  0  0  0  0  0  0  0  0  0
    4.1233    5.0667    7.9095 N   0  0  0  0  0  0  0  0  0  0  0  0
    3.5917    4.1644    7.8749 H   0  0  0  0  0  0  0  0  0  0  0  0
    5.2084    5.2685    7.0114 C   0  0  0  0  0  0  0  0  0  0  0  0
    6.5269    4.6967    7.5118 C   0  0  0  0  0  0  0  0  0  0  0  0
    7.5310    5.8133    7.6585 C   0  0  0  0  0  0  0  0  0  0  0  0
    8.3341    5.9227    6.3863 C   0  0  0  0  0  0  0  0  0  0  0  0
    9.7994    5.7785    6.6250 C   0  0  0  0  0  0  0  0  0  0  0  0
   10.1675    6.5433    7.8254 N   0  0  0  0  0  0  0  0  0  0  0  0
   10.8376    5.9248    8.8842 C   0  0  0  0  0  0  0  0  0  0  0  0
   11.1213    4.6715    8.8202 O   0  0  0  0  0  0  0  0  0  0  0  0
    9.8857    7.5551    7.8361 H   0  0  0  0  0  0  0  0  0  0  0  0
   11.2538    6.5981   10.0927 C   0  0  0  0  0  0  0  0  0  0  0  0
   10.2616    7.0458   10.9683 C   0  0  0  0  0  0  0  0  0  0  0  0
   10.5371    7.7235   12.1306 C   0  0  0  0  0  0  0  0  0  0  0  0
    9.5062    8.1244   12.9272 F   0  0  0  0  0  0  0  0  0  0  0  0
   11.8567    7.9678   12.4392 C   0  0  0  0  0  0  0  0  0  0  0  0
   12.8675    7.5567   11.6283 C   0  0  0  0  0  0  0  0  0  0  0  0
   12.5580    6.8673   10.4484 C   0  0  0  0  0  0  0  0  0  0  0  0
   13.5843    6.4613    9.6956 F   0  0  0  0  0  0  0  0  0  0  0  0
  1  2  1  0  0  0
  2  3  1  0  0  0
  3  4  1  0  0  0
  4  5  2  0  0  0
  4  7  1  0  0  0
  7  8  2  0  0  0
  8  9  1  0  0  0
  9 10  2  0  0  0
 10 11  1  0  0  0
 11 12  2  0  0  0
 12 15  1  0  0  0
 15 16  1  0  0  0
 16 17  1  0  0  0
 17 18  1  0  0  0
 18 19  1  0  0  0
 19 20  1  0  0  0
 20 21  1  0  0  0
 21 22  1  0  0  0
 22 23  1  0  0  0
 23 24  1  0  0  0
 12 13  1  0  0  0
 13 14  2  0  0  0
  2 25  1  0  0  0
 25 26  2  0  0  0
 25 27  1  0  0  0
 27 29  1  0  0  0
 29 30  1  0  0  0
 30 31  1  0  0  0
 31 32  1  0  0  0
 32 33  1  0  0  0
 33 34  1  0  0  0
 34 35  1  0  0  0
 35 36  2  0  0  0
 35 38  1  0  0  0
 38 39  2  0  0  0
 39 40  1  0  0  0
 40 41  1  0  0  0
 40 42  2  0  0  0
 42 43  1  0  0  0
 43 44  2  0  0  0
 44 45  1  0  0  0
 14  9  1  0  0  0
 44 38  1  0  0  0
 24 18  1  0  0  0
  3  6  1  0  0  0
 27 28  1  0  0  0
 34 37  1  0  0  0
M  END
> <minimizedAffinity>
-7.70280

> <CNNscore>
0.3019037545

> <CNNaffinity>
6.1362075806

> <CNN_VS>
1.8525440693

> <CNNaffinity_variance>
0.2540526688

$$$$
[H]/C(C(=O)N([H])[C@]([H])(C(=O)N([H])C([H])([H])C([H])([H])C([H])([H])C([H])([H])C([H])([H])N([H])C(=O)c1c([H])c(F)c([H])c([H])c1F)C([H])([H])[H])=C(/[H])c1c([H])c([H])c(OC([H])([H])C([H])([H])N2C([H])([H])C([H])([H])C([H])([H])C([H])([H])C([H])([H])C2([H])[H])c([H])c1[H]


 45 47  0  0  0  0  0  0  0  0999 V2000
    4.4417    6.5063    9.4297 C   0  0  0  0  0  0  0  0  0  0  0  0
    3.9165    5.1040    9.6459 C   0  0  0  0  0  0  0  0  0  0  0  0
    4.3414    4.5705   10.9001 N   0  0  0  0  0  0  0  0  0  0  0  0
    3.4745    4.4415   12.0077 C   0  0  0  0  0  0  0  0  0  0  0  0
    2.2864    4.8090   11.8678 O   0  0  0  0  0  0  0  0  0  0  0  0
    5.3353    4.2654   10.9934 H   0  0  0  0  0  0  0  0  0  0  0  0
    3.8714    3.9103   13.3034 C   0  0  0  0  0  0  0  0  0  0  0  0
    3.1629    3.0762   14.0075 C   0  0  0  0  0  0  0  0  0  0  0  0
    3.4914    2.5076   15.2978 C   0  0  0  0  0  0  0  0  0  0  0  0
    4.2539    3.2180   16.1976 C   0  0  0  0  0  0  0  0  0  0  0  0
    4.5832    2.7070   17.4469 C   0  0  0  0  0  0  0  0  0  0  0  0
    4.1729    1.4652   17.8631 C   0  0  0  0  0  0  0  0  0  0  0  0
    3.3919    0.7409   16.9384 C   0  0  0  0  0  0  0  0  0  0  0  0
    3.0766    1.2647   15.7079 C   0  0  0  0  0  0  0  0  0  0  0  0
    4.4545    0.8834   19.0756 O   0  0  0  0  0  0  0  0  0  0  0  0
    3.5018    0.5452   20.0187 C   0  0  0  0  0  0  0  0  0  0  0  0
    3.5783    1.3547   21.2686 C   0  0  0  0  0  0  0  0  0  0  0  0
    4.6923    2.2675   21.3114 N   0  0  0  0  0  0  0  0  0  0  0  0
    4.2346    3.5605   20.9290 C   0  0  0  0  0  0  0  0  0  0  0  0
    5.0534    4.6391   21.5498 C   0  0  0  0  0  0  0  0  0  0  0  0
    4.4676    4.9871   22.8923 C   0  0  0  0  0  0  0  0  0  0  0  0
    3.8860    3.8111   23.6286 C   0  0  0  0  0  0  0  0  0  0  0  0
    4.8498    2.6748   23.7585 C   0  0  0  0  0  0  0  0  0  0  0  0
    5.4338    2.1843   22.4782 C   0  0  0  0  0  0  0  0  0  0  0  0
    4.3155    4.2121    8.5001 C   0  0  0  0  0  0  0  0  0  0  0  0
    4.2356    4.5750    7.3022 O   0  0  0  0  0  0  0  0  0  0  0  0
    4.7982    2.9155    8.7765 N   0  0  0  0  0  0  0  0  0  0  0  0
    4.8571    2.6154    9.7787 H   0  0  0  0  0  0  0  0  0  0  0  0
    5.2026    2.0106    7.7555 C   0  0  0  0  0  0  0  0  0  0  0  0
    6.5487    1.3531    8.0232 C   0  0  0  0  0  0  0  0  0  0  0  0
    6.3893    0.3129    9.1044 C   0  0  0  0  0  0  0  0  0  0  0  0
    5.3527   -0.6931    8.6699 C   0  0  0  0  0  0  0  0  0  0  0  0
    4.4885   -1.1428    9.7995 C   0  0  0  0  0  0  0  0  0  0  0  0
    4.2963   -2.5974    9.7068 N   0  0  0  0  0  0  0  0  0  0  0  0
    3.0863   -3.1265    9.2502 C   0  0  0  0  0  0  0  0  0  0  0  0
    2.1230   -2.3384    8.9238 O   0  0  0  0  0  0  0  0  0  0  0  0
    5.1050   -3.1933   10.0135 H   0  0  0  0  0  0  0  0  0  0  0  0
    2.8128   -4.5381    9.1095 C   0  0  0  0  0  0  0  0  0  0  0  0
    3.5779   -5.2657    8.1948 C   0  0  0  0  0  0  0  0  0  0  0  0
    3.3877   -6.6047    7.9555 C   0  0  0  0  0  0  0  0  0  0  0  0
    4.1807   -7.2367    7.0446 F   0  0  0  0  0  0  0  0  0  0  0  0
    2.3942   -7.2517    8.6556 C   0  0  0  0  0  0  0  0  0  0  0  0
    1.6167   -6.5990    9.5600 C   0  0  0  0  0  0  0  0  0  0  0  0
    1.8323   -5.2329    9.7846 C   0  0  0  0  0  0  0  0  0  0  0  0
    1.0611   -4.6391   10.6998 F   0  0  0  0  0  0  0  0  0  0  0  0
  1  2  1  0  0  0
  2  3  1  0  0  0
  3  4  1  0  0  0
  4  5  2  0  0  0
  4  7  1  0  0  0
  7  8  2  0  0  0
  8  9  1  0  0  0
  9 10  2  0  0  0
 10 11  1  0  0  0
 11 12  2  0  0  0
 12 15  1  0  0  0
 15 16  1  0  0  0
 16 17  1  0  0  0
 17 18  1  0  0  0
 18 19  1  0  0  0
 19 20  1  0  0  0
 20 21  1  0  0  0
 21 22  1  0  0  0
 22 23  1  0  0  0
 23 24  1  0  0  0
 12 13  1  0  0  0
 13 14  2  0  0  0
  2 25  1  0  0  0
 25 26  2  0  0  0
 25 27  1  0  0  0
 27 29  1  0  0  0
 29 30  1  0  0  0
 30 31  1  0  0  0
 31 32  1  0  0  0
 32 33  1  0  0  0
 33 34  1  0  0  0
 34 35  1  0  0  0
 35 36  2  0  0  0
 35 38  1  0  0  0
 38 39  2  0  0  0
 39 40  1  0  0  0
 40 41  1  0  0  0
 40 42  2  0  0  0
 42 43  1  0  0  0
 43 44  2  0  0  0
 44 45  1  0  0  0
 14  9  1  0  0  0
 44 38  1  0  0  0
 24 18  1  0  0  0
  3  6  1  0  0  0
 27 28  1  0  0  0
 34 37  1  0  0  0
M  END
> <minimizedAffinity>
-7.57769

> <CNNscore>
0.2907967269

> <CNNaffinity>
6.4306397438

> <CNN_VS>
1.8700089455

> <CNNaffinity_variance>
0.1222397536

$$$$
[H]/C(C(=O)N([H])[C@]([H])(C(=O)N([H])C([H])([H])C([H])([H])C([H])([H])C([H])([H])C([H])([H])N([H])C(=O)c1c([H])c(F)c([H])c([H])c1F)C([H])([H])[H])=C(/[H])c1c([H])c([H])c(OC([H])([H])C([H])([H])N2C([H])([H])C([H])([H])C([H])([H])C([H])([H])C([H])([H])C2([H])[H])c([H])c1[H]


 45 47  0  0  0  0  0  0  0  0999 V2000
    2.3353    3.9258   14.3297 C   0  0  0  0  0  0  0  0  0  0  0  0
    1.7765    5.3301   14.3973 C   0  0  0  0  0  0  0  0  0  0  0  0
    0.8236    5.5678   13.3611 N   0  0  0  0  0  0  0  0  0  0  0  0
   -0.3991    6.2377   13.5876 C   0  0  0  0  0  0  0  0  0  0  0  0
   -0.6414    6.6386   14.7482 O   0  0  0  0  0  0  0  0  0  0  0  0
    1.0481    5.2295   12.3995 H   0  0  0  0  0  0  0  0  0  0  0  0
   -1.3984    6.4921   12.5605 C   0  0  0  0  0  0  0  0  0  0  0  0
   -2.4352    5.7381   12.3366 C   0  0  0  0  0  0  0  0  0  0  0  0
   -3.4663    5.9272   11.3380 C   0  0  0  0  0  0  0  0  0  0  0  0
   -4.7679    6.1655   11.7181 C   0  0  0  0  0  0  0  0  0  0  0  0
   -5.7819    6.3579   10.7880 C   0  0  0  0  0  0  0  0  0  0  0  0
   -5.5533    6.3217    9.4352 C   0  0  0  0  0  0  0  0  0  0  0  0
   -4.2185    6.0774    9.0502 C   0  0  0  0  0  0  0  0  0  0  0  0
   -3.2300    5.8903    9.9860 C   0  0  0  0  0  0  0  0  0  0  0  0
   -6.4944    6.4978    8.4497 O   0  0  0  0  0  0  0  0  0  0  0  0
   -7.5103    5.6023    8.1720 C   0  0  0  0  0  0  0  0  0  0  0  0
   -7.0386    4.3287    7.5564 C   0  0  0  0  0  0  0  0  0  0  0  0
   -7.5112    3.1422    8.2236 N   0  0  0  0  0  0  0  0  0  0  0  0
   -7.2991    2.0248    7.3668 C   0  0  0  0  0  0  0  0  0  0  0  0
   -7.1145    0.7658    8.1414 C   0  0  0  0  0  0  0  0  0  0  0  0
   -5.6549    0.6049    8.4735 C   0  0  0  0  0  0  0  0  0  0  0  0
   -4.9448    1.9021    8.7504 C   0  0  0  0  0  0  0  0  0  0  0  0
   -5.6297    2.7261    9.7938 C   0  0  0  0  0  0  0  0  0  0  0  0
   -7.0656    3.0248    9.5296 C   0  0  0  0  0  0  0  0  0  0  0  0
    2.8925    6.3407   14.3668 C   0  0  0  0  0  0  0  0  0  0  0  0
    3.6718    6.4571   13.3909 O   0  0  0  0  0  0  0  0  0  0  0  0
    3.0761    7.1930   15.4761 N   0  0  0  0  0  0  0  0  0  0  0  0
    2.4260    7.0873   16.2911 H   0  0  0  0  0  0  0  0  0  0  0  0
    4.1005    8.1792   15.5281 C   0  0  0  0  0  0  0  0  0  0  0  0
    3.7805    9.3406   16.4579 C   0  0  0  0  0  0  0  0  0  0  0  0
    4.6527    9.2513   17.6858 C   0  0  0  0  0  0  0  0  0  0  0  0
    3.7842    8.9689   18.8863 C   0  0  0  0  0  0  0  0  0  0  0  0
    4.5821    8.5932   20.0893 C   0  0  0  0  0  0  0  0  0  0  0  0
    4.2129    7.2318   20.5037 N   0  0  0  0  0  0  0  0  0  0  0  0
    5.0886    6.1632   20.2938 C   0  0  0  0  0  0  0  0  0  0  0  0
    6.2211    6.3645   19.7172 O   0  0  0  0  0  0  0  0  0  0  0  0
    3.2653    7.1206   20.9427 H   0  0  0  0  0  0  0  0  0  0  0  0
    4.8198    4.7979   20.6821 C   0  0  0  0  0  0  0  0  0  0  0  0
    4.9421    3.8035   19.7086 C   0  0  0  0  0  0  0  0  0  0  0  0
    4.6833    2.4773   19.9544 C   0  0  0  0  0  0  0  0  0  0  0  0
    4.8282    1.5731   18.9449 F   0  0  0  0  0  0  0  0  0  0  0  0
    4.2858    2.1208   21.2237 C   0  0  0  0  0  0  0  0  0  0  0  0
    4.1494    3.0418   22.2144 C   0  0  0  0  0  0  0  0  0  0  0  0
    4.4199    4.3881   21.9360 C   0  0  0  0  0  0  0  0  0  0  0  0
    4.2964    5.2536   22.9462 F   0  0  0  0  0  0  0  0  0  0  0  0
  1  2  1  0  0  0
  2  3  1  0  0  0
  3  4  1  0  0  0
  4  5  2  0  0  0
  4  7  1  0  0  0
  7  8  2  0  0  0
  8  9  1  0  0  0
  9 10  2  0  0  0
 10 11  1  0  0  0
 11 12  2  0  0  0
 12 15  1  0  0  0
 15 16  1  0  0  0
 16 17  1  0  0  0
 17 18  1  0  0  0
 18 19  1  0  0  0
 19 20  1  0  0  0
 20 21  1  0  0  0
 21 22  1  0  0  0
 22 23  1  0  0  0
 23 24  1  0  0  0
 12 13  1  0  0  0
 13 14  2  0  0  0
  2 25  1  0  0  0
 25 26  2  0  0  0
 25 27  1  0  0  0
 27 29  1  0  0  0
 29 30  1  0  0  0
 30 31  1  0  0  0
 31 32  1  0  0  0
 32 33  1  0  0  0
 33 34  1  0  0  0
 34 35  1  0  0  0
 35 36  2  0  0  0
 35 38  1  0  0  0
 38 39  2  0  0  0
 39 40  1  0  0  0
 40 41  1  0  0  0
 40 42  2  0  0  0
 42 43  1  0  0  0
 43 44  2  0  0  0
 44 45  1  0  0  0
 14  9  1  0  0  0
 44 38  1  0  0  0
 24 18  1  0  0  0
  3  6  1  0  0  0
 27 28  1  0  0  0
 34 37  1  0  0  0
M  END
> <minimizedAffinity>
-7.59271

> <CNNscore>
0.2636893988

> <CNNaffinity>
6.1407861710

> <CNN_VS>
1.6192601919

> <CNNaffinity_variance>
0.1362542659

$$$$
[H]C1=C2C([H])([H])C([H])([H])[C@@]3([H])[C@]4([H])C([H])([H])C([H])([H])C(C([H])([H])[H])(C([H])([H])[H])[C@@]4(C([H])([H])[H])C([H])([H])C([H])([H])[C@]3([H])[C@@]2(C([H])([H])[H])C([H])([H])C([H])([H])C1=O


 22 25  0  0  0  0  0  0  0  0999 V2000
    5.4139    2.9655   16.8106 C   0  0  0  0  0  0  0  0  0  0  0  0
    4.0577    3.3519   17.2989 C   0  0  0  0  0  0  0  0  0  0  0  0
    4.1448    4.3919   18.3542 C   0  0  0  0  0  0  0  0  0  0  0  0
    4.7860    3.8336   19.5839 C   0  0  0  0  0  0  0  0  0  0  0  0
    4.1979    2.5689   20.0887 C   0  0  0  0  0  0  0  0  0  0  0  0
    4.0148    1.5160   18.9859 C   0  0  0  0  0  0  0  0  0  0  0  0
    3.1095    0.4438   19.5476 C   0  0  0  0  0  0  0  0  0  0  0  0
    3.7837   -0.2453   20.7139 C   0  0  0  0  0  0  0  0  0  0  0  0
    4.2730    0.7837   21.6783 C   0  0  0  0  0  0  0  0  0  0  0  0
    3.9726    0.6463   22.9539 C   0  0  0  0  0  0  0  0  0  0  0  0
    4.4183    1.6207   23.9554 C   0  0  0  0  0  0  0  0  0  0  0  0
    4.5259    1.4028   25.1694 O   0  0  0  0  0  0  0  0  0  0  0  0
    4.7578    2.9689   23.4198 C   0  0  0  0  0  0  0  0  0  0  0  0
    5.6014    2.8197   22.1759 C   0  0  0  0  0  0  0  0  0  0  0  0
    5.0692    1.9107   21.1344 C   0  0  0  0  0  0  0  0  0  0  0  0
    6.3018    1.2751   20.4610 C   0  0  0  0  0  0  0  0  0  0  0  0
    3.2664    2.2100   17.9057 C   0  0  0  0  0  0  0  0  0  0  0  0
    2.8971    1.4245   16.7179 C   0  0  0  0  0  0  0  0  0  0  0  0
    2.2919    2.5134   15.8500 C   0  0  0  0  0  0  0  0  0  0  0  0
    3.1752    3.7124   16.1323 C   0  0  0  0  0  0  0  0  0  0  0  0
    3.9584    3.9660   14.8602 C   0  0  0  0  0  0  0  0  0  0  0  0
    2.3462    4.9492   16.3936 C   0  0  0  0  0  0  0  0  0  0  0  0
  2  1  1  0  0  0
  2  3  1  0  0  0
  3  4  1  0  0  0
  4  5  1  0  0  0
  5  6  1  0  0  0
  6  7  1  0  0  0
  7  8  1  0  0  0
  8  9  1  0  0  0
  9 10  2  0  0  0
 10 11  1  0  0  0
 11 12  2  0  0  0
 11 13  1  0  0  0
 13 14  1  0  0  0
 14 15  1  0  0  0
 15 16  1  0  0  0
  6 17  1  0  0  0
 17 18  1  0  0  0
 18 19  1  0  0  0
 19 20  1  0  0  0
 20 21  1  0  0  0
 20 22  1  0  0  0
 17  2  1  0  0  0
 20  2  1  0  0  0
 15  5  1  0  0  0
 15  9  1  0  0  0
M  END
> <minimizedAffinity>
-7.77811

> <CNNscore>
0.5363562703

> <CNNaffinity>
6.6105117798

> <CNN_VS>
3.5455894470

> <CNNaffinity_variance>
0.1993026733

$$$$
[H]C1=C2C([H])([H])C([H])([H])[C@@]3([H])[C@]4([H])C([H])([H])C([H])([H])C(C([H])([H])[H])(C([H])([H])[H])[C@@]4(C([H])([H])[H])C([H])([H])C([H])([H])[C@]3([H])[C@@]2(C([H])([H])[H])C([H])([H])C([H])([H])C1=O


 22 25  0  0  0  0  0  0  0  0999 V2000
    6.3062    3.0381   21.4353 C   0  0  0  0  0  0  0  0  0  0  0  0
    4.8448    2.7465   21.5147 C   0  0  0  0  0  0  0  0  0  0  0  0
    4.4596    1.6770   20.5604 C   0  0  0  0  0  0  0  0  0  0  0  0
    4.6198    2.1531   19.1523 C   0  0  0  0  0  0  0  0  0  0  0  0
    3.9646    3.4468   18.8406 C   0  0  0  0  0  0  0  0  0  0  0  0
    4.2801    4.5378   19.8744 C   0  0  0  0  0  0  0  0  0  0  0  0
    3.2984    5.6629   19.6396 C   0  0  0  0  0  0  0  0  0  0  0  0
    3.5214    6.2684   18.2708 C   0  0  0  0  0  0  0  0  0  0  0  0
    3.5426    5.1808   17.2486 C   0  0  0  0  0  0  0  0  0  0  0  0
    2.7899    5.3095   16.1747 C   0  0  0  0  0  0  0  0  0  0  0  0
    2.7601    4.2788   15.1317 C   0  0  0  0  0  0  0  0  0  0  0  0
    2.4124    4.4575   13.9570 O   0  0  0  0  0  0  0  0  0  0  0  0
    3.1923    2.9219   15.5699 C   0  0  0  0  0  0  0  0  0  0  0  0
    4.4524    3.0358   16.3947 C   0  0  0  0  0  0  0  0  0  0  0  0
    4.4134    4.0090   17.5109 C   0  0  0  0  0  0  0  0  0  0  0  0
    5.8465    4.5632   17.6361 C   0  0  0  0  0  0  0  0  0  0  0  0
    3.9557    3.9312   21.1917 C   0  0  0  0  0  0  0  0  0  0  0  0
    4.1147    4.7722   22.3882 C   0  0  0  0  0  0  0  0  0  0  0  0
    3.8172    3.7556   23.4760 C   0  0  0  0  0  0  0  0  0  0  0  0
    4.4504    2.4849   22.9450 C   0  0  0  0  0  0  0  0  0  0  0  0
    5.6401    2.2027   23.8398 C   0  0  0  0  0  0  0  0  0  0  0  0
    3.5084    1.3103   23.0804 C   0  0  0  0  0  0  0  0  0  0  0  0
  2  1  1  0  0  0
  2  3  1  0  0  0
  3  4  1  0  0  0
  4  5  1  0  0  0
  5  6  1  0  0  0
  6  7  1  0  0  0
  7  8  1  0  0  0
  8  9  1  0  0  0
  9 10  2  0  0  0
 10 11  1  0  0  0
 11 12  2  0  0  0
 11 13  1  0  0  0
 13 14  1  0  0  0
 14 15  1  0  0  0
 15 16  1  0  0  0
  6 17  1  0  0  0
 17 18  1  0  0  0
 18 19  1  0  0  0
 19 20  1  0  0  0
 20 21  1  0  0  0
 20 22  1  0  0  0
 17  2  1  0  0  0
 20  2  1  0  0  0
 15  5  1  0  0  0
 15  9  1  0  0  0
M  END
> <minimizedAffinity>
-9.34715

> <CNNscore>
0.4902409017

> <CNNaffinity>
5.9730629921

> <CNN_VS>
2.9282398224

> <CNNaffinity_variance>
0.0920789763

$$$$
[H]C1=C2C([H])([H])C([H])([H])[C@@]3([H])[C@]4([H])C([H])([H])C([H])([H])C(C([H])([H])[H])(C([H])([H])[H])[C@@]4(C([H])([H])[H])C([H])([H])C([H])([H])[C@]3([H])[C@@]2(C([H])([H])[H])C([H])([H])C([H])([H])C1=O


 22 25  0  0  0  0  0  0  0  0999 V2000
    6.8036    3.7877   22.1722 C   0  0  0  0  0  0  0  0  0  0  0  0
    5.4068    3.7978   21.6472 C   0  0  0  0  0  0  0  0  0  0  0  0
    5.3818    3.5347   20.1866 C   0  0  0  0  0  0  0  0  0  0  0  0
    6.0165    4.6656   19.4429 C   0  0  0  0  0  0  0  0  0  0  0  0
    5.5021    6.0155   19.7794 C   0  0  0  0  0  0  0  0  0  0  0  0
    5.4340    6.2660   21.2930 C   0  0  0  0  0  0  0  0  0  0  0  0
    4.5876    7.5017   21.4965 C   0  0  0  0  0  0  0  0  0  0  0  0
    5.2669    8.7032   20.8762 C   0  0  0  0  0  0  0  0  0  0  0  0
    5.6468    8.3824   19.4688 C   0  0  0  0  0  0  0  0  0  0  0  0
    5.3114    9.2287   18.5161 C   0  0  0  0  0  0  0  0  0  0  0  0
    5.6504    8.9754   17.1118 C   0  0  0  0  0  0  0  0  0  0  0  0
    5.7296    9.8375   16.2268 O   0  0  0  0  0  0  0  0  0  0  0  0
    5.9123    7.5488   16.7710 C   0  0  0  0  0  0  0  0  0  0  0  0
    6.8085    6.9357   17.8209 C   0  0  0  0  0  0  0  0  0  0  0  0
    6.3799    7.1157   19.2274 C   0  0  0  0  0  0  0  0  0  0  0  0
    7.6779    7.2110   20.0537 C   0  0  0  0  0  0  0  0  0  0  0  0
    4.6773    5.1120   21.8448 C   0  0  0  0  0  0  0  0  0  0  0  0
    4.4076    5.1013   23.2910 C   0  0  0  0  0  0  0  0  0  0  0  0
    3.7581    3.7366   23.4357 C   0  0  0  0  0  0  0  0  0  0  0  0
    4.5433    2.8747   22.4671 C   0  0  0  0  0  0  0  0  0  0  0  0
    5.3516    1.9162   23.3177 C   0  0  0  0  0  0  0  0  0  0  0  0
    3.6195    2.0356   21.6139 C   0  0  0  0  0  0  0  0  0  0  0  0
  2  1  1  0  0  0
  2  3  1  0  0  0
  3  4  1  0  0  0
  4  5  1  0  0  0
  5  6  1  0  0  0
  6  7  1  0  0  0
  7  8  1  0  0  0
  8  9  1  0  0  0
  9 10  2  0  0  0
 10 11  1  0  0  0
 11 12  2  0  0  0
 11 13  1  0  0  0
 13 14  1  0  0  0
 14 15  1  0  0  0
 15 16  1  0  0  0
  6 17  1  0  0  0
 17 18  1  0  0  0
 18 19  1  0  0  0
 19 20  1  0  0  0
 20 21  1  0  0  0
 20 22  1  0  0  0
 17  2  1  0  0  0
 20  2  1  0  0  0
 15  5  1  0  0  0
 15  9  1  0  0  0
M  END
> <minimizedAffinity>
-7.24823

> <CNNscore>
0.4331774116

> <CNNaffinity>
5.6026644707

> <CNN_VS>
2.4269475937

> <CNNaffinity_variance>
0.1349906921

$$$$
[H]C1=C2C([H])([H])C([H])([H])[C@@]3([H])[C@]4([H])C([H])([H])C([H])([H])C(C([H])([H])[H])(C([H])([H])[H])[C@@]4(C([H])([H])[H])C([H])([H])C([H])([H])[C@]3([H])[C@@]2(C([H])([H])[H])C([H])([H])C([H])([H])C1=O


 22 25  0  0  0  0  0  0  0  0999 V2000
    3.9313    4.0805   21.8808 C   0  0  0  0  0  0  0  0  0  0  0  0
    5.1824    3.5343   21.2780 C   0  0  0  0  0  0  0  0  0  0  0  0
    6.3650    4.3357   21.6807 C   0  0  0  0  0  0  0  0  0  0  0  0
    6.2910    5.7066   21.0890 C   0  0  0  0  0  0  0  0  0  0  0  0
    6.0512    5.7551   19.6261 C   0  0  0  0  0  0  0  0  0  0  0  0
    4.8880    4.8554   19.1836 C   0  0  0  0  0  0  0  0  0  0  0  0
    4.9777    4.7285   17.6801 C   0  0  0  0  0  0  0  0  0  0  0  0
    4.7670    6.0798   17.0323 C   0  0  0  0  0  0  0  0  0  0  0  0
    5.6743    7.0788   17.6702 C   0  0  0  0  0  0  0  0  0  0  0  0
    6.4155    7.8436   16.8944 C   0  0  0  0  0  0  0  0  0  0  0  0
    7.3306    8.8442   17.4536 C   0  0  0  0  0  0  0  0  0  0  0  0
    7.7632    9.8357   16.8516 O   0  0  0  0  0  0  0  0  0  0  0  0
    7.7451    8.6048   18.8645 C   0  0  0  0  0  0  0  0  0  0  0  0
    6.5353    8.2352   19.6898 C   0  0  0  0  0  0  0  0  0  0  0  0
    5.6896    7.1445   19.1519 C   0  0  0  0  0  0  0  0  0  0  0  0
    4.2469    7.4817   19.5780 C   0  0  0  0  0  0  0  0  0  0  0  0
    5.1875    3.5196   19.7620 C   0  0  0  0  0  0  0  0  0  0  0  0
    4.2567    2.4209   19.4605 C   0  0  0  0  0  0  0  0  0  0  0  0
    4.8464    1.3208   20.3248 C   0  0  0  0  0  0  0  0  0  0  0  0
    5.2925    2.0605   21.5705 C   0  0  0  0  0  0  0  0  0  0  0  0
    4.3642    1.6115   22.6807 C   0  0  0  0  0  0  0  0  0  0  0  0
    6.6913    1.6528   21.9734 C   0  0  0  0  0  0  0  0  0  0  0  0
  2  1  1  0  0  0
  2  3  1  0  0  0
  3  4  1  0  0  0
  4  5  1  0  0  0
  5  6  1  0  0  0
  6  7  1  0  0  0
  7  8  1  0  0  0
  8  9  1  0  0  0
  9 10  2  0  0  0
 10 11  1  0  0  0
 11 12  2  0  0  0
 11 13  1  0  0  0
 13 14  1  0  0  0
 14 15  1  0  0  0
 15 16  1  0  0  0
  6 17  1  0  0  0
 17 18  1  0  0  0
 18 19  1  0  0  0
 19 20  1  0  0  0
 20 21  1  0  0  0
 20 22  1  0  0  0
 17  2  1  0  0  0
 20  2  1  0  0  0
 15  5  1  0  0  0
 15  9  1  0  0  0
M  END
> <minimizedAffinity>
-8.38964

> <CNNscore>
0.4288987815

> <CNNaffinity>
5.8944177628

> <CNN_VS>
2.5281085968

> <CNNaffinity_variance>
0.2066144198

$$$$
[H]C1=C2C([H])([H])C([H])([H])[C@@]3([H])[C@]4([H])C([H])([H])C([H])([H])C(C([H])([H])[H])(C([H])([H])[H])[C@@]4(C([H])([H])[H])C([H])([H])C([H])([H])[C@]3([H])[C@@]2(C([H])([H])[H])C([H])([H])C([H])([H])C1=O


 22 25  0  0  0  0  0  0  0  0999 V2000
    4.9748    2.5578   20.3596 C   0  0  0  0  0  0  0  0  0  0  0  0
    4.6265    3.7427   21.1972 C   0  0  0  0  0  0  0  0  0  0  0  0
    3.4674    4.4767   20.6308 C   0  0  0  0  0  0  0  0  0  0  0  0
    3.8347    5.1003   19.3226 C   0  0  0  0  0  0  0  0  0  0  0  0
    5.0689    5.9229   19.3352 C   0  0  0  0  0  0  0  0  0  0  0  0
    6.2527    5.2095   20.0046 C   0  0  0  0  0  0  0  0  0  0  0  0
    7.3108    6.2583   20.2597 C   0  0  0  0  0  0  0  0  0  0  0  0
    7.8129    6.8183   18.9466 C   0  0  0  0  0  0  0  0  0  0  0  0
    6.6483    7.2384   18.1127 C   0  0  0  0  0  0  0  0  0  0  0  0
    6.6564    8.4430   17.5786 C   0  0  0  0  0  0  0  0  0  0  0  0
    5.5445    8.9217   16.7507 C   0  0  0  0  0  0  0  0  0  0  0  0
    5.6122    9.8359   15.9186 O   0  0  0  0  0  0  0  0  0  0  0  0
    4.2478    8.2197   16.9645 C   0  0  0  0  0  0  0  0  0  0  0  0
    4.4835    6.7285   17.0120 C   0  0  0  0  0  0  0  0  0  0  0  0
    5.5410    6.2665   17.9407 C   0  0  0  0  0  0  0  0  0  0  0  0
    6.1662    5.0216   17.2804 C   0  0  0  0  0  0  0  0  0  0  0  0
    5.7408    4.7625   21.3263 C   0  0  0  0  0  0  0  0  0  0  0  0
    6.6820    4.0794   22.2273 C   0  0  0  0  0  0  0  0  0  0  0  0
    5.7445    3.6946   23.3579 C   0  0  0  0  0  0  0  0  0  0  0  0
    4.4641    3.3250   22.6356 C   0  0  0  0  0  0  0  0  0  0  0  0
    4.3079    1.8267   22.7976 C   0  0  0  0  0  0  0  0  0  0  0  0
    3.2639    3.9672   23.2932 C   0  0  0  0  0  0  0  0  0  0  0  0
  2  1  1  0  0  0
  2  3  1  0  0  0
  3  4  1  0  0  0
  4  5  1  0  0  0
  5  6  1  0  0  0
  6  7  1  0  0  0
  7  8  1  0  0  0
  8  9  1  0  0  0
  9 10  2  0  0  0
 10 11  1  0  0  0
 11 12  2  0  0  0
 11 13  1  0  0  0
 13 14  1  0  0  0
 14 15  1  0  0  0
 15 16  1  0  0  0
  6 17  1  0  0  0
 17 18  1  0  0  0
 18 19  1  0  0  0
 19 20  1  0  0  0
 20 21  1  0  0  0
 20 22  1  0  0  0
 17  2  1  0  0  0
 20  2  1  0  0  0
 15  5  1  0  0  0
 15  9  1  0  0  0
M  END
> <minimizedAffinity>
-6.91788

> <CNNscore>
0.4194127023

> <CNNaffinity>
5.6460685730

> <CNN_VS>
2.3680329323

> <CNNaffinity_variance>
0.0850926638

$$$$
[H]C1=C2C([H])([H])C([H])([H])[C@@]3([H])[C@]4([H])C([H])([H])C([H])([H])C(C([H])([H])[H])(C([H])([H])[H])[C@@]4(C([H])([H])[H])C([H])([H])C([H])([H])[C@]3([H])[C@@]2(C([H])([H])[H])C([H])([H])C([H])([H])C1=O


 22 25  0  0  0  0  0  0  0  0999 V2000
    7.5117    7.0806   19.5947 C   0  0  0  0  0  0  0  0  0  0  0  0
    7.3660    7.5453   21.0053 C   0  0  0  0  0  0  0  0  0  0  0  0
    8.1740    6.7115   21.9299 C   0  0  0  0  0  0  0  0  0  0  0  0
    7.6286    5.3207   21.9881 C   0  0  0  0  0  0  0  0  0  0  0  0
    6.1750    5.2194   22.2651 C   0  0  0  0  0  0  0  0  0  0  0  0
    5.3339    6.1488   21.3779 C   0  0  0  0  0  0  0  0  0  0  0  0
    3.9520    6.2064   21.9875 C   0  0  0  0  0  0  0  0  0  0  0  0
    3.3061    4.8389   21.9380 C   0  0  0  0  0  0  0  0  0  0  0  0
    4.2443    3.8299   22.5126 C   0  0  0  0  0  0  0  0  0  0  0  0
    3.7933    3.0007   23.4320 C   0  0  0  0  0  0  0  0  0  0  0  0
    4.6603    1.9864   24.0408 C   0  0  0  0  0  0  0  0  0  0  0  0
    4.2712    0.9519   24.5985 O   0  0  0  0  0  0  0  0  0  0  0  0
    6.1209    2.2685   23.9561 C   0  0  0  0  0  0  0  0  0  0  0  0
    6.4660    2.7257   22.5585 C   0  0  0  0  0  0  0  0  0  0  0  0
    5.6406    3.8278   22.0124 C   0  0  0  0  0  0  0  0  0  0  0  0
    5.5488    3.5723   20.4948 C   0  0  0  0  0  0  0  0  0  0  0  0
    5.9459    7.4941   21.5336 C   0  0  0  0  0  0  0  0  0  0  0  0
    5.3125    8.6181   20.8267 C   0  0  0  0  0  0  0  0  0  0  0  0
    6.2992    9.7280   21.1426 C   0  0  0  0  0  0  0  0  0  0  0  0
    7.6407    9.0242   21.0898 C   0  0  0  0  0  0  0  0  0  0  0  0
    8.3486    9.5608   19.8622 C   0  0  0  0  0  0  0  0  0  0  0  0
    8.4929    9.3877   22.2844 C   0  0  0  0  0  0  0  0  0  0  0  0
  2  1  1  0  0  0
  2  3  1  0  0  0
  3  4  1  0  0  0
  4  5  1  0  0  0
  5  6  1  0  0  0
  6  7  1  0  0  0
  7  8  1  0  0  0
  8  9  1  0  0  0
  9 10  2  0  0  0
 10 11  1  0  0  0
 11 12  2  0  0  0
 11 13  1  0  0  0
 13 14  1  0  0  0
 14 15  1  0  0  0
 15 16  1  0  0  0
  6 17  1  0  0  0
 17 18  1  0  0  0
 18 19  1  0  0  0
 19 20  1  0  0  0
 20 21  1  0  0  0
 20 22  1  0  0  0
 17  2  1  0  0  0
 20  2  1  0  0  0
 15  5  1  0  0  0
 15  9  1  0  0  0
M  END
> <minimizedAffinity>
-6.69806

> <CNNscore>
0.4145993590

> <CNNaffinity>
5.4803037643

> <CNN_VS>
2.2721304893

> <CNNaffinity_variance>
0.2166204751

$$$$
[H]C1=C2C([H])([H])C([H])([H])[C@@]3([H])[C@]4([H])C([H])([H])C([H])([H])C(C([H])([H])[H])(C([H])([H])[H])[C@@]4(C([H])([H])[H])C([H])([H])C([H])([H])[C@]3([H])[C@@]2(C([H])([H])[H])C([H])([H])C([H])([H])C1=O


 22 25  0  0  0  0  0  0  0  0999 V2000
    5.7578    8.1655   20.5581 C   0  0  0  0  0  0  0  0  0  0  0  0
    6.9258    7.2375   20.5165 C   0  0  0  0  0  0  0  0  0  0  0  0
    7.2479    6.8444   19.1220 C   0  0  0  0  0  0  0  0  0  0  0  0
    6.1484    6.0087   18.5494 C   0  0  0  0  0  0  0  0  0  0  0  0
    5.7334    4.8505   19.3779 C   0  0  0  0  0  0  0  0  0  0  0  0
    5.4880    5.2270   20.8464 C   0  0  0  0  0  0  0  0  0  0  0  0
    5.4199    3.9339   21.6262 C   0  0  0  0  0  0  0  0  0  0  0  0
    4.2307    3.1162   21.1713 C   0  0  0  0  0  0  0  0  0  0  0  0
    4.2565    2.9945   19.6838 C   0  0  0  0  0  0  0  0  0  0  0  0
    4.1241    1.7988   19.1461 C   0  0  0  0  0  0  0  0  0  0  0  0
    4.1426    1.6060   17.6923 C   0  0  0  0  0  0  0  0  0  0  0  0
    3.6613    0.6363   17.0916 O   0  0  0  0  0  0  0  0  0  0  0  0
    4.8059    2.6924   16.9179 C   0  0  0  0  0  0  0  0  0  0  0  0
    4.3414    4.0343   17.4323 C   0  0  0  0  0  0  0  0  0  0  0  0
    4.4376    4.2384   18.8963 C   0  0  0  0  0  0  0  0  0  0  0  0
    3.2566    5.1555   19.2717 C   0  0  0  0  0  0  0  0  0  0  0  0
    6.7182    5.9418   21.2757 C   0  0  0  0  0  0  0  0  0  0  0  0
    6.7951    6.3881   22.6754 C   0  0  0  0  0  0  0  0  0  0  0  0
    8.1043    7.1563   22.6437 C   0  0  0  0  0  0  0  0  0  0  0  0
    8.0788    7.8284   21.2853 C   0  0  0  0  0  0  0  0  0  0  0  0
    7.9081    9.3100   21.5529 C   0  0  0  0  0  0  0  0  0  0  0  0
    9.3997    7.6588   20.5698 C   0  0  0  0  0  0  0  0  0  0  0  0
  2  1  1  0  0  0
  2  3  1  0  0  0
  3  4  1  0  0  0
  4  5  1  0  0  0
  5  6  1  0  0  0
  6  7  1  0  0  0
  7  8  1  0  0  0
  8  9  1  0  0  0
  9 10  2  0  0  0
 10 11  1  0  0  0
 11 12  2  0  0  0
 11 13  1  0  0  0
 13 14  1  0  0  0
 14 15  1  0  0  0
 15 16  1  0  0  0
  6 17  1  0  0  0
 17 18  1  0  0  0
 18 19  1  0  0  0
 19 20  1  0  0  0
 20 21  1  0  0  0
 20 22  1  0  0  0
 17  2  1  0  0  0
 20  2  1  0  0  0
 15  5  1  0  0  0
 15  9  1  0  0  0
M  END
> <minimizedAffinity>
-8.15072

> <CNNscore>
0.4134044647

> <CNNaffinity>
5.6875224113

> <CNN_VS>
2.3512470722

> <CNNaffinity_variance>
0.2925748229

$$$$
[H]C1=C2C([H])([H])C([H])([H])[C@@]3([H])[C@]4([H])C([H])([H])C([H])([H])C(C([H])([H])[H])(C([H])([H])[H])[C@@]4(C([H])([H])[H])C([H])([H])C([H])([H])[C@]3([H])[C@@]2(C([H])([H])[H])C([H])([H])C([H])([H])C1=O


 22 25  0  0  0  0  0  0  0  0999 V2000
    2.9059    1.4789   19.8345 C   0  0  0  0  0  0  0  0  0  0  0  0
    3.9858    1.8097   18.8591 C   0  0  0  0  0  0  0  0  0  0  0  0
    5.3257    1.5053   19.4202 C   0  0  0  0  0  0  0  0  0  0  0  0
    5.6307    2.4179   20.5644 C   0  0  0  0  0  0  0  0  0  0  0  0
    5.4526    3.8644   20.2883 C   0  0  0  0  0  0  0  0  0  0  0  0
    4.1066    4.1813   19.6202 C   0  0  0  0  0  0  0  0  0  0  0  0
    4.2013    5.5930   19.0885 C   0  0  0  0  0  0  0  0  0  0  0  0
    4.3708    6.5679   20.2334 C   0  0  0  0  0  0  0  0  0  0  0  0
    5.4907    6.1107   21.1081 C   0  0  0  0  0  0  0  0  0  0  0  0
    6.4279    6.9764   21.4375 C   0  0  0  0  0  0  0  0  0  0  0  0
    7.5578    6.5948   22.2913 C   0  0  0  0  0  0  0  0  0  0  0  0
    8.2521    7.3772   22.9535 O   0  0  0  0  0  0  0  0  0  0  0  0
    7.8557    5.1355   22.3325 C   0  0  0  0  0  0  0  0  0  0  0  0
    6.5691    4.3626   22.5007 C   0  0  0  0  0  0  0  0  0  0  0  0
    5.4818    4.6951   21.5511 C   0  0  0  0  0  0  0  0  0  0  0  0
    4.1671    4.5020   22.3327 C   0  0  0  0  0  0  0  0  0  0  0  0
    4.0287    3.2688   18.4498 C   0  0  0  0  0  0  0  0  0  0  0  0
    2.8508    3.3792   17.5754 C   0  0  0  0  0  0  0  0  0  0  0  0
    3.1068    2.2209   16.6277 C   0  0  0  0  0  0  0  0  0  0  0  0
    3.6969    1.1572   17.5322 C   0  0  0  0  0  0  0  0  0  0  0  0
    2.6530    0.0634   17.6309 C   0  0  0  0  0  0  0  0  0  0  0  0
    4.9279    0.5372   16.9114 C   0  0  0  0  0  0  0  0  0  0  0  0
  2  1  1  0  0  0
  2  3  1  0  0  0
  3  4  1  0  0  0
  4  5  1  0  0  0
  5  6  1  0  0  0
  6  7  1  0  0  0
  7  8  1  0  0  0
  8  9  1  0  0  0
  9 10  2  0  0  0
 10 11  1  0  0  0
 11 12  2  0  0  0
 11 13  1  0  0  0
 13 14  1  0  0  0
 14 15  1  0  0  0
 15 16  1  0  0  0
  6 17  1  0  0  0
 17 18  1  0  0  0
 18 19  1  0  0  0
 19 20  1  0  0  0
 20 21  1  0  0  0
 20 22  1  0  0  0
 17  2  1  0  0  0
 20  2  1  0  0  0
 15  5  1  0  0  0
 15  9  1  0  0  0
M  END
> <minimizedAffinity>
-5.58829

> <CNNscore>
0.3775770962

> <CNNaffinity>
5.9367718697

> <CNN_VS>
2.2415890694

> <CNNaffinity_variance>
0.3530941010

$$$$
[H]C1=C2C([H])([H])C([H])([H])[C@@]3([H])[C@]4([H])C([H])([H])C([H])([H])C(C([H])([H])[H])(C([H])([H])[H])[C@@]4(C([H])([H])[H])C([H])([H])C([H])([H])[C@]3([H])[C@@]2(C([H])([H])[H])C([H])([H])C([H])([H])C1=O


 22 25  0  0  0  0  0  0  0  0999 V2000
    1.6290    3.0730    9.1486 C   0  0  0  0  0  0  0  0  0  0  0  0
    2.9902    2.5023    9.3689 C   0  0  0  0  0  0  0  0  0  0  0  0
    2.9219    1.2389   10.1449 C   0  0  0  0  0  0  0  0  0  0  0  0
    2.4533    1.5086   11.5387 C   0  0  0  0  0  0  0  0  0  0  0  0
    3.1906    2.5731   12.2621 C   0  0  0  0  0  0  0  0  0  0  0  0
    3.3504    3.8554   11.4323 C   0  0  0  0  0  0  0  0  0  0  0  0
    4.3920    4.7018   12.1274 C   0  0  0  0  0  0  0  0  0  0  0  0
    3.8951    5.1156   13.4955 C   0  0  0  0  0  0  0  0  0  0  0  0
    3.4200    3.9079   14.2331 C   0  0  0  0  0  0  0  0  0  0  0  0
    3.8549    3.7066   15.4606 C   0  0  0  0  0  0  0  0  0  0  0  0
    3.4311    2.5401   16.2420 C   0  0  0  0  0  0  0  0  0  0  0  0
    3.4619    2.4547   17.4767 O   0  0  0  0  0  0  0  0  0  0  0  0
    2.9303    1.3886   15.4400 C   0  0  0  0  0  0  0  0  0  0  0  0
    1.9835    1.8895   14.3752 C   0  0  0  0  0  0  0  0  0  0  0  0
    2.4838    2.9979   13.5293 C   0  0  0  0  0  0  0  0  0  0  0  0
    1.2475    3.8488   13.1765 C   0  0  0  0  0  0  0  0  0  0  0  0
    3.9290    3.4114   10.1374 C   0  0  0  0  0  0  0  0  0  0  0  0
    4.2431    4.4458    9.1397 C   0  0  0  0  0  0  0  0  0  0  0  0
    4.6679    3.5751    7.9706 C   0  0  0  0  0  0  0  0  0  0  0  0
    3.7207    2.3948    8.0556 C   0  0  0  0  0  0  0  0  0  0  0  0
    2.7978    2.5098    6.8595 C   0  0  0  0  0  0  0  0  0  0  0  0
    4.4665    1.0876    7.9131 C   0  0  0  0  0  0  0  0  0  0  0  0
  2  1  1  0  0  0
  2  3  1  0  0  0
  3  4  1  0  0  0
  4  5  1  0  0  0
  5  6  1  0  0  0
  6  7  1  0  0  0
  7  8  1  0  0  0
  8  9  1  0  0  0
  9 10  2  0  0  0
 10 11  1  0  0  0
 11 12  2  0  0  0
 11 13  1  0  0  0
 13 14  1  0  0  0
 14 15  1  0  0  0
 15 16  1  0  0  0
  6 17  1  0  0  0
 17 18  1  0  0  0
 18 19  1  0  0  0
 19 20  1  0  0  0
 20 21  1  0  0  0
 20 22  1  0  0  0
 17  2  1  0  0  0
 20  2  1  0  0  0
 15  5  1  0  0  0
 15  9  1  0  0  0
M  END
> <minimizedAffinity>
-5.63665

> <CNNscore>
0.3666471243

> <CNNaffinity>
5.3493256569

> <CNN_VS>
1.9613149166

> <CNNaffinity_variance>
0.1804884225

$$$$
[H]c1c([H])c([H])c2c(c1[H])c1c3c(c4c5c([H])c([H])c([H])c([H])c5n5c4c1n2[C@@]1(C([H])([H])[H])O[C@]5([H])C([H])([H])[C@]([H])(N([H])C([H])([H])[H])[C@@]1([H])OC([H])([H])[H])C(=O)N([H])C3([H])[H]


 37 44  0  0  0  0  0  0  0  0999 V2000
    4.0273    6.7548   18.8756 C   0  0  0  0  0  0  0  0  0  0  0  0
    4.3269    6.6914   17.3774 C   0  0  0  0  0  0  0  0  0  0  0  0
    5.4258    5.7174   17.0951 C   0  0  0  0  0  0  0  0  0  0  0  0
    6.3661    5.5494   17.9869 O   0  0  0  0  0  0  0  0  0  0  0  0
    6.1607    5.6766   19.3523 C   0  0  0  0  0  0  0  0  0  0  0  0
    7.5800    5.8002   19.8789 C   0  0  0  0  0  0  0  0  0  0  0  0
    5.3364    6.9076   19.5616 C   0  0  0  0  0  0  0  0  0  0  0  0
    5.5464    4.4274   19.8094 N   0  0  0  0  0  0  0  0  0  0  0  0
    5.6008    3.9137   21.0518 C   0  0  0  0  0  0  0  0  0  0  0  0
    6.1458    4.3458   22.2152 C   0  0  0  0  0  0  0  0  0  0  0  0
    6.0616    3.6148   23.3817 C   0  0  0  0  0  0  0  0  0  0  0  0
    5.4112    2.3896   23.4329 C   0  0  0  0  0  0  0  0  0  0  0  0
    4.8524    1.9380   22.2584 C   0  0  0  0  0  0  0  0  0  0  0  0
    4.9444    2.6759   21.1072 C   0  0  0  0  0  0  0  0  0  0  0  0
    4.4766    2.4373   19.8518 C   0  0  0  0  0  0  0  0  0  0  0  0
    3.7653    1.3836   19.3092 C   0  0  0  0  0  0  0  0  0  0  0  0
    3.2568    0.1340   19.9347 C   0  0  0  0  0  0  0  0  0  0  0  0
    2.5972   -0.6004   18.9084 N   0  0  0  0  0  0  0  0  0  0  0  0
    2.6689    0.1395   17.6909 C   0  0  0  0  0  0  0  0  0  0  0  0
    2.1665   -0.2810   16.6490 O   0  0  0  0  0  0  0  0  0  0  0  0
    3.3938    1.3623   17.9572 C   0  0  0  0  0  0  0  0  0  0  0  0
    3.7788    2.4547   17.2028 C   0  0  0  0  0  0  0  0  0  0  0  0
    3.6014    2.8165   15.8760 C   0  0  0  0  0  0  0  0  0  0  0  0
    2.9924    2.2115   14.8307 C   0  0  0  0  0  0  0  0  0  0  0  0
    2.9819    2.8487   13.5780 C   0  0  0  0  0  0  0  0  0  0  0  0
    3.5828    4.0661   13.4262 C   0  0  0  0  0  0  0  0  0  0  0  0
    4.2105    4.7073   14.4696 C   0  0  0  0  0  0  0  0  0  0  0  0
    4.2077    4.0644   15.6854 C   0  0  0  0  0  0  0  0  0  0  0  0
    4.7291    4.4417   16.8434 N   0  0  0  0  0  0  0  0  0  0  0  0
    4.4943    3.5036   17.7720 C   0  0  0  0  0  0  0  0  0  0  0  0
    4.8546    3.5049   19.1088 C   0  0  0  0  0  0  0  0  0  0  0  0
    2.1412   -1.5320   19.0524 H   0  0  0  0  0  0  0  0  0  0  0  0
    3.2873    9.0734   18.8850 C   0  0  0  0  0  0  0  0  0  0  0  0
    3.0258    7.7129   19.1615 N   0  0  0  0  0  0  0  0  0  0  0  0
    2.0648    7.4464   18.9150 H   0  0  0  0  0  0  0  0  0  0  0  0
    5.1196    7.2522   20.8643 O   0  0  0  0  0  0  0  0  0  0  0  0
    5.7685    8.3254   21.3994 C   0  0  0  0  0  0  0  0  0  0  0  0
 33 34  1  0  0  0
 34  1  1  0  0  0
  1  2  1  0  0  0
  2  3  1  0  0  0
  3  4  1  0  0  0
  4  5  1  0  0  0
  5  6  1  0  0  0
  5  7  1  0  0  0
  7 36  1  0  0  0
 36 37  1  0  0  0
  5  8  1  0  0  0
  8  9  1  0  0  0
  9 10  2  0  0  0
 10 11  1  0  0  0
 11 12  2  0  0  0
 12 13  1  0  0  0
 13 14  2  0  0  0
 14 15  1  0  0  0
 15 16  2  0  0  0
 16 17  1  0  0  0
 17 18  1  0  0  0
 18 19  1  0  0  0
 19 20  2  0  0  0
 19 21  1  0  0  0
 21 22  2  0  0  0
 22 23  1  0  0  0
 23 24  2  0  0  0
 24 25  1  0  0  0
 25 26  2  0  0  0
 26 27  1  0  0  0
 27 28  2  0  0  0
 28 29  1  0  0  0
 29 30  1  0  0  0
 30 31  2  0  0  0
  7  1  1  0  0  0
 31  8  1  0  0  0
 29  3  1  0  0  0
 14  9  1  0  0  0
 31 15  1  0  0  0
 21 16  1  0  0  0
 30 22  1  0  0  0
 28 23  1  0  0  0
 34 35  1  0  0  0
 18 32  1  0  0  0
M  END
> <minimizedAffinity>
-10.90275

> <CNNscore>
0.4664435089

> <CNNaffinity>
6.6957716942

> <CNN_VS>
3.1231992245

> <CNNaffinity_variance>
0.0950055867

$$$$
[H]c1c([H])c([H])c2c(c1[H])c1c3c(c4c5c([H])c([H])c([H])c([H])c5n5c4c1n2[C@@]1(C([H])([H])[H])O[C@]5([H])C([H])([H])[C@]([H])(N([H])C([H])([H])[H])[C@@]1([H])OC([H])([H])[H])C(=O)N([H])C3([H])[H]


 37 44  0  0  0  0  0  0  0  0999 V2000
    4.0020    7.6281   18.6991 C   0  0  0  0  0  0  0  0  0  0  0  0
    4.1754    7.8333   17.1936 C   0  0  0  0  0  0  0  0  0  0  0  0
    5.2918    6.9897   16.6666 C   0  0  0  0  0  0  0  0  0  0  0  0
    6.3118    6.7344   17.4427 O   0  0  0  0  0  0  0  0  0  0  0  0
    6.2177    6.6199   18.8213 C   0  0  0  0  0  0  0  0  0  0  0  0
    7.6692    6.7419   19.2520 C   0  0  0  0  0  0  0  0  0  0  0  0
    5.3559    7.7456   19.2997 C   0  0  0  0  0  0  0  0  0  0  0  0
    5.7055    5.2766   19.1038 N   0  0  0  0  0  0  0  0  0  0  0  0
    5.8905    4.5678   20.2325 C   0  0  0  0  0  0  0  0  0  0  0  0
    6.5112    4.8335   21.4078 C   0  0  0  0  0  0  0  0  0  0  0  0
    6.5621    3.9149   22.4354 C   0  0  0  0  0  0  0  0  0  0  0  0
    5.9784    2.6603   22.3259 C   0  0  0  0  0  0  0  0  0  0  0  0
    5.3438    2.3766   21.1375 C   0  0  0  0  0  0  0  0  0  0  0  0
    5.3017    3.2998   20.1255 C   0  0  0  0  0  0  0  0  0  0  0  0
    4.7405    3.2447   18.8869 C   0  0  0  0  0  0  0  0  0  0  0  0
    4.0371    2.2538   18.2281 C   0  0  0  0  0  0  0  0  0  0  0  0
    3.6447    0.8887   18.6679 C   0  0  0  0  0  0  0  0  0  0  0  0
    2.9361    0.2956   17.5844 N   0  0  0  0  0  0  0  0  0  0  0  0
    2.8680    1.2306   16.5092 C   0  0  0  0  0  0  0  0  0  0  0  0
    2.2994    0.9588   15.4519 O   0  0  0  0  0  0  0  0  0  0  0  0
    3.5531    2.4347   16.9244 C   0  0  0  0  0  0  0  0  0  0  0  0
    3.8192    3.6589   16.3405 C   0  0  0  0  0  0  0  0  0  0  0  0
    3.5121    4.2245   15.1123 C   0  0  0  0  0  0  0  0  0  0  0  0
    2.8461    3.7651   14.0284 C   0  0  0  0  0  0  0  0  0  0  0  0
    2.6981    4.5998   12.9073 C   0  0  0  0  0  0  0  0  0  0  0  0
    3.2244    5.8604   12.9204 C   0  0  0  0  0  0  0  0  0  0  0  0
    3.9072    6.3568   14.0073 C   0  0  0  0  0  0  0  0  0  0  0  0
    4.0390    5.5219   15.0920 C   0  0  0  0  0  0  0  0  0  0  0  0
    4.6385    5.7330   16.2545 N   0  0  0  0  0  0  0  0  0  0  0  0
    4.5294    4.6409   17.0244 C   0  0  0  0  0  0  0  0  0  0  0  0
    5.0018    4.4423   18.3106 C   0  0  0  0  0  0  0  0  0  0  0  0
    2.5395   -0.6734   17.6014 H   0  0  0  0  0  0  0  0  0  0  0  0
    2.9914    9.8344   18.8862 C   0  0  0  0  0  0  0  0  0  0  0  0
    2.9835    8.4616   19.2195 N   0  0  0  0  0  0  0  0  0  0  0  0
    2.0344    8.0684   19.2150 H   0  0  0  0  0  0  0  0  0  0  0  0
    5.2346    7.8548   20.6547 O   0  0  0  0  0  0  0  0  0  0  0  0
    5.6956    8.9699   21.2897 C   0  0  0  0  0  0  0  0  0  0  0  0
 33 34  1  0  0  0
 34  1  1  0  0  0
  1  2  1  0  0  0
  2  3  1  0  0  0
  3  4  1  0  0  0
  4  5  1  0  0  0
  5  6  1  0  0  0
  5  7  1  0  0  0
  7 36  1  0  0  0
 36 37  1  0  0  0
  5  8  1  0  0  0
  8  9  1  0  0  0
  9 10  2  0  0  0
 10 11  1  0  0  0
 11 12  2  0  0  0
 12 13  1  0  0  0
 13 14  2  0  0  0
 14 15  1  0  0  0
 15 16  2  0  0  0
 16 17  1  0  0  0
 17 18  1  0  0  0
 18 19  1  0  0  0
 19 20  2  0  0  0
 19 21  1  0  0  0
 21 22  2  0  0  0
 22 23  1  0  0  0
 23 24  2  0  0  0
 24 25  1  0  0  0
 25 26  2  0  0  0
 26 27  1  0  0  0
 27 28  2  0  0  0
 28 29  1  0  0  0
 29 30  1  0  0  0
 30 31  2  0  0  0
  7  1  1  0  0  0
 31  8  1  0  0  0
 29  3  1  0  0  0
 14  9  1  0  0  0
 31 15  1  0  0  0
 21 16  1  0  0  0
 30 22  1  0  0  0
 28 23  1  0  0  0
 34 35  1  0  0  0
 18 32  1  0  0  0
M  END
> <minimizedAffinity>
-10.55762

> <CNNscore>
0.3789455295

> <CNNaffinity>
6.5098485947

> <CNN_VS>
2.4668779373

> <CNNaffinity_variance>
0.2459856272

$$$$
[H]c1c([H])c([H])c2c(c1[H])c1c3c(c4c5c([H])c([H])c([H])c([H])c5n5c4c1n2[C@@]1(C([H])([H])[H])O[C@]5([H])C([H])([H])[C@]([H])(N([H])C([H])([H])[H])[C@@]1([H])OC([H])([H])[H])C(=O)N([H])C3([H])[H]


 37 44  0  0  0  0  0  0  0  0999 V2000
    0.1787    3.2743    8.0400 C   0  0  0  0  0  0  0  0  0  0  0  0
   -0.4064    4.1398    9.1568 C   0  0  0  0  0  0  0  0  0  0  0  0
    0.0729    3.6770   10.4954 C   0  0  0  0  0  0  0  0  0  0  0  0
    0.3180    2.4058   10.6743 O   0  0  0  0  0  0  0  0  0  0  0  0
    0.7722    1.5631    9.6711 C   0  0  0  0  0  0  0  0  0  0  0  0
    0.4974    0.1897   10.2588 C   0  0  0  0  0  0  0  0  0  0  0  0
   -0.0337    1.8610    8.4462 C   0  0  0  0  0  0  0  0  0  0  0  0
    2.2136    1.7916    9.5422 N   0  0  0  0  0  0  0  0  0  0  0  0
    3.1254    0.9213    9.0713 C   0  0  0  0  0  0  0  0  0  0  0  0
    3.0399   -0.3298    8.5569 C   0  0  0  0  0  0  0  0  0  0  0  0
    4.1520   -1.0276    8.1342 C   0  0  0  0  0  0  0  0  0  0  0  0
    5.4284   -0.4874    8.2108 C   0  0  0  0  0  0  0  0  0  0  0  0
    5.5305    0.7832    8.7310 C   0  0  0  0  0  0  0  0  0  0  0  0
    4.4161    1.4639    9.1469 C   0  0  0  0  0  0  0  0  0  0  0  0
    4.2749    2.7073    9.6817 C   0  0  0  0  0  0  0  0  0  0  0  0
    5.1904    3.6951    9.9926 C   0  0  0  0  0  0  0  0  0  0  0  0
    6.6686    3.7302    9.8353 C   0  0  0  0  0  0  0  0  0  0  0  0
    7.1043    4.9942   10.3257 N   0  0  0  0  0  0  0  0  0  0  0  0
    5.9682    5.7360   10.7662 C   0  0  0  0  0  0  0  0  0  0  0  0
    6.0783    6.8699   11.2321 O   0  0  0  0  0  0  0  0  0  0  0  0
    4.7946    4.9183   10.5529 C   0  0  0  0  0  0  0  0  0  0  0  0
    3.4393    5.0768   10.7733 C   0  0  0  0  0  0  0  0  0  0  0  0
    2.6625    6.1081   11.2790 C   0  0  0  0  0  0  0  0  0  0  0  0
    2.9628    7.3371   11.7571 C   0  0  0  0  0  0  0  0  0  0  0  0
    1.9259    8.1716   12.2088 C   0  0  0  0  0  0  0  0  0  0  0  0
    0.6312    7.7384   12.1621 C   0  0  0  0  0  0  0  0  0  0  0  0
    0.2932    6.4938   11.6815 C   0  0  0  0  0  0  0  0  0  0  0  0
    1.3246    5.6955   11.2452 C   0  0  0  0  0  0  0  0  0  0  0  0
    1.2919    4.4702   10.7425 N   0  0  0  0  0  0  0  0  0  0  0  0
    2.5371    4.0675   10.4515 C   0  0  0  0  0  0  0  0  0  0  0  0
    2.9478    2.8651    9.9016 C   0  0  0  0  0  0  0  0  0  0  0  0
    8.1046    5.3033   10.3475 H   0  0  0  0  0  0  0  0  0  0  0  0
   -1.6812    3.9815    6.6385 C   0  0  0  0  0  0  0  0  0  0  0  0
   -0.3100    3.6686    6.7718 N   0  0  0  0  0  0  0  0  0  0  0  0
    0.2869    4.3142    6.2405 H   0  0  0  0  0  0  0  0  0  0  0  0
    0.2062    1.0487    7.3760 O   0  0  0  0  0  0  0  0  0  0  0  0
   -0.7539    0.1752    6.9583 C   0  0  0  0  0  0  0  0  0  0  0  0
 33 34  1  0  0  0
 34  1  1  0  0  0
  1  2  1  0  0  0
  2  3  1  0  0  0
  3  4  1  0  0  0
  4  5  1  0  0  0
  5  6  1  0  0  0
  5  7  1  0  0  0
  7 36  1  0  0  0
 36 37  1  0  0  0
  5  8  1  0  0  0
  8  9  1  0  0  0
  9 10  2  0  0  0
 10 11  1  0  0  0
 11 12  2  0  0  0
 12 13  1  0  0  0
 13 14  2  0  0  0
 14 15  1  0  0  0
 15 16  2  0  0  0
 16 17  1  0  0  0
 17 18  1  0  0  0
 18 19  1  0  0  0
 19 20  2  0  0  0
 19 21  1  0  0  0
 21 22  2  0  0  0
 22 23  1  0  0  0
 23 24  2  0  0  0
 24 25  1  0  0  0
 25 26  2  0  0  0
 26 27  1  0  0  0
 27 28  2  0  0  0
 28 29  1  0  0  0
 29 30  1  0  0  0
 30 31  2  0  0  0
  7  1  1  0  0  0
 31  8  1  0  0  0
 29  3  1  0  0  0
 14  9  1  0  0  0
 31 15  1  0  0  0
 21 16  1  0  0  0
 30 22  1  0  0  0
 28 23  1  0  0  0
 34 35  1  0  0  0
 18 32  1  0  0  0
M  END
> <minimizedAffinity>
-5.73642

> <CNNscore>
0.3713645637

> <CNNaffinity>
5.5538554192

> <CNN_VS>
2.0625050068

> <CNNaffinity_variance>
0.2860735059

$$$$
[H]c1c([H])c([H])c2c(c1[H])c1c3c(c4c5c([H])c([H])c([H])c([H])c5n5c4c1n2[C@@]1(C([H])([H])[H])O[C@]5([H])C([H])([H])[C@]([H])(N([H])C([H])([H])[H])[C@@]1([H])OC([H])([H])[H])C(=O)N([H])C3([H])[H]


 37 44  0  0  0  0  0  0  0  0999 V2000
    2.6567    4.7549   11.6107 C   0  0  0  0  0  0  0  0  0  0  0  0
    2.4751    3.2624   11.3311 C   0  0  0  0  0  0  0  0  0  0  0  0
    2.2132    3.0211    9.8788 C   0  0  0  0  0  0  0  0  0  0  0  0
    1.5672    3.9274    9.1938 O   0  0  0  0  0  0  0  0  0  0  0  0
    1.6366    5.2861    9.4617 C   0  0  0  0  0  0  0  0  0  0  0  0
    0.4375    5.8237    8.7000 C   0  0  0  0  0  0  0  0  0  0  0  0
    1.5247    5.4498   10.9447 C   0  0  0  0  0  0  0  0  0  0  0  0
    2.8857    5.7740    8.8712 N   0  0  0  0  0  0  0  0  0  0  0  0
    3.1468    7.0318    8.4709 C   0  0  0  0  0  0  0  0  0  0  0  0
    2.4394    8.1873    8.5100 C   0  0  0  0  0  0  0  0  0  0  0  0
    2.9445    9.3743    8.0218 C   0  0  0  0  0  0  0  0  0  0  0  0
    4.2113    9.4554    7.4601 C   0  0  0  0  0  0  0  0  0  0  0  0
    4.9416    8.2892    7.4139 C   0  0  0  0  0  0  0  0  0  0  0  0
    4.4260    7.1174    7.9031 C   0  0  0  0  0  0  0  0  0  0  0  0
    4.9542    5.8648    7.9659 C   0  0  0  0  0  0  0  0  0  0  0  0
    6.1693    5.3466    7.5589 C   0  0  0  0  0  0  0  0  0  0  0  0
    7.3335    6.0039    6.9079 C   0  0  0  0  0  0  0  0  0  0  0  0
    8.3161    4.9932    6.7057 N   0  0  0  0  0  0  0  0  0  0  0  0
    7.8159    3.7549    7.2071 C   0  0  0  0  0  0  0  0  0  0  0  0
    8.4813    2.7208    7.1545 O   0  0  0  0  0  0  0  0  0  0  0  0
    6.4887    3.9919    7.7305 C   0  0  0  0  0  0  0  0  0  0  0  0
    5.5200    3.2092    8.3300 C   0  0  0  0  0  0  0  0  0  0  0  0
    5.4501    1.8704    8.6840 C   0  0  0  0  0  0  0  0  0  0  0  0
    6.3132    0.8374    8.5518 C   0  0  0  0  0  0  0  0  0  0  0  0
    5.9414   -0.4339    9.0220 C   0  0  0  0  0  0  0  0  0  0  0  0
    4.7195   -0.6159    9.6050 C   0  0  0  0  0  0  0  0  0  0  0  0
    3.8194    0.4145    9.7540 C   0  0  0  0  0  0  0  0  0  0  0  0
    4.2055    1.6488    9.2866 C   0  0  0  0  0  0  0  0  0  0  0  0
    3.5506    2.8005    9.2969 N   0  0  0  0  0  0  0  0  0  0  0  0
    4.3042    3.7542    8.7314 C   0  0  0  0  0  0  0  0  0  0  0  0
    4.0061    5.0942    8.5506 C   0  0  0  0  0  0  0  0  0  0  0  0
    9.2479    5.1603    6.2581 H   0  0  0  0  0  0  0  0  0  0  0  0
    3.7236    4.1586   13.7154 C   0  0  0  0  0  0  0  0  0  0  0  0
    2.8517    5.0013   12.9906 N   0  0  0  0  0  0  0  0  0  0  0  0
    2.9532    5.9870   13.2616 H   0  0  0  0  0  0  0  0  0  0  0  0
    1.4697    6.7391   11.3888 O   0  0  0  0  0  0  0  0  0  0  0  0
    0.3175    7.2195   11.9372 C   0  0  0  0  0  0  0  0  0  0  0  0
 33 34  1  0  0  0
 34  1  1  0  0  0
  1  2  1  0  0  0
  2  3  1  0  0  0
  3  4  1  0  0  0
  4  5  1  0  0  0
  5  6  1  0  0  0
  5  7  1  0  0  0
  7 36  1  0  0  0
 36 37  1  0  0  0
  5  8  1  0  0  0
  8  9  1  0  0  0
  9 10  2  0  0  0
 10 11  1  0  0  0
 11 12  2  0  0  0
 12 13  1  0  0  0
 13 14  2  0  0  0
 14 15  1  0  0  0
 15 16  2  0  0  0
 16 17  1  0  0  0
 17 18  1  0  0  0
 18 19  1  0  0  0
 19 20  2  0  0  0
 19 21  1  0  0  0
 21 22  2  0  0  0
 22 23  1  0  0  0
 23 24  2  0  0  0
 24 25  1  0  0  0
 25 26  2  0  0  0
 26 27  1  0  0  0
 27 28  2  0  0  0
 28 29  1  0  0  0
 29 30  1  0  0  0
 30 31  2  0  0  0
  7  1  1  0  0  0
 31  8  1  0  0  0
 29  3  1  0  0  0
 14  9  1  0  0  0
 31 15  1  0  0  0
 21 16  1  0  0  0
 30 22  1  0  0  0
 28 23  1  0  0  0
 34 35  1  0  0  0
 18 32  1  0  0  0
M  END
> <minimizedAffinity>
-6.27621

> <CNNscore>
0.3511944711

> <CNNaffinity>
5.5959692001

> <CNN_VS>
1.9652734995

> <CNNaffinity_variance>
0.0786455348

$$$$
[H]c1c([H])c([H])c2c(c1[H])c1c3c(c4c5c([H])c([H])c([H])c([H])c5n5c4c1n2[C@@]1(C([H])([H])[H])O[C@]5([H])C([H])([H])[C@]([H])(N([H])C([H])([H])[H])[C@@]1([H])OC([H])([H])[H])C(=O)N([H])C3([H])[H]


 37 44  0  0  0  0  0  0  0  0999 V2000
    3.8159    6.7946    9.1586 C   0  0  0  0  0  0  0  0  0  0  0  0
    5.3118    6.8815    8.8529 C   0  0  0  0  0  0  0  0  0  0  0  0
    6.1058    6.1062    9.8550 C   0  0  0  0  0  0  0  0  0  0  0  0
    5.6637    6.0201   11.0819 O   0  0  0  0  0  0  0  0  0  0  0  0
    4.3176    6.0196   11.4144 C   0  0  0  0  0  0  0  0  0  0  0  0
    4.3560    6.3187   12.9031 C   0  0  0  0  0  0  0  0  0  0  0  0
    3.6628    7.0948   10.6057 C   0  0  0  0  0  0  0  0  0  0  0  0
    3.8189    4.6634   11.1720 N   0  0  0  0  0  0  0  0  0  0  0  0
    2.7624    4.0785   11.7656 C   0  0  0  0  0  0  0  0  0  0  0  0
    1.8481    4.5058   12.6704 C   0  0  0  0  0  0  0  0  0  0  0  0
    0.8354    3.6910   13.1319 C   0  0  0  0  0  0  0  0  0  0  0  0
    0.6927    2.3812   12.6950 C   0  0  0  0  0  0  0  0  0  0  0  0
    1.6143    1.9335   11.7754 C   0  0  0  0  0  0  0  0  0  0  0  0
    2.6150    2.7551   11.3263 C   0  0  0  0  0  0  0  0  0  0  0  0
    3.6193    2.5368   10.4343 C   0  0  0  0  0  0  0  0  0  0  0  0
    3.9772    1.4283    9.6901 C   0  0  0  0  0  0  0  0  0  0  0  0
    3.3641    0.0759    9.6104 C   0  0  0  0  0  0  0  0  0  0  0  0
    4.1463   -0.6763    8.6884 N   0  0  0  0  0  0  0  0  0  0  0  0
    5.1999    0.1489    8.1945 C   0  0  0  0  0  0  0  0  0  0  0  0
    6.0175   -0.2689    7.3748 O   0  0  0  0  0  0  0  0  0  0  0  0
    5.0799    1.4454    8.8240 C   0  0  0  0  0  0  0  0  0  0  0  0
    5.7839    2.6332    8.7580 C   0  0  0  0  0  0  0  0  0  0  0  0
    6.8899    3.0555    8.0362 C   0  0  0  0  0  0  0  0  0  0  0  0
    7.6928    2.4399    7.1386 C   0  0  0  0  0  0  0  0  0  0  0  0
    8.7602    3.1539    6.5673 C   0  0  0  0  0  0  0  0  0  0  0  0
    8.9776    4.4556    6.9204 C   0  0  0  0  0  0  0  0  0  0  0  0
    8.1789    5.1098    7.8304 C   0  0  0  0  0  0  0  0  0  0  0  0
    7.1411    4.3908    8.3757 C   0  0  0  0  0  0  0  0  0  0  0  0
    6.2295    4.7608    9.2630 N   0  0  0  0  0  0  0  0  0  0  0  0
    5.4037    3.7357    9.5170 C   0  0  0  0  0  0  0  0  0  0  0  0
    4.3131    3.6982   10.3692 C   0  0  0  0  0  0  0  0  0  0  0  0
    3.9558   -1.6738    8.4325 H   0  0  0  0  0  0  0  0  0  0  0  0
    3.4955    8.8751    7.9370 C   0  0  0  0  0  0  0  0  0  0  0  0
    3.0574    7.5687    8.2485 N   0  0  0  0  0  0  0  0  0  0  0  0
    2.7038    7.0723    7.4215 H   0  0  0  0  0  0  0  0  0  0  0  0
    2.3434    7.3113   10.8790 O   0  0  0  0  0  0  0  0  0  0  0  0
    1.9826    8.3072   11.7376 C   0  0  0  0  0  0  0  0  0  0  0  0
 33 34  1  0  0  0
 34  1  1  0  0  0
  1  2  1  0  0  0
  2  3  1  0  0  0
  3  4  1  0  0  0
  4  5  1  0  0  0
  5  6  1  0  0  0
  5  7  1  0  0  0
  7 36  1  0  0  0
 36 37  1  0  0  0
  5  8  1  0  0  0
  8  9  1  0  0  0
  9 10  2  0  0  0
 10 11  1  0  0  0
 11 12  2  0  0  0
 12 13  1  0  0  0
 13 14  2  0  0  0
 14 15  1  0  0  0
 15 16  2  0  0  0
 16 17  1  0  0  0
 17 18  1  0  0  0
 18 19  1  0  0  0
 19 20  2  0  0  0
 19 21  1  0  0  0
 21 22  2  0  0  0
 22 23  1  0  0  0
 23 24  2  0  0  0
 24 25  1  0  0  0
 25 26  2  0  0  0
 26 27  1  0  0  0
 27 28  2  0  0  0
 28 29  1  0  0  0
 29 30  1  0  0  0
 30 31  2  0  0  0
  7  1  1  0  0  0
 31  8  1  0  0  0
 29  3  1  0  0  0
 14  9  1  0  0  0
 31 15  1  0  0  0
 21 16  1  0  0  0
 30 22  1  0  0  0
 28 23  1  0  0  0
 34 35  1  0  0  0
 18 32  1  0  0  0
M  END
> <minimizedAffinity>
-5.86229

> <CNNscore>
0.3448789716

> <CNNaffinity>
5.5535550117

> <CNN_VS>
1.9153043032

> <CNNaffinity_variance>
0.1294578761

$$$$
[H]c1c([H])c([H])c2c(c1[H])c1c3c(c4c5c([H])c([H])c([H])c([H])c5n5c4c1n2[C@@]1(C([H])([H])[H])O[C@]5([H])C([H])([H])[C@]([H])(N([H])C([H])([H])[H])[C@@]1([H])OC([H])([H])[H])C(=O)N([H])C3([H])[H]


 37 44  0  0  0  0  0  0  0  0999 V2000
    1.4089    4.6187   11.1948 C   0  0  0  0  0  0  0  0  0  0  0  0
    0.2391    3.8359   10.5968 C   0  0  0  0  0  0  0  0  0  0  0  0
    0.4519    3.5935    9.1367 C   0  0  0  0  0  0  0  0  0  0  0  0
    1.1073    4.4820    8.4374 O   0  0  0  0  0  0  0  0  0  0  0  0
    2.1207    5.2727    8.9572 C   0  0  0  0  0  0  0  0  0  0  0  0
    2.2425    6.3658    7.9096 C   0  0  0  0  0  0  0  0  0  0  0  0
    1.6531    5.7705   10.2885 C   0  0  0  0  0  0  0  0  0  0  0  0
    3.3317    4.4485    8.9880 N   0  0  0  0  0  0  0  0  0  0  0  0
    4.6030    4.8882    8.9569 C   0  0  0  0  0  0  0  0  0  0  0  0
    5.1610    6.1232    8.9362 C   0  0  0  0  0  0  0  0  0  0  0  0
    6.5270    6.3114    8.9054 C   0  0  0  0  0  0  0  0  0  0  0  0
    7.4134    5.2432    8.8939 C   0  0  0  0  0  0  0  0  0  0  0  0
    6.8607    3.9824    8.9150 C   0  0  0  0  0  0  0  0  0  0  0  0
    5.5013    3.8116    8.9455 C   0  0  0  0  0  0  0  0  0  0  0  0
    4.7418    2.6827    8.9724 C   0  0  0  0  0  0  0  0  0  0  0  0
    5.0711    1.3403    8.9708 C   0  0  0  0  0  0  0  0  0  0  0  0
    6.3973    0.6682    8.9457 C   0  0  0  0  0  0  0  0  0  0  0  0
    6.1478   -0.7338    8.9501 N   0  0  0  0  0  0  0  0  0  0  0  0
    4.7387   -0.9528    8.9853 C   0  0  0  0  0  0  0  0  0  0  0  0
    4.2615   -2.0872    9.0002 O   0  0  0  0  0  0  0  0  0  0  0  0
    4.0892    0.3394    8.9978 C   0  0  0  0  0  0  0  0  0  0  0  0
    2.7774    0.7740    9.0276 C   0  0  0  0  0  0  0  0  0  0  0  0
    1.5519    0.1271    9.0746 C   0  0  0  0  0  0  0  0  0  0  0  0
    1.2009   -1.1790    9.0929 C   0  0  0  0  0  0  0  0  0  0  0  0
   -0.1605   -1.5247    9.1426 C   0  0  0  0  0  0  0  0  0  0  0  0
   -1.1129   -0.5458    9.1719 C   0  0  0  0  0  0  0  0  0  0  0  0
   -0.7882    0.7914    9.1543 C   0  0  0  0  0  0  0  0  0  0  0  0
    0.5499    1.1050    9.1056 C   0  0  0  0  0  0  0  0  0  0  0  0
    1.1409    2.2904    9.0781 N   0  0  0  0  0  0  0  0  0  0  0  0
    2.4711    2.1314    9.0288 C   0  0  0  0  0  0  0  0  0  0  0  0
    3.4551    3.1050    8.9988 C   0  0  0  0  0  0  0  0  0  0  0  0
    6.8977   -1.4645    8.9303 H   0  0  0  0  0  0  0  0  0  0  0  0
   -0.0767    5.3648   12.9725 C   0  0  0  0  0  0  0  0  0  0  0  0
    1.1940    4.9012   12.5647 N   0  0  0  0  0  0  0  0  0  0  0  0
    1.5914    4.2275   13.2307 H   0  0  0  0  0  0  0  0  0  0  0  0
    2.4864    6.6562   10.9079 O   0  0  0  0  0  0  0  0  0  0  0  0
    2.0765    7.9393   11.1200 C   0  0  0  0  0  0  0  0  0  0  0  0
 33 34  1  0  0  0
 34  1  1  0  0  0
  1  2  1  0  0  0
  2  3  1  0  0  0
  3  4  1  0  0  0
  4  5  1  0  0  0
  5  6  1  0  0  0
  5  7  1  0  0  0
  7 36  1  0  0  0
 36 37  1  0  0  0
  5  8  1  0  0  0
  8  9  1  0  0  0
  9 10  2  0  0  0
 10 11  1  0  0  0
 11 12  2  0  0  0
 12 13  1  0  0  0
 13 14  2  0  0  0
 14 15  1  0  0  0
 15 16  2  0  0  0
 16 17  1  0  0  0
 17 18  1  0  0  0
 18 19  1  0  0  0
 19 20  2  0  0  0
 19 21  1  0  0  0
 21 22  2  0  0  0
 22 23  1  0  0  0
 23 24  2  0  0  0
 24 25  1  0  0  0
 25 26  2  0  0  0
 26 27  1  0  0  0
 27 28  2  0  0  0
 28 29  1  0  0  0
 29 30  1  0  0  0
 30 31  2  0  0  0
  7  1  1  0  0  0
 31  8  1  0  0  0
 29  3  1  0  0  0
 14  9  1  0  0  0
 31 15  1  0  0  0
 21 16  1  0  0  0
 30 22  1  0  0  0
 28 23  1  0  0  0
 34 35  1  0  0  0
 18 32  1  0  0  0
M  END
> <minimizedAffinity>
-5.74023

> <CNNscore>
0.3367843032

> <CNNaffinity>
5.5636072159

> <CNN_VS>
1.8737355471

> <CNNaffinity_variance>
0.1404759586

$$$$
[H]c1c([H])c([H])c2c(c1[H])c1c3c(c4c5c([H])c([H])c([H])c([H])c5n5c4c1n2[C@@]1(C([H])([H])[H])O[C@]5([H])C([H])([H])[C@]([H])(N([H])C([H])([H])[H])[C@@]1([H])OC([H])([H])[H])C(=O)N([H])C3([H])[H]


 37 44  0  0  0  0  0  0  0  0999 V2000
    0.6334    3.1143   11.2156 C   0  0  0  0  0  0  0  0  0  0  0  0
    0.3182    1.7484   10.6044 C   0  0  0  0  0  0  0  0  0  0  0  0
    0.6402    1.7316    9.1443 C   0  0  0  0  0  0  0  0  0  0  0  0
    0.5090    2.8343    8.4553 O   0  0  0  0  0  0  0  0  0  0  0  0
    0.7049    4.0997    8.9874 C   0  0  0  0  0  0  0  0  0  0  0  0
    0.0451    4.9892    7.9478 C   0  0  0  0  0  0  0  0  0  0  0  0
    0.0224    4.1291   10.3186 C   0  0  0  0  0  0  0  0  0  0  0  0
    2.1516    4.3290    9.0212 N   0  0  0  0  0  0  0  0  0  0  0  0
    2.7762    5.5206    9.0017 C   0  0  0  0  0  0  0  0  0  0  0  0
    2.3362    6.8026    8.9930 C   0  0  0  0  0  0  0  0  0  0  0  0
    3.2022    7.8760    8.9729 C   0  0  0  0  0  0  0  0  0  0  0  0
    4.5797    7.7056    8.9605 C   0  0  0  0  0  0  0  0  0  0  0  0
    5.0412    6.4085    8.9695 C   0  0  0  0  0  0  0  0  0  0  0  0
    4.1682    5.3523    8.9895 C   0  0  0  0  0  0  0  0  0  0  0  0
    4.3886    4.0095    9.0038 C   0  0  0  0  0  0  0  0  0  0  0  0
    5.5484    3.2575    8.9957 C   0  0  0  0  0  0  0  0  0  0  0  0
    6.9748    3.6771    8.9754 C   0  0  0  0  0  0  0  0  0  0  0  0
    7.7539    2.4851    8.9690 N   0  0  0  0  0  0  0  0  0  0  0  0
    6.8777    1.3597    8.9930 C   0  0  0  0  0  0  0  0  0  0  0  0
    7.3076    0.2064    8.9972 O   0  0  0  0  0  0  0  0  0  0  0  0
    5.5192    1.8555    9.0094 C   0  0  0  0  0  0  0  0  0  0  0  0
    4.2660    1.2729    9.0329 C   0  0  0  0  0  0  0  0  0  0  0  0
    3.8167   -0.0385    9.0672 C   0  0  0  0  0  0  0  0  0  0  0  0
    4.4562   -1.2303    9.0745 C   0  0  0  0  0  0  0  0  0  0  0  0
    3.7016   -2.4155    9.1126 C   0  0  0  0  0  0  0  0  0  0  0  0
    2.3371   -2.3555    9.1416 C   0  0  0  0  0  0  0  0  0  0  0  0
    1.6572   -1.1590    9.1350 C   0  0  0  0  0  0  0  0  0  0  0  0
    2.4168   -0.0132    9.0976 C   0  0  0  0  0  0  0  0  0  0  0  0
    2.0349    1.2553    9.0820 N   0  0  0  0  0  0  0  0  0  0  0  0
    3.1127    2.0515    9.0409 C   0  0  0  0  0  0  0  0  0  0  0  0
    3.1622    3.4351    9.0240 C   0  0  0  0  0  0  0  0  0  0  0  0
    8.8008    2.4670    8.9496 H   0  0  0  0  0  0  0  0  0  0  0  0
    1.0408    2.4041   13.5076 C   0  0  0  0  0  0  0  0  0  0  0  0
    0.2825    3.1599   12.5859 N   0  0  0  0  0  0  0  0  0  0  0  0
    0.0350    4.0855   12.9563 H   0  0  0  0  0  0  0  0  0  0  0  0
    0.0220    5.3393   10.9495 O   0  0  0  0  0  0  0  0  0  0  0  0
   -1.1565    5.9875   11.1734 C   0  0  0  0  0  0  0  0  0  0  0  0
 33 34  1  0  0  0
 34  1  1  0  0  0
  1  2  1  0  0  0
  2  3  1  0  0  0
  3  4  1  0  0  0
  4  5  1  0  0  0
  5  6  1  0  0  0
  5  7  1  0  0  0
  7 36  1  0  0  0
 36 37  1  0  0  0
  5  8  1  0  0  0
  8  9  1  0  0  0
  9 10  2  0  0  0
 10 11  1  0  0  0
 11 12  2  0  0  0
 12 13  1  0  0  0
 13 14  2  0  0  0
 14 15  1  0  0  0
 15 16  2  0  0  0
 16 17  1  0  0  0
 17 18  1  0  0  0
 18 19  1  0  0  0
 19 20  2  0  0  0
 19 21  1  0  0  0
 21 22  2  0  0  0
 22 23  1  0  0  0
 23 24  2  0  0  0
 24 25  1  0  0  0
 25 26  2  0  0  0
 26 27  1  0  0  0
 27 28  2  0  0  0
 28 29  1  0  0  0
 29 30  1  0  0  0
 30 31  2  0  0  0
  7  1  1  0  0  0
 31  8  1  0  0  0
 29  3  1  0  0  0
 14  9  1  0  0  0
 31 15  1  0  0  0
 21 16  1  0  0  0
 30 22  1  0  0  0
 28 23  1  0  0  0
 34 35  1  0  0  0
 18 32  1  0  0  0
M  END
> <minimizedAffinity>
-5.71156

> <CNNscore>
0.3192809522

> <CNNaffinity>
5.6262445450

> <CNN_VS>
1.7963527441

> <CNNaffinity_variance>
0.1301527917

$$$$
[H]c1c([H])c([H])c2c(c1[H])c1c3c(c4c5c([H])c([H])c([H])c([H])c5n5c4c1n2[C@@]1(C([H])([H])[H])O[C@]5([H])C([H])([H])[C@]([H])(N([H])C([H])([H])[H])[C@@]1([H])OC([H])([H])[H])C(=O)N([H])C3([H])[H]


 37 44  0  0  0  0  0  0  0  0999 V2000
    4.6591    7.5034   12.1731 C   0  0  0  0  0  0  0  0  0  0  0  0
    5.5730    6.6129   11.3302 C   0  0  0  0  0  0  0  0  0  0  0  0
    4.9751    5.2540   11.1521 C   0  0  0  0  0  0  0  0  0  0  0  0
    4.2324    4.7600   12.1073 O   0  0  0  0  0  0  0  0  0  0  0  0
    3.4498    5.5349   12.9497 C   0  0  0  0  0  0  0  0  0  0  0  0
    3.1476    4.5696   14.0828 C   0  0  0  0  0  0  0  0  0  0  0  0
    4.2797    6.7071   13.3687 C   0  0  0  0  0  0  0  0  0  0  0  0
    2.2277    5.8656   12.2122 N   0  0  0  0  0  0  0  0  0  0  0  0
    1.0284    6.1698   12.7410 C   0  0  0  0  0  0  0  0  0  0  0  0
    0.5800    6.3112   14.0123 C   0  0  0  0  0  0  0  0  0  0  0  0
   -0.7297    6.6366   14.2970 C   0  0  0  0  0  0  0  0  0  0  0  0
   -1.6685    6.8393   13.2949 C   0  0  0  0  0  0  0  0  0  0  0  0
   -1.2271    6.6993   11.9983 C   0  0  0  0  0  0  0  0  0  0  0  0
    0.0775    6.3756   11.7313 C   0  0  0  0  0  0  0  0  0  0  0  0
    0.7298    6.1897   10.5515 C   0  0  0  0  0  0  0  0  0  0  0  0
    0.3092    6.2544    9.2363 C   0  0  0  0  0  0  0  0  0  0  0  0
   -1.0265    6.5630    8.6605 C   0  0  0  0  0  0  0  0  0  0  0  0
   -0.8924    6.4833    7.2451 N   0  0  0  0  0  0  0  0  0  0  0  0
    0.4577    6.1505    6.9264 C   0  0  0  0  0  0  0  0  0  0  0  0
    0.8344    6.0259    5.7613 O   0  0  0  0  0  0  0  0  0  0  0  0
    1.1856    6.0130    8.1685 C   0  0  0  0  0  0  0  0  0  0  0  0
    2.4905    5.7093    8.5085 C   0  0  0  0  0  0  0  0  0  0  0  0
    3.6339    5.4294    7.7757 C   0  0  0  0  0  0  0  0  0  0  0  0
    3.8767    5.3381    6.4483 C   0  0  0  0  0  0  0  0  0  0  0  0
    5.1748    5.0300    6.0061 C   0  0  0  0  0  0  0  0  0  0  0  0
    6.1750    4.8261    6.9140 C   0  0  0  0  0  0  0  0  0  0  0  0
    5.9600    4.9116    8.2707 C   0  0  0  0  0  0  0  0  0  0  0  0
    4.6822    5.2144    8.6791 C   0  0  0  0  0  0  0  0  0  0  0  0
    4.1965    5.3569    9.9034 N   0  0  0  0  0  0  0  0  0  0  0  0
    2.8899    5.6504    9.8402 C   0  0  0  0  0  0  0  0  0  0  0  0
    2.0087    5.8891   10.8811 C   0  0  0  0  0  0  0  0  0  0  0  0
   -1.6759    6.6475    6.5700 H   0  0  0  0  0  0  0  0  0  0  0  0
    6.6471    8.8891   12.4005 C   0  0  0  0  0  0  0  0  0  0  0  0
    5.2390    8.7754   12.3941 N   0  0  0  0  0  0  0  0  0  0  0  0
    4.7898    9.5642   11.9131 H   0  0  0  0  0  0  0  0  0  0  0  0
    3.7034    7.5329   14.2898 O   0  0  0  0  0  0  0  0  0  0  0  0
    4.2436    7.6404   15.5371 C   0  0  0  0  0  0  0  0  0  0  0  0
 33 34  1  0  0  0
 34  1  1  0  0  0
  1  2  1  0  0  0
  2  3  1  0  0  0
  3  4  1  0  0  0
  4  5  1  0  0  0
  5  6  1  0  0  0
  5  7  1  0  0  0
  7 36  1  0  0  0
 36 37  1  0  0  0
  5  8  1  0  0  0
  8  9  1  0  0  0
  9 10  2  0  0  0
 10 11  1  0  0  0
 11 12  2  0  0  0
 12 13  1  0  0  0
 13 14  2  0  0  0
 14 15  1  0  0  0
 15 16  2  0  0  0
 16 17  1  0  0  0
 17 18  1  0  0  0
 18 19  1  0  0  0
 19 20  2  0  0  0
 19 21  1  0  0  0
 21 22  2  0  0  0
 22 23  1  0  0  0
 23 24  2  0  0  0
 24 25  1  0  0  0
 25 26  2  0  0  0
 26 27  1  0  0  0
 27 28  2  0  0  0
 28 29  1  0  0  0
 29 30  1  0  0  0
 30 31  2  0  0  0
  7  1  1  0  0  0
 31  8  1  0  0  0
 29  3  1  0  0  0
 14  9  1  0  0  0
 31 15  1  0  0  0
 21 16  1  0  0  0
 30 22  1  0  0  0
 28 23  1  0  0  0
 34 35  1  0  0  0
 18 32  1  0  0  0
M  END
> <minimizedAffinity>
-5.98654

> <CNNscore>
0.3115176260

> <CNNaffinity>
5.7566123009

> <CNN_VS>
1.7932862043

> <CNNaffinity_variance>
0.1629609913

$$$$
[H]c1c([H])c([H])c2c(c1[H])c1c3c(c4c5c([H])c([H])c([H])c([H])c5n5c4c1n2[C@@]1(C([H])([H])[H])O[C@]5([H])C([H])([H])[C@]([H])(N([H])C([H])([H])[H])[C@@]1([H])OC([H])([H])[H])C(=O)N([H])C3([H])[H]


 37 44  0  0  0  0  0  0  0  0999 V2000
    6.9615    6.6792   19.2947 C   0  0  0  0  0  0  0  0  0  0  0  0
    6.5296    5.9647   20.5760 C   0  0  0  0  0  0  0  0  0  0  0  0
    5.0390    5.8947   20.6697 C   0  0  0  0  0  0  0  0  0  0  0  0
    4.3270    6.8619   20.1543 O   0  0  0  0  0  0  0  0  0  0  0  0
    4.7159    7.5925   19.0419 C   0  0  0  0  0  0  0  0  0  0  0  0
    3.7980    8.8005   19.1160 C   0  0  0  0  0  0  0  0  0  0  0  0
    6.1628    7.9298   19.2192 C   0  0  0  0  0  0  0  0  0  0  0  0
    4.4035    6.7770   17.8654 N   0  0  0  0  0  0  0  0  0  0  0  0
    4.1637    7.2243   16.6193 C   0  0  0  0  0  0  0  0  0  0  0  0
    4.1712    8.4564   16.0546 C   0  0  0  0  0  0  0  0  0  0  0  0
    3.8834    8.6544   14.7202 C   0  0  0  0  0  0  0  0  0  0  0  0
    3.5683    7.5997   13.8746 C   0  0  0  0  0  0  0  0  0  0  0  0
    3.5572    6.3420   14.4345 C   0  0  0  0  0  0  0  0  0  0  0  0
    3.8453    6.1613   15.7621 C   0  0  0  0  0  0  0  0  0  0  0  0
    3.8972    5.0327   16.5208 C   0  0  0  0  0  0  0  0  0  0  0  0
    3.6743    3.7014   16.2235 C   0  0  0  0  0  0  0  0  0  0  0  0
    3.3015    3.0441   14.9428 C   0  0  0  0  0  0  0  0  0  0  0  0
    3.1959    1.6497   15.2119 N   0  0  0  0  0  0  0  0  0  0  0  0
    3.4933    1.4204   16.5881 C   0  0  0  0  0  0  0  0  0  0  0  0
    3.4752    0.2893   17.0730 O   0  0  0  0  0  0  0  0  0  0  0  0
    3.7865    2.6987   17.1975 C   0  0  0  0  0  0  0  0  0  0  0  0
    4.1336    3.1198   18.4675 C   0  0  0  0  0  0  0  0  0  0  0  0
    4.3558    2.4650   19.6694 C   0  0  0  0  0  0  0  0  0  0  0  0
    4.2955    1.1637   20.0332 C   0  0  0  0  0  0  0  0  0  0  0  0
    4.5826    0.8071   21.3621 C   0  0  0  0  0  0  0  0  0  0  0  0
    4.9182    1.7707   22.2704 C   0  0  0  0  0  0  0  0  0  0  0  0
    4.9881    3.1027   21.9316 C   0  0  0  0  0  0  0  0  0  0  0  0
    4.7031    3.4272   20.6259 C   0  0  0  0  0  0  0  0  0  0  0  0
    4.6916    4.6110   20.0312 N   0  0  0  0  0  0  0  0  0  0  0  0
    4.3533    4.4661   18.7421 C   0  0  0  0  0  0  0  0  0  0  0  0
    4.2346    5.4420   17.7671 C   0  0  0  0  0  0  0  0  0  0  0  0
    2.9394    0.9304   14.4954 H   0  0  0  0  0  0  0  0  0  0  0  0
    9.0907    7.0879   20.4008 C   0  0  0  0  0  0  0  0  0  0  0  0
    8.3697    6.7996   19.2207 N   0  0  0  0  0  0  0  0  0  0  0  0
    8.8502    6.1066   18.6339 H   0  0  0  0  0  0  0  0  0  0  0  0
    6.6961    8.7422   18.2610 O   0  0  0  0  0  0  0  0  0  0  0  0
    7.4213    9.8375   18.6266 C   0  0  0  0  0  0  0  0  0  0  0  0
 33 34  1  0  0  0
 34  1  1  0  0  0
  1  2  1  0  0  0
  2  3  1  0  0  0
  3  4  1  0  0  0
  4  5  1  0  0  0
  5  6  1  0  0  0
  5  7  1  0  0  0
  7 36  1  0  0  0
 36 37  1  0  0  0
  5  8  1  0  0  0
  8  9  1  0  0  0
  9 10  2  0  0  0
 10 11  1  0  0  0
 11 12  2  0  0  0
 12 13  1  0  0  0
 13 14  2  0  0  0
 14 15  1  0  0  0
 15 16  2  0  0  0
 16 17  1  0  0  0
 17 18  1  0  0  0
 18 19  1  0  0  0
 19 20  2  0  0  0
 19 21  1  0  0  0
 21 22  2  0  0  0
 22 23  1  0  0  0
 23 24  2  0  0  0
 24 25  1  0  0  0
 25 26  2  0  0  0
 26 27  1  0  0  0
 27 28  2  0  0  0
 28 29  1  0  0  0
 29 30  1  0  0  0
 30 31  2  0  0  0
  7  1  1  0  0  0
 31  8  1  0  0  0
 29  3  1  0  0  0
 14  9  1  0  0  0
 31 15  1  0  0  0
 21 16  1  0  0  0
 30 22  1  0  0  0
 28 23  1  0  0  0
 34 35  1  0  0  0
 18 32  1  0  0  0
M  END
> <minimizedAffinity>
-10.66804

> <CNNscore>
0.2815796435

> <CNNaffinity>
6.1312799454

> <CNN_VS>
1.7264436483

> <CNNaffinity_variance>
0.3686060011

$$$$
[H]OC(=O)[C@@]1([H])N(C([H])([H])c2c([H])c([H])c([H])c(Cl)c2O[H])c2c([H])c([H])c([H])c(Cl)c2C1([H])[H]


 24 26  0  0  0  0  0  0  0  0999 V2000
    4.3861    4.7388   17.0573 C   0  0  0  0  0  0  0  0  0  0  0  0
    4.0848    3.8856   15.8459 C   0  0  0  0  0  0  0  0  0  0  0  0
    3.6636    2.5989   16.4559 C   0  0  0  0  0  0  0  0  0  0  0  0
    2.9847    1.5337   15.9178 C   0  0  0  0  0  0  0  0  0  0  0  0
    2.4940    1.6226   14.2391 Cl  0  0  0  0  0  0  0  0  0  0  0  0
    2.6830    0.4082   16.6585 C   0  0  0  0  0  0  0  0  0  0  0  0
    3.0815    0.3621   17.9826 C   0  0  0  0  0  0  0  0  0  0  0  0
    3.7601    1.4339   18.5095 C   0  0  0  0  0  0  0  0  0  0  0  0
    4.0710    2.5729   17.7775 C   0  0  0  0  0  0  0  0  0  0  0  0
    4.7464    3.7891   18.0814 N   0  0  0  0  0  0  0  0  0  0  0  0
    3.1153    6.5005   18.2308 O   0  0  0  0  0  0  0  0  0  0  0  0
    3.0900    5.3806   17.4559 C   0  0  0  0  0  0  0  0  0  0  0  0
    1.9862    4.9009   17.0861 O   0  0  0  0  0  0  0  0  0  0  0  0
    2.7569    7.4138   17.9890 H   0  0  0  0  0  0  0  0  0  0  0  0
    5.6058    4.0009   19.1916 C   0  0  0  0  0  0  0  0  0  0  0  0
    4.9809    4.1767   20.5002 C   0  0  0  0  0  0  0  0  0  0  0  0
    4.1537    5.1870   20.8974 C   0  0  0  0  0  0  0  0  0  0  0  0
    3.6378    5.2255   22.1929 C   0  0  0  0  0  0  0  0  0  0  0  0
    3.9464    4.2446   23.1155 C   0  0  0  0  0  0  0  0  0  0  0  0
    4.7761    3.2214   22.7357 C   0  0  0  0  0  0  0  0  0  0  0  0
    5.2020    1.9402   23.8807 Cl  0  0  0  0  0  0  0  0  0  0  0  0
    5.2730    3.2009   21.4582 C   0  0  0  0  0  0  0  0  0  0  0  0
    6.1054    2.1465   21.1274 O   0  0  0  0  0  0  0  0  0  0  0  0
    6.5217    2.0360   20.2279 H   0  0  0  0  0  0  0  0  0  0  0  0
 11 12  1  0  0  0
 12 13  2  0  0  0
 12  1  1  0  0  0
  1  2  1  0  0  0
  2  3  1  0  0  0
  3  4  2  0  0  0
  4  5  1  0  0  0
  4  6  1  0  0  0
  6  7  2  0  0  0
  7  8  1  0  0  0
  8  9  2  0  0  0
  9 10  1  0  0  0
 10 15  1  0  0  0
 15 16  1  0  0  0
 16 17  2  0  0  0
 17 18  1  0  0  0
 18 19  2  0  0  0
 19 20  1  0  0  0
 20 21  1  0  0  0
 20 22  2  0  0  0
 22 23  1  0  0  0
 10  1  1  0  0  0
 22 16  1  0  0  0
  9  3  1  0  0  0
 11 14  1  0  0  0
 23 24  1  0  0  0
M  END
> <minimizedAffinity>
-8.48669

> <CNNscore>
0.6460425854

> <CNNaffinity>
5.6093268394

> <CNN_VS>
3.6238639355

> <CNNaffinity_variance>
0.2101904899

$$$$
[H]OC(=O)[C@@]1([H])N(C([H])([H])c2c([H])c([H])c([H])c(Cl)c2O[H])c2c([H])c([H])c([H])c(Cl)c2C1([H])[H]


 24 26  0  0  0  0  0  0  0  0999 V2000
    3.7147    4.8441   19.0395 C   0  0  0  0  0  0  0  0  0  0  0  0
    3.9362    5.7977   20.1917 C   0  0  0  0  0  0  0  0  0  0  0  0
    5.1750    6.5091   19.7864 C   0  0  0  0  0  0  0  0  0  0  0  0
    5.7215    7.6837   20.2414 C   0  0  0  0  0  0  0  0  0  0  0  0
    4.8839    8.5547   21.5088 Cl  0  0  0  0  0  0  0  0  0  0  0  0
    6.9006    8.1887   19.7304 C   0  0  0  0  0  0  0  0  0  0  0  0
    7.5434    7.4820   18.7297 C   0  0  0  0  0  0  0  0  0  0  0  0
    6.9869    6.3083   18.2830 C   0  0  0  0  0  0  0  0  0  0  0  0
    5.8017    5.7873   18.7867 C   0  0  0  0  0  0  0  0  0  0  0  0
    5.0347    4.6219   18.5020 N   0  0  0  0  0  0  0  0  0  0  0  0
    3.2064    6.9067   17.7812 O   0  0  0  0  0  0  0  0  0  0  0  0
    2.9179    5.5962   18.0147 C   0  0  0  0  0  0  0  0  0  0  0  0
    1.9919    5.0355   17.3717 O   0  0  0  0  0  0  0  0  0  0  0  0
    3.5144    7.3140   16.9093 H   0  0  0  0  0  0  0  0  0  0  0  0
    5.5048    3.4718   17.8148 C   0  0  0  0  0  0  0  0  0  0  0  0
    4.5087    2.6267   17.1610 C   0  0  0  0  0  0  0  0  0  0  0  0
    4.0164    2.7503   15.8941 C   0  0  0  0  0  0  0  0  0  0  0  0
    3.0532    1.8657   15.4084 C   0  0  0  0  0  0  0  0  0  0  0  0
    2.5662    0.8372   16.1918 C   0  0  0  0  0  0  0  0  0  0  0  0
    3.0481    0.6967   17.4676 C   0  0  0  0  0  0  0  0  0  0  0  0
    2.4563   -0.6048   18.5115 Cl  0  0  0  0  0  0  0  0  0  0  0  0
    3.9945    1.5759   17.9269 C   0  0  0  0  0  0  0  0  0  0  0  0
    4.4463    1.3891   19.2211 O   0  0  0  0  0  0  0  0  0  0  0  0
    5.1310    1.9711   19.6537 H   0  0  0  0  0  0  0  0  0  0  0  0
 11 12  1  0  0  0
 12 13  2  0  0  0
 12  1  1  0  0  0
  1  2  1  0  0  0
  2  3  1  0  0  0
  3  4  2  0  0  0
  4  5  1  0  0  0
  4  6  1  0  0  0
  6  7  2  0  0  0
  7  8  1  0  0  0
  8  9  2  0  0  0
  9 10  1  0  0  0
 10 15  1  0  0  0
 15 16  1  0  0  0
 16 17  2  0  0  0
 17 18  1  0  0  0
 18 19  2  0  0  0
 19 20  1  0  0  0
 20 21  1  0  0  0
 20 22  2  0  0  0
 22 23  1  0  0  0
 10  1  1  0  0  0
 22 16  1  0  0  0
  9  3  1  0  0  0
 11 14  1  0  0  0
 23 24  1  0  0  0
M  END
> <minimizedAffinity>
-8.06499

> <CNNscore>
0.5272995830

> <CNNaffinity>
5.2955980301

> <CNN_VS>
2.7923667431

> <CNNaffinity_variance>
0.0960969031

$$$$
[H]OC(=O)[C@@]1([H])N(C([H])([H])c2c([H])c([H])c([H])c(Cl)c2O[H])c2c([H])c([H])c([H])c(Cl)c2C1([H])[H]


 24 26  0  0  0  0  0  0  0  0999 V2000
    4.5387    5.4030   19.5659 C   0  0  0  0  0  0  0  0  0  0  0  0
    3.7197    5.1010   20.8004 C   0  0  0  0  0  0  0  0  0  0  0  0
    4.3978    3.8996   21.3499 C   0  0  0  0  0  0  0  0  0  0  0  0
    4.3319    3.3267   22.5960 C   0  0  0  0  0  0  0  0  0  0  0  0
    3.3020    4.0718   23.8005 Cl  0  0  0  0  0  0  0  0  0  0  0  0
    5.0489    2.1918   22.9187 C   0  0  0  0  0  0  0  0  0  0  0  0
    5.8554    1.6218   21.9497 C   0  0  0  0  0  0  0  0  0  0  0  0
    5.9129    2.2041   20.7069 C   0  0  0  0  0  0  0  0  0  0  0  0
    5.1979    3.3456   20.3670 C   0  0  0  0  0  0  0  0  0  0  0  0
    5.0873    4.1257   19.1809 N   0  0  0  0  0  0  0  0  0  0  0  0
    5.5324    7.0146   21.1506 O   0  0  0  0  0  0  0  0  0  0  0  0
    5.6722    6.2781   20.0135 C   0  0  0  0  0  0  0  0  0  0  0  0
    6.7441    6.3402   19.3559 O   0  0  0  0  0  0  0  0  0  0  0  0
    6.0938    6.9496   21.9883 H   0  0  0  0  0  0  0  0  0  0  0  0
    5.4567    3.7023   17.8770 C   0  0  0  0  0  0  0  0  0  0  0  0
    4.5480    2.7924   17.1841 C   0  0  0  0  0  0  0  0  0  0  0  0
    4.1049    1.5746   17.6122 C   0  0  0  0  0  0  0  0  0  0  0  0
    3.2396    0.8095   16.8299 C   0  0  0  0  0  0  0  0  0  0  0  0
    2.8033    1.2577   15.5980 C   0  0  0  0  0  0  0  0  0  0  0  0
    3.2377    2.4786   15.1503 C   0  0  0  0  0  0  0  0  0  0  0  0
    2.7077    3.0977   13.5787 Cl  0  0  0  0  0  0  0  0  0  0  0  0
    4.0877    3.2157   15.9335 C   0  0  0  0  0  0  0  0  0  0  0  0
    4.4954    4.4399   15.4341 O   0  0  0  0  0  0  0  0  0  0  0  0
    5.1128    5.0539   15.9204 H   0  0  0  0  0  0  0  0  0  0  0  0
 11 12  1  0  0  0
 12 13  2  0  0  0
 12  1  1  0  0  0
  1  2  1  0  0  0
  2  3  1  0  0  0
  3  4  2  0  0  0
  4  5  1  0  0  0
  4  6  1  0  0  0
  6  7  2  0  0  0
  7  8  1  0  0  0
  8  9  2  0  0  0
  9 10  1  0  0  0
 10 15  1  0  0  0
 15 16  1  0  0  0
 16 17  2  0  0  0
 17 18  1  0  0  0
 18 19  2  0  0  0
 19 20  1  0  0  0
 20 21  1  0  0  0
 20 22  2  0  0  0
 22 23  1  0  0  0
 10  1  1  0  0  0
 22 16  1  0  0  0
  9  3  1  0  0  0
 11 14  1  0  0  0
 23 24  1  0  0  0
M  END
> <minimizedAffinity>
-8.00426

> <CNNscore>
0.4514774382

> <CNNaffinity>
5.3641428947

> <CNN_VS>
2.4217894077

> <CNNaffinity_variance>
0.2901314199

$$$$
[H]OC(=O)[C@@]1([H])N(C([H])([H])c2c([H])c([H])c([H])c(Cl)c2O[H])c2c([H])c([H])c([H])c(Cl)c2C1([H])[H]


 24 26  0  0  0  0  0  0  0  0999 V2000
    4.2109    5.2581   16.5168 C   0  0  0  0  0  0  0  0  0  0  0  0
    3.7884    5.4984   15.0851 C   0  0  0  0  0  0  0  0  0  0  0  0
    3.1626    4.2042   14.7133 C   0  0  0  0  0  0  0  0  0  0  0  0
    2.3276    3.8807   13.6724 C   0  0  0  0  0  0  0  0  0  0  0  0
    1.8720    5.1438   12.5482 Cl  0  0  0  0  0  0  0  0  0  0  0  0
    1.8442    2.5999   13.4925 C   0  0  0  0  0  0  0  0  0  0  0  0
    2.2187    1.6196   14.3942 C   0  0  0  0  0  0  0  0  0  0  0  0
    3.0544    1.9555   15.4312 C   0  0  0  0  0  0  0  0  0  0  0  0
    3.5490    3.2390   15.6256 C   0  0  0  0  0  0  0  0  0  0  0  0
    4.4065    3.8312   16.5959 N   0  0  0  0  0  0  0  0  0  0  0  0
    3.1415    6.6320   18.2674 O   0  0  0  0  0  0  0  0  0  0  0  0
    3.0300    5.6119   17.3718 C   0  0  0  0  0  0  0  0  0  0  0  0
    1.9440    4.9824   17.2730 O   0  0  0  0  0  0  0  0  0  0  0  0
    2.6016    7.4860   18.2845 H   0  0  0  0  0  0  0  0  0  0  0  0
    5.2789    3.1262   17.4666 C   0  0  0  0  0  0  0  0  0  0  0  0
    4.9974    3.1943   18.8983 C   0  0  0  0  0  0  0  0  0  0  0  0
    5.3414    4.1895   19.7667 C   0  0  0  0  0  0  0  0  0  0  0  0
    5.0090    4.1093   21.1192 C   0  0  0  0  0  0  0  0  0  0  0  0
    4.3221    3.0220   21.6240 C   0  0  0  0  0  0  0  0  0  0  0  0
    3.9680    2.0117   20.7675 C   0  0  0  0  0  0  0  0  0  0  0  0
    3.0872    0.5971   21.3650 Cl  0  0  0  0  0  0  0  0  0  0  0  0
    4.3036    2.1088   19.4418 C   0  0  0  0  0  0  0  0  0  0  0  0
    3.9224    1.0618   18.6216 O   0  0  0  0  0  0  0  0  0  0  0  0
    4.1169    1.0305   17.6440 H   0  0  0  0  0  0  0  0  0  0  0  0
 11 12  1  0  0  0
 12 13  2  0  0  0
 12  1  1  0  0  0
  1  2  1  0  0  0
  2  3  1  0  0  0
  3  4  2  0  0  0
  4  5  1  0  0  0
  4  6  1  0  0  0
  6  7  2  0  0  0
  7  8  1  0  0  0
  8  9  2  0  0  0
  9 10  1  0  0  0
 10 15  1  0  0  0
 15 16  1  0  0  0
 16 17  2  0  0  0
 17 18  1  0  0  0
 18 19  2  0  0  0
 19 20  1  0  0  0
 20 21  1  0  0  0
 20 22  2  0  0  0
 22 23  1  0  0  0
 10  1  1  0  0  0
 22 16  1  0  0  0
  9  3  1  0  0  0
 11 14  1  0  0  0
 23 24  1  0  0  0
M  END
> <minimizedAffinity>
-7.48903

> <CNNscore>
0.4494984746

> <CNNaffinity>
5.3577775955

> <CNN_VS>
2.4083127975

> <CNNaffinity_variance>
0.1745021641

$$$$
[H]OC(=O)[C@@]1([H])N(C([H])([H])c2c([H])c([H])c([H])c(Cl)c2O[H])c2c([H])c([H])c([H])c(Cl)c2C1([H])[H]


 24 26  0  0  0  0  0  0  0  0999 V2000
    5.0752    1.3743   19.9140 C   0  0  0  0  0  0  0  0  0  0  0  0
    5.3966    1.3310   21.3908 C   0  0  0  0  0  0  0  0  0  0  0  0
    4.8580    2.6273   21.8750 C   0  0  0  0  0  0  0  0  0  0  0  0
    4.5662    3.0558   23.1464 C   0  0  0  0  0  0  0  0  0  0  0  0
    4.8438    1.9546   24.4794 Cl  0  0  0  0  0  0  0  0  0  0  0  0
    4.0655    4.3179   23.3967 C   0  0  0  0  0  0  0  0  0  0  0  0
    3.8549    5.1695   22.3267 C   0  0  0  0  0  0  0  0  0  0  0  0
    4.1507    4.7293   21.0596 C   0  0  0  0  0  0  0  0  0  0  0  0
    4.6548    3.4629   20.7916 C   0  0  0  0  0  0  0  0  0  0  0  0
    5.0325    2.7814   19.5997 N   0  0  0  0  0  0  0  0  0  0  0  0
    2.9619    0.5456   20.8851 O   0  0  0  0  0  0  0  0  0  0  0  0
    3.6873    0.8243   19.7665 C   0  0  0  0  0  0  0  0  0  0  0  0
    3.1872    0.6182   18.6295 O   0  0  0  0  0  0  0  0  0  0  0  0
    2.0812    0.9603   21.1560 H   0  0  0  0  0  0  0  0  0  0  0  0
    5.3076    3.3957   18.3495 C   0  0  0  0  0  0  0  0  0  0  0  0
    4.1653    3.8279   17.5483 C   0  0  0  0  0  0  0  0  0  0  0  0
    3.4691    4.9969   17.6559 C   0  0  0  0  0  0  0  0  0  0  0  0
    2.3859    5.2674   16.8195 C   0  0  0  0  0  0  0  0  0  0  0  0
    1.9821    4.3630   15.8564 C   0  0  0  0  0  0  0  0  0  0  0  0
    2.6685    3.1826   15.7329 C   0  0  0  0  0  0  0  0  0  0  0  0
    2.1906    1.9906   14.5145 Cl  0  0  0  0  0  0  0  0  0  0  0  0
    3.7303    2.9350   16.5640 C   0  0  0  0  0  0  0  0  0  0  0  0
    4.3876    1.7291   16.3972 O   0  0  0  0  0  0  0  0  0  0  0  0
    5.1700    1.4486   16.9484 H   0  0  0  0  0  0  0  0  0  0  0  0
 11 12  1  0  0  0
 12 13  2  0  0  0
 12  1  1  0  0  0
  1  2  1  0  0  0
  2  3  1  0  0  0
  3  4  2  0  0  0
  4  5  1  0  0  0
  4  6  1  0  0  0
  6  7  2  0  0  0
  7  8  1  0  0  0
  8  9  2  0  0  0
  9 10  1  0  0  0
 10 15  1  0  0  0
 15 16  1  0  0  0
 16 17  2  0  0  0
 17 18  1  0  0  0
 18 19  2  0  0  0
 19 20  1  0  0  0
 20 21  1  0  0  0
 20 22  2  0  0  0
 22 23  1  0  0  0
 10  1  1  0  0  0
 22 16  1  0  0  0
  9  3  1  0  0  0
 11 14  1  0  0  0
 23 24  1  0  0  0
M  END
> <minimizedAffinity>
-7.29809

> <CNNscore>
0.4219805598

> <CNNaffinity>
5.3530349731

> <CNN_VS>
2.2588768005

> <CNNaffinity_variance>
0.3133760095

$$$$
[H]OC(=O)[C@@]1([H])N(C([H])([H])c2c([H])c([H])c([H])c(Cl)c2O[H])c2c([H])c([H])c([H])c(Cl)c2C1([H])[H]


 24 26  0  0  0  0  0  0  0  0999 V2000
    4.4900    4.7796   17.9343 C   0  0  0  0  0  0  0  0  0  0  0  0
    5.2454    3.6730   18.6348 C   0  0  0  0  0  0  0  0  0  0  0  0
    4.8081    3.8284   20.0454 C   0  0  0  0  0  0  0  0  0  0  0  0
    4.8920    2.9634   21.1084 C   0  0  0  0  0  0  0  0  0  0  0  0
    5.6206    1.3926   20.8468 Cl  0  0  0  0  0  0  0  0  0  0  0  0
    4.4218    3.2974   22.3628 C   0  0  0  0  0  0  0  0  0  0  0  0
    3.8504    4.5444   22.5440 C   0  0  0  0  0  0  0  0  0  0  0  0
    3.7723    5.4009   21.4730 C   0  0  0  0  0  0  0  0  0  0  0  0
    4.2406    5.0797   20.2052 C   0  0  0  0  0  0  0  0  0  0  0  0
    4.2765    5.7705   18.9606 N   0  0  0  0  0  0  0  0  0  0  0  0
    3.0643    2.8857   17.2442 O   0  0  0  0  0  0  0  0  0  0  0  0
    3.1551    4.2081   17.5574 C   0  0  0  0  0  0  0  0  0  0  0  0
    2.1240    4.9301   17.5269 O   0  0  0  0  0  0  0  0  0  0  0  0
    2.5143    2.1855   17.7218 H   0  0  0  0  0  0  0  0  0  0  0  0
    4.1258    7.1719   18.7897 C   0  0  0  0  0  0  0  0  0  0  0  0
    4.6505    7.7583   17.5590 C   0  0  0  0  0  0  0  0  0  0  0  0
    4.0564    7.7824   16.3305 C   0  0  0  0  0  0  0  0  0  0  0  0
    4.6894    8.3755   15.2380 C   0  0  0  0  0  0  0  0  0  0  0  0
    5.9364    8.9570   15.3625 C   0  0  0  0  0  0  0  0  0  0  0  0
    6.5499    8.9426   16.5885 C   0  0  0  0  0  0  0  0  0  0  0  0
    8.1480    9.6742   16.8002 Cl  0  0  0  0  0  0  0  0  0  0  0  0
    5.9117    8.3551   17.6501 C   0  0  0  0  0  0  0  0  0  0  0  0
    6.5752    8.3681   18.8642 O   0  0  0  0  0  0  0  0  0  0  0  0
    6.2028    7.9681   19.6984 H   0  0  0  0  0  0  0  0  0  0  0  0
 11 12  1  0  0  0
 12 13  2  0  0  0
 12  1  1  0  0  0
  1  2  1  0  0  0
  2  3  1  0  0  0
  3  4  2  0  0  0
  4  5  1  0  0  0
  4  6  1  0  0  0
  6  7  2  0  0  0
  7  8  1  0  0  0
  8  9  2  0  0  0
  9 10  1  0  0  0
 10 15  1  0  0  0
 15 16  1  0  0  0
 16 17  2  0  0  0
 17 18  1  0  0  0
 18 19  2  0  0  0
 19 20  1  0  0  0
 20 21  1  0  0  0
 20 22  2  0  0  0
 22 23  1  0  0  0
 10  1  1  0  0  0
 22 16  1  0  0  0
  9  3  1  0  0  0
 11 14  1  0  0  0
 23 24  1  0  0  0
M  END
> <minimizedAffinity>
-6.61854

> <CNNscore>
0.3807378113

> <CNNaffinity>
4.8445148468

> <CNN_VS>
1.8444899321

> <CNNaffinity_variance>
0.1485048831

$$$$
[H]OC(=O)[C@@]1([H])N(C([H])([H])c2c([H])c([H])c([H])c(Cl)c2O[H])c2c([H])c([H])c([H])c(Cl)c2C1([H])[H]


 24 26  0  0  0  0  0  0  0  0999 V2000
    4.8195    4.6176   19.6393 C   0  0  0  0  0  0  0  0  0  0  0  0
    4.9248    3.4299   18.7096 C   0  0  0  0  0  0  0  0  0  0  0  0
    4.3000    2.3429   19.5051 C   0  0  0  0  0  0  0  0  0  0  0  0
    3.8203    1.1152   19.1205 C   0  0  0  0  0  0  0  0  0  0  0  0
    3.9209    0.6760   17.4282 Cl  0  0  0  0  0  0  0  0  0  0  0  0
    3.2675    0.2294   20.0238 C   0  0  0  0  0  0  0  0  0  0  0  0
    3.1994    0.5997   21.3552 C   0  0  0  0  0  0  0  0  0  0  0  0
    3.6827    1.8303   21.7277 C   0  0  0  0  0  0  0  0  0  0  0  0
    4.2415    2.7323   20.8310 C   0  0  0  0  0  0  0  0  0  0  0  0
    4.7990    4.0363   20.9592 N   0  0  0  0  0  0  0  0  0  0  0  0
    2.8482    5.8964   20.3970 O   0  0  0  0  0  0  0  0  0  0  0  0
    3.4770    5.2368   19.3848 C   0  0  0  0  0  0  0  0  0  0  0  0
    2.9272    5.1554   18.2550 O   0  0  0  0  0  0  0  0  0  0  0  0
    2.5839    6.8716   20.4138 H   0  0  0  0  0  0  0  0  0  0  0  0
    5.2415    4.6294   22.1709 C   0  0  0  0  0  0  0  0  0  0  0  0
    6.2706    5.6618   22.0762 C   0  0  0  0  0  0  0  0  0  0  0  0
    7.6226    5.4849   22.0180 C   0  0  0  0  0  0  0  0  0  0  0  0
    8.4871    6.5769   21.9386 C   0  0  0  0  0  0  0  0  0  0  0  0
    8.0048    7.8714   21.9165 C   0  0  0  0  0  0  0  0  0  0  0  0
    6.6494    8.0697   21.9745 C   0  0  0  0  0  0  0  0  0  0  0  0
    5.9813    9.7089   21.9494 Cl  0  0  0  0  0  0  0  0  0  0  0  0
    5.8161    6.9840   22.0521 C   0  0  0  0  0  0  0  0  0  0  0  0
    4.4577    7.2405   22.1084 O   0  0  0  0  0  0  0  0  0  0  0  0
    3.7653    6.5253   22.1679 H   0  0  0  0  0  0  0  0  0  0  0  0
 11 12  1  0  0  0
 12 13  2  0  0  0
 12  1  1  0  0  0
  1  2  1  0  0  0
  2  3  1  0  0  0
  3  4  2  0  0  0
  4  5  1  0  0  0
  4  6  1  0  0  0
  6  7  2  0  0  0
  7  8  1  0  0  0
  8  9  2  0  0  0
  9 10  1  0  0  0
 10 15  1  0  0  0
 15 16  1  0  0  0
 16 17  2  0  0  0
 17 18  1  0  0  0
 18 19  2  0  0  0
 19 20  1  0  0  0
 20 21  1  0  0  0
 20 22  2  0  0  0
 22 23  1  0  0  0
 10  1  1  0  0  0
 22 16  1  0  0  0
  9  3  1  0  0  0
 11 14  1  0  0  0
 23 24  1  0  0  0
M  END
> <minimizedAffinity>
-8.64128

> <CNNscore>
0.3760476410

> <CNNaffinity>
5.2735910416

> <CNN_VS>
1.9831215143

> <CNNaffinity_variance>
0.3927238584

$$$$
[H]OC(=O)[C@@]1([H])N(C([H])([H])c2c([H])c([H])c([H])c(Cl)c2O[H])c2c([H])c([H])c([H])c(Cl)c2C1([H])[H]


 24 26  0  0  0  0  0  0  0  0999 V2000
    4.6556    4.6133   18.4544 C   0  0  0  0  0  0  0  0  0  0  0  0
    5.0909    3.3088   19.0828 C   0  0  0  0  0  0  0  0  0  0  0  0
    4.5687    3.4294   20.4676 C   0  0  0  0  0  0  0  0  0  0  0  0
    4.3686    2.4752   21.4344 C   0  0  0  0  0  0  0  0  0  0  0  0
    4.7676    0.8123   21.0569 Cl  0  0  0  0  0  0  0  0  0  0  0  0
    3.8667    2.7904   22.6814 C   0  0  0  0  0  0  0  0  0  0  0  0
    3.5592    4.1113   22.9554 C   0  0  0  0  0  0  0  0  0  0  0  0
    3.7639    5.0567   21.9802 C   0  0  0  0  0  0  0  0  0  0  0  0
    4.2678    4.7555   20.7211 C   0  0  0  0  0  0  0  0  0  0  0  0
    4.5641    5.5304   19.5639 N   0  0  0  0  0  0  0  0  0  0  0  0
    2.3494    5.3850   18.0283 O   0  0  0  0  0  0  0  0  0  0  0  0
    3.2702    4.3868   17.9251 C   0  0  0  0  0  0  0  0  0  0  0  0
    2.9495    3.2930   17.3901 O   0  0  0  0  0  0  0  0  0  0  0  0
    1.8740    5.8528   17.2692 H   0  0  0  0  0  0  0  0  0  0  0  0
    4.7310    6.9401   19.5350 C   0  0  0  0  0  0  0  0  0  0  0  0
    5.9493    7.4841   20.1297 C   0  0  0  0  0  0  0  0  0  0  0  0
    7.2325    7.3168   19.6959 C   0  0  0  0  0  0  0  0  0  0  0  0
    8.3027    7.8948   20.3791 C   0  0  0  0  0  0  0  0  0  0  0  0
    8.1002    8.6539   21.5154 C   0  0  0  0  0  0  0  0  0  0  0  0
    6.8183    8.8332   21.9673 C   0  0  0  0  0  0  0  0  0  0  0  0
    6.5058    9.7973   23.4188 Cl  0  0  0  0  0  0  0  0  0  0  0  0
    5.7797    8.2574   21.2823 C   0  0  0  0  0  0  0  0  0  0  0  0
    4.5069    8.4697   21.7813 O   0  0  0  0  0  0  0  0  0  0  0  0
    3.6827    8.0961   21.3620 H   0  0  0  0  0  0  0  0  0  0  0  0
 11 12  1  0  0  0
 12 13  2  0  0  0
 12  1  1  0  0  0
  1  2  1  0  0  0
  2  3  1  0  0  0
  3  4  2  0  0  0
  4  5  1  0  0  0
  4  6  1  0  0  0
  6  7  2  0  0  0
  7  8  1  0  0  0
  8  9  2  0  0  0
  9 10  1  0  0  0
 10 15  1  0  0  0
 15 16  1  0  0  0
 16 17  2  0  0  0
 17 18  1  0  0  0
 18 19  2  0  0  0
 19 20  1  0  0  0
 20 21  1  0  0  0
 20 22  2  0  0  0
 22 23  1  0  0  0
 10  1  1  0  0  0
 22 16  1  0  0  0
  9  3  1  0  0  0
 11 14  1  0  0  0
 23 24  1  0  0  0
M  END
> <minimizedAffinity>
-7.80893

> <CNNscore>
0.3752502501

> <CNNaffinity>
5.0935039520

> <CNN_VS>
1.9113386869

> <CNNaffinity_variance>
0.2966283262

$$$$
[H]OC(=O)[C@@]1([H])N(C([H])([H])c2c([H])c([H])c([H])c(Cl)c2O[H])c2c([H])c([H])c([H])c(Cl)c2C1([H])[H]


 24 26  0  0  0  0  0  0  0  0999 V2000
    4.0069    1.6339   16.9461 C   0  0  0  0  0  0  0  0  0  0  0  0
    4.5460    0.8174   18.0987 C   0  0  0  0  0  0  0  0  0  0  0  0
    4.3482    1.7260   19.2563 C   0  0  0  0  0  0  0  0  0  0  0  0
    4.3504    1.4698   20.6053 C   0  0  0  0  0  0  0  0  0  0  0  0
    4.6229   -0.1758   21.1387 Cl  0  0  0  0  0  0  0  0  0  0  0  0
    4.1454    2.4652   21.5399 C   0  0  0  0  0  0  0  0  0  0  0  0
    3.9323    3.7572   21.0932 C   0  0  0  0  0  0  0  0  0  0  0  0
    3.9326    4.0010   19.7414 C   0  0  0  0  0  0  0  0  0  0  0  0
    4.1372    3.0107   18.7890 C   0  0  0  0  0  0  0  0  0  0  0  0
    4.1829    3.0026   17.3658 N   0  0  0  0  0  0  0  0  0  0  0  0
    1.7165    2.2479   16.2583 O   0  0  0  0  0  0  0  0  0  0  0  0
    2.5343    1.3548   16.8818 C   0  0  0  0  0  0  0  0  0  0  0  0
    2.0473    0.3124   17.3932 O   0  0  0  0  0  0  0  0  0  0  0  0
    1.1363    2.0768   15.4489 H   0  0  0  0  0  0  0  0  0  0  0  0
    4.3664    4.1425   16.5394 C   0  0  0  0  0  0  0  0  0  0  0  0
    5.0904    5.2756   17.1099 C   0  0  0  0  0  0  0  0  0  0  0  0
    6.3847    5.3025   17.5422 C   0  0  0  0  0  0  0  0  0  0  0  0
    6.9394    6.4656   18.0768 C   0  0  0  0  0  0  0  0  0  0  0  0
    6.1987    7.6267   18.1866 C   0  0  0  0  0  0  0  0  0  0  0  0
    4.8964    7.6196   17.7581 C   0  0  0  0  0  0  0  0  0  0  0  0
    3.9052    9.0816   17.8774 Cl  0  0  0  0  0  0  0  0  0  0  0  0
    4.3693    6.4670   17.2356 C   0  0  0  0  0  0  0  0  0  0  0  0
    3.0509    6.5146   16.8188 O   0  0  0  0  0  0  0  0  0  0  0  0
    2.5700    5.7342   16.4261 H   0  0  0  0  0  0  0  0  0  0  0  0
 11 12  1  0  0  0
 12 13  2  0  0  0
 12  1  1  0  0  0
  1  2  1  0  0  0
  2  3  1  0  0  0
  3  4  2  0  0  0
  4  5  1  0  0  0
  4  6  1  0  0  0
  6  7  2  0  0  0
  7  8  1  0  0  0
  8  9  2  0  0  0
  9 10  1  0  0  0
 10 15  1  0  0  0
 15 16  1  0  0  0
 16 17  2  0  0  0
 17 18  1  0  0  0
 18 19  2  0  0  0
 19 20  1  0  0  0
 20 21  1  0  0  0
 20 22  2  0  0  0
 22 23  1  0  0  0
 10  1  1  0  0  0
 22 16  1  0  0  0
  9  3  1  0  0  0
 11 14  1  0  0  0
 23 24  1  0  0  0
M  END
> <minimizedAffinity>
-6.55574

> <CNNscore>
0.3608715534

> <CNNaffinity>
5.1827497482

> <CNN_VS>
1.8703069687

> <CNNaffinity_variance>
0.2687847316

$$$$
[H]c1c([H])c([H])c(C(=O)N([H])c2nc3c(C4([H])C([H])([H])C([H])([H])N(C([H])([H])[H])C([H])([H])C4([H])[H])c([H])n([H])c3c([H])c2[H])c([H])c1[H]


 27 30  0  0  0  0  0  0  0  0999 V2000
    4.4283    0.9480   20.2898 C   0  0  0  0  0  0  0  0  0  0  0  0
    3.7711   -0.0606   21.0034 C   0  0  0  0  0  0  0  0  0  0  0  0
    2.8722   -0.5913   20.1658 N   0  0  0  0  0  0  0  0  0  0  0  0
    2.9193    0.0226   18.9571 C   0  0  0  0  0  0  0  0  0  0  0  0
    2.2039   -0.1678   17.7886 C   0  0  0  0  0  0  0  0  0  0  0  0
    2.5030    0.6410   16.7092 C   0  0  0  0  0  0  0  0  0  0  0  0
    3.4759    1.6142   16.7623 C   0  0  0  0  0  0  0  0  0  0  0  0
    4.1354    1.7501   17.9255 N   0  0  0  0  0  0  0  0  0  0  0  0
    3.9007    0.9995   19.0217 C   0  0  0  0  0  0  0  0  0  0  0  0
    2.2228   -1.3644   20.3937 H   0  0  0  0  0  0  0  0  0  0  0  0
    3.7457    4.2779   23.7854 C   0  0  0  0  0  0  0  0  0  0  0  0
    4.8099    3.8037   22.8851 N   0  0  0  0  0  0  0  0  0  0  0  0
    4.9733    2.3980   23.1837 C   0  0  0  0  0  0  0  0  0  0  0  0
    5.8288    1.6556   22.2182 C   0  0  0  0  0  0  0  0  0  0  0  0
    5.5098    1.8329   20.7781 C   0  0  0  0  0  0  0  0  0  0  0  0
    5.2164    3.2949   20.5280 C   0  0  0  0  0  0  0  0  0  0  0  0
    4.2463    3.8675   21.5431 C   0  0  0  0  0  0  0  0  0  0  0  0
    3.7827    2.4524   15.6282 N   0  0  0  0  0  0  0  0  0  0  0  0
    3.1974    3.7301   15.5014 C   0  0  0  0  0  0  0  0  0  0  0  0
    2.4120    4.1331   16.3691 O   0  0  0  0  0  0  0  0  0  0  0  0
    4.4503    2.0480   14.9389 H   0  0  0  0  0  0  0  0  0  0  0  0
    3.5145    4.5642   14.3624 C   0  0  0  0  0  0  0  0  0  0  0  0
    3.9657    3.9801   13.1996 C   0  0  0  0  0  0  0  0  0  0  0  0
    4.2789    4.7170   12.0911 C   0  0  0  0  0  0  0  0  0  0  0  0
    4.1530    6.0927   12.0953 C   0  0  0  0  0  0  0  0  0  0  0  0
    3.7042    6.7114   13.2414 C   0  0  0  0  0  0  0  0  0  0  0  0
    3.3933    5.9373   14.3534 C   0  0  0  0  0  0  0  0  0  0  0  0
 11 12  1  0  0  0
 12 13  1  0  0  0
 13 14  1  0  0  0
 14 15  1  0  0  0
 15 16  1  0  0  0
 16 17  1  0  0  0
 15  1  1  0  0  0
  1  2  2  0  0  0
  2  3  1  0  0  0
  3  4  1  0  0  0
  4  5  2  0  0  0
  5  6  1  0  0  0
  6  7  2  0  0  0
  7 18  1  0  0  0
 18 19  1  0  0  0
 19 20  2  0  0  0
 19 22  1  0  0  0
 22 23  2  0  0  0
 23 24  1  0  0  0
 24 25  2  0  0  0
 25 26  1  0  0  0
 26 27  2  0  0  0
  7  8  1  0  0  0
  8  9  2  0  0  0
 17 12  1  0  0  0
  9  1  1  0  0  0
  9  4  1  0  0  0
 27 22  1  0  0  0
  3 10  1  0  0  0
 18 21  1  0  0  0
M  END
> <minimizedAffinity>
-8.49800

> <CNNscore>
0.7906498909

> <CNNaffinity>
6.7863831520

> <CNN_VS>
5.3656530380

> <CNNaffinity_variance>
0.2773603797

$$$$
[H]c1c([H])c([H])c(C(=O)N([H])c2nc3c(C4([H])C([H])([H])C([H])([H])N(C([H])([H])[H])C([H])([H])C4([H])[H])c([H])n([H])c3c([H])c2[H])c([H])c1[H]


 27 30  0  0  0  0  0  0  0  0999 V2000
    4.3403    3.2784   19.2218 C   0  0  0  0  0  0  0  0  0  0  0  0
    4.9099    2.4496   20.1950 C   0  0  0  0  0  0  0  0  0  0  0  0
    4.6000    1.1941   19.8502 N   0  0  0  0  0  0  0  0  0  0  0  0
    3.8643    1.1756   18.7107 C   0  0  0  0  0  0  0  0  0  0  0  0
    3.3186    0.1408   17.9725 C   0  0  0  0  0  0  0  0  0  0  0  0
    2.6089    0.4651   16.8324 C   0  0  0  0  0  0  0  0  0  0  0  0
    2.4323    1.7662   16.4170 C   0  0  0  0  0  0  0  0  0  0  0  0
    2.9865    2.7263   17.1769 N   0  0  0  0  0  0  0  0  0  0  0  0
    3.6925    2.4890   18.3018 C   0  0  0  0  0  0  0  0  0  0  0  0
    4.8762    0.3433   20.3708 H   0  0  0  0  0  0  0  0  0  0  0  0
    3.6151    5.7748   15.0969 C   0  0  0  0  0  0  0  0  0  0  0  0
    3.9624    6.0206   16.5064 N   0  0  0  0  0  0  0  0  0  0  0  0
    2.8672    5.4743   17.2770 C   0  0  0  0  0  0  0  0  0  0  0  0
    3.1215    5.3913   18.7412 C   0  0  0  0  0  0  0  0  0  0  0  0
    4.3986    4.7560   19.1566 C   0  0  0  0  0  0  0  0  0  0  0  0
    5.4993    5.2506   18.2457 C   0  0  0  0  0  0  0  0  0  0  0  0
    5.1125    5.1696   16.7816 C   0  0  0  0  0  0  0  0  0  0  0  0
    1.6913    2.0945   15.2229 N   0  0  0  0  0  0  0  0  0  0  0  0
    2.3657    2.4056   14.0231 C   0  0  0  0  0  0  0  0  0  0  0  0
    3.6031    2.3995   13.9964 O   0  0  0  0  0  0  0  0  0  0  0  0
    0.6545    2.0803   15.3200 H   0  0  0  0  0  0  0  0  0  0  0  0
    1.6133    2.7299   12.8304 C   0  0  0  0  0  0  0  0  0  0  0  0
    1.6175    1.8540   11.7676 C   0  0  0  0  0  0  0  0  0  0  0  0
    0.9241    2.1060   10.6163 C   0  0  0  0  0  0  0  0  0  0  0  0
    0.1835    3.2634   10.4736 C   0  0  0  0  0  0  0  0  0  0  0  0
    0.1560    4.1629   11.5166 C   0  0  0  0  0  0  0  0  0  0  0  0
    0.8705    3.8807   12.6752 C   0  0  0  0  0  0  0  0  0  0  0  0
 11 12  1  0  0  0
 12 13  1  0  0  0
 13 14  1  0  0  0
 14 15  1  0  0  0
 15 16  1  0  0  0
 16 17  1  0  0  0
 15  1  1  0  0  0
  1  2  2  0  0  0
  2  3  1  0  0  0
  3  4  1  0  0  0
  4  5  2  0  0  0
  5  6  1  0  0  0
  6  7  2  0  0  0
  7 18  1  0  0  0
 18 19  1  0  0  0
 19 20  2  0  0  0
 19 22  1  0  0  0
 22 23  2  0  0  0
 23 24  1  0  0  0
 24 25  2  0  0  0
 25 26  1  0  0  0
 26 27  2  0  0  0
  7  8  1  0  0  0
  8  9  2  0  0  0
 17 12  1  0  0  0
  9  1  1  0  0  0
  9  4  1  0  0  0
 27 22  1  0  0  0
  3 10  1  0  0  0
 18 21  1  0  0  0
M  END
> <minimizedAffinity>
-6.96139

> <CNNscore>
0.4729835987

> <CNNaffinity>
5.9305334091

> <CNN_VS>
2.8050451279

> <CNNaffinity_variance>
0.2258036584

$$$$
[H]c1c([H])c([H])c(C(=O)N([H])c2nc3c(C4([H])C([H])([H])C([H])([H])N(C([H])([H])[H])C([H])([H])C4([H])[H])c([H])n([H])c3c([H])c2[H])c([H])c1[H]


 27 30  0  0  0  0  0  0  0  0999 V2000
    3.9270    1.7824   22.0157 C   0  0  0  0  0  0  0  0  0  0  0  0
    3.4172    0.4875   22.1624 C   0  0  0  0  0  0  0  0  0  0  0  0
    3.2522    0.0042   20.9253 N   0  0  0  0  0  0  0  0  0  0  0  0
    3.6284    0.9191   19.9971 C   0  0  0  0  0  0  0  0  0  0  0  0
    3.6453    0.8881   18.6142 C   0  0  0  0  0  0  0  0  0  0  0  0
    4.0999    2.0103   17.9488 C   0  0  0  0  0  0  0  0  0  0  0  0
    4.5292    3.1389   18.6110 C   0  0  0  0  0  0  0  0  0  0  0  0
    4.4881    3.1068   19.9541 N   0  0  0  0  0  0  0  0  0  0  0  0
    4.0580    2.0500   20.6739 C   0  0  0  0  0  0  0  0  0  0  0  0
    2.8885   -0.9363   20.6920 H   0  0  0  0  0  0  0  0  0  0  0  0
    6.2580    5.9820   21.1768 C   0  0  0  0  0  0  0  0  0  0  0  0
    5.7367    5.1993   22.3097 N   0  0  0  0  0  0  0  0  0  0  0  0
    4.3220    5.0408   22.0539 C   0  0  0  0  0  0  0  0  0  0  0  0
    3.6365    4.0686   22.9484 C   0  0  0  0  0  0  0  0  0  0  0  0
    4.2768    2.7358   23.0927 C   0  0  0  0  0  0  0  0  0  0  0  0
    5.7698    2.9326   23.2268 C   0  0  0  0  0  0  0  0  0  0  0  0
    6.3220    3.8721   22.1724 C   0  0  0  0  0  0  0  0  0  0  0  0
    5.0048    4.3054   17.9067 N   0  0  0  0  0  0  0  0  0  0  0  0
    4.1295    5.3725   17.6133 C   0  0  0  0  0  0  0  0  0  0  0  0
    2.9434    5.3053   17.9607 O   0  0  0  0  0  0  0  0  0  0  0  0
    6.0128    4.2919   17.6457 H   0  0  0  0  0  0  0  0  0  0  0  0
    4.6172    6.5392   16.9099 C   0  0  0  0  0  0  0  0  0  0  0  0
    5.7593    7.1688   17.3524 C   0  0  0  0  0  0  0  0  0  0  0  0
    6.2680    8.2734   16.7272 C   0  0  0  0  0  0  0  0  0  0  0  0
    5.6481    8.8064   15.6136 C   0  0  0  0  0  0  0  0  0  0  0  0
    4.5031    8.2024   15.1425 C   0  0  0  0  0  0  0  0  0  0  0  0
    4.0084    7.0809   15.7981 C   0  0  0  0  0  0  0  0  0  0  0  0
 11 12  1  0  0  0
 12 13  1  0  0  0
 13 14  1  0  0  0
 14 15  1  0  0  0
 15 16  1  0  0  0
 16 17  1  0  0  0
 15  1  1  0  0  0
  1  2  2  0  0  0
  2  3  1  0  0  0
  3  4  1  0  0  0
  4  5  2  0  0  0
  5  6  1  0  0  0
  6  7  2  0  0  0
  7 18  1  0  0  0
 18 19  1  0  0  0
 19 20  2  0  0  0
 19 22  1  0  0  0
 22 23  2  0  0  0
 23 24  1  0  0  0
 24 25  2  0  0  0
 25 26  1  0  0  0
 26 27  2  0  0  0
  7  8  1  0  0  0
  8  9  2  0  0  0
 17 12  1  0  0  0
  9  1  1  0  0  0
  9  4  1  0  0  0
 27 22  1  0  0  0
  3 10  1  0  0  0
 18 21  1  0  0  0
M  END
> <minimizedAffinity>
-8.14142

> <CNNscore>
0.4237035811

> <CNNaffinity>
6.0930690765

> <CNN_VS>
2.5816552639

> <CNNaffinity_variance>
0.3054775894

$$$$
[H]c1c([H])c([H])c(C(=O)N([H])c2nc3c(C4([H])C([H])([H])C([H])([H])N(C([H])([H])[H])C([H])([H])C4([H])[H])c([H])n([H])c3c([H])c2[H])c([H])c1[H]


 27 30  0  0  0  0  0  0  0  0999 V2000
    3.0539    2.0419    9.5501 C   0  0  0  0  0  0  0  0  0  0  0  0
    2.4749    2.8464    8.5622 C   0  0  0  0  0  0  0  0  0  0  0  0
    1.5055    3.5453    9.1647 N   0  0  0  0  0  0  0  0  0  0  0  0
    1.4337    3.2315   10.4824 C   0  0  0  0  0  0  0  0  0  0  0  0
    0.6131    3.6796   11.5019 C   0  0  0  0  0  0  0  0  0  0  0  0
    0.8028    3.1496   12.7636 C   0  0  0  0  0  0  0  0  0  0  0  0
    1.7684    2.2049   13.0308 C   0  0  0  0  0  0  0  0  0  0  0  0
    2.5333    1.8103   11.9985 N   0  0  0  0  0  0  0  0  0  0  0  0
    2.4089    2.2805   10.7401 C   0  0  0  0  0  0  0  0  0  0  0  0
    0.8868    4.2344    8.7026 H   0  0  0  0  0  0  0  0  0  0  0  0
    2.9875   -1.5527    6.2565 C   0  0  0  0  0  0  0  0  0  0  0  0
    3.8502   -1.0382    7.3330 N   0  0  0  0  0  0  0  0  0  0  0  0
    4.1475    0.3303    6.9716 C   0  0  0  0  0  0  0  0  0  0  0  0
    4.8064    1.1245    8.0441 C   0  0  0  0  0  0  0  0  0  0  0  0
    4.1693    1.0827    9.3856 C   0  0  0  0  0  0  0  0  0  0  0  0
    3.7532   -0.3416    9.6751 C   0  0  0  0  0  0  0  0  0  0  0  0
    3.0023   -0.9673    8.5157 C   0  0  0  0  0  0  0  0  0  0  0  0
    1.9603    1.6593   14.3531 N   0  0  0  0  0  0  0  0  0  0  0  0
    3.0050    2.1281   15.1777 C   0  0  0  0  0  0  0  0  0  0  0  0
    3.7643    3.0125   14.7615 O   0  0  0  0  0  0  0  0  0  0  0  0
    1.2847    0.9188   14.6353 H   0  0  0  0  0  0  0  0  0  0  0  0
    3.1866    1.5770   16.5033 C   0  0  0  0  0  0  0  0  0  0  0  0
    2.4858    0.4496   16.8701 C   0  0  0  0  0  0  0  0  0  0  0  0
    2.6181   -0.1168   18.1077 C   0  0  0  0  0  0  0  0  0  0  0  0
    3.4705    0.4272   19.0490 C   0  0  0  0  0  0  0  0  0  0  0  0
    4.1879    1.5553   18.7169 C   0  0  0  0  0  0  0  0  0  0  0  0
    4.0335    2.1097   17.4515 C   0  0  0  0  0  0  0  0  0  0  0  0
 11 12  1  0  0  0
 12 13  1  0  0  0
 13 14  1  0  0  0
 14 15  1  0  0  0
 15 16  1  0  0  0
 16 17  1  0  0  0
 15  1  1  0  0  0
  1  2  2  0  0  0
  2  3  1  0  0  0
  3  4  1  0  0  0
  4  5  2  0  0  0
  5  6  1  0  0  0
  6  7  2  0  0  0
  7 18  1  0  0  0
 18 19  1  0  0  0
 19 20  2  0  0  0
 19 22  1  0  0  0
 22 23  2  0  0  0
 23 24  1  0  0  0
 24 25  2  0  0  0
 25 26  1  0  0  0
 26 27  2  0  0  0
  7  8  1  0  0  0
  8  9  2  0  0  0
 17 12  1  0  0  0
  9  1  1  0  0  0
  9  4  1  0  0  0
 27 22  1  0  0  0
  3 10  1  0  0  0
 18 21  1  0  0  0
M  END
> <minimizedAffinity>
-6.24389

> <CNNscore>
0.3896327317

> <CNNaffinity>
5.3743796349

> <CNN_VS>
2.0940341949

> <CNNaffinity_variance>
0.0855995491

$$$$
[H]c1c([H])c([H])c(C(=O)N([H])c2nc3c(C4([H])C([H])([H])C([H])([H])N(C([H])([H])[H])C([H])([H])C4([H])[H])c([H])n([H])c3c([H])c2[H])c([H])c1[H]


 27 30  0  0  0  0  0  0  0  0999 V2000
    3.5961    0.7384   18.4952 C   0  0  0  0  0  0  0  0  0  0  0  0
    2.5933   -0.2208   18.6764 C   0  0  0  0  0  0  0  0  0  0  0  0
    2.4142   -0.3349   19.9977 N   0  0  0  0  0  0  0  0  0  0  0  0
    3.2471    0.4984   20.6700 C   0  0  0  0  0  0  0  0  0  0  0  0
    3.4318    0.7391   22.0197 C   0  0  0  0  0  0  0  0  0  0  0  0
    4.3811    1.6741   22.3849 C   0  0  0  0  0  0  0  0  0  0  0  0
    5.1354    2.3612   21.4601 C   0  0  0  0  0  0  0  0  0  0  0  0
    4.9092    2.0825   20.1649 N   0  0  0  0  0  0  0  0  0  0  0  0
    4.0012    1.1843   19.7306 C   0  0  0  0  0  0  0  0  0  0  0  0
    1.7373   -0.9675   20.4591 H   0  0  0  0  0  0  0  0  0  0  0  0
    2.1776    4.8968   16.3811 C   0  0  0  0  0  0  0  0  0  0  0  0
    3.0815    3.7633   16.1242 N   0  0  0  0  0  0  0  0  0  0  0  0
    4.0045    3.7427   17.2375 C   0  0  0  0  0  0  0  0  0  0  0  0
    4.8570    2.5249   17.3122 C   0  0  0  0  0  0  0  0  0  0  0  0
    4.1562    1.2187   17.2120 C   0  0  0  0  0  0  0  0  0  0  0  0
    3.1089    1.3180   16.1262 C   0  0  0  0  0  0  0  0  0  0  0  0
    2.2601    2.5675   16.2598 C   0  0  0  0  0  0  0  0  0  0  0  0
    6.1230    3.3381   21.8518 N   0  0  0  0  0  0  0  0  0  0  0  0
    5.8057    4.7129   21.8659 C   0  0  0  0  0  0  0  0  0  0  0  0
    4.6716    5.0834   21.5366 O   0  0  0  0  0  0  0  0  0  0  0  0
    7.0544    2.9538   22.1151 H   0  0  0  0  0  0  0  0  0  0  0  0
    6.8020    5.6840   22.2637 C   0  0  0  0  0  0  0  0  0  0  0  0
    8.1142    5.2899   22.4035 C   0  0  0  0  0  0  0  0  0  0  0  0
    9.0988    6.1631   22.7748 C   0  0  0  0  0  0  0  0  0  0  0  0
    8.8112    7.4906   23.0268 C   0  0  0  0  0  0  0  0  0  0  0  0
    7.5089    7.9206   22.8969 C   0  0  0  0  0  0  0  0  0  0  0  0
    6.5285    7.0108   22.5182 C   0  0  0  0  0  0  0  0  0  0  0  0
 11 12  1  0  0  0
 12 13  1  0  0  0
 13 14  1  0  0  0
 14 15  1  0  0  0
 15 16  1  0  0  0
 16 17  1  0  0  0
 15  1  1  0  0  0
  1  2  2  0  0  0
  2  3  1  0  0  0
  3  4  1  0  0  0
  4  5  2  0  0  0
  5  6  1  0  0  0
  6  7  2  0  0  0
  7 18  1  0  0  0
 18 19  1  0  0  0
 19 20  2  0  0  0
 19 22  1  0  0  0
 22 23  2  0  0  0
 23 24  1  0  0  0
 24 25  2  0  0  0
 25 26  1  0  0  0
 26 27  2  0  0  0
  7  8  1  0  0  0
  8  9  2  0  0  0
 17 12  1  0  0  0
  9  1  1  0  0  0
  9  4  1  0  0  0
 27 22  1  0  0  0
  3 10  1  0  0  0
 18 21  1  0  0  0
M  END
> <minimizedAffinity>
-8.81478

> <CNNscore>
0.3684680462

> <CNNaffinity>
6.1655125618

> <CNN_VS>
2.2717943192

> <CNNaffinity_variance>
0.3346910477

$$$$
[H]c1c([H])c([H])c(C(=O)N([H])c2nc3c(C4([H])C([H])([H])C([H])([H])N(C([H])([H])[H])C([H])([H])C4([H])[H])c([H])n([H])c3c([H])c2[H])c([H])c1[H]


 27 30  0  0  0  0  0  0  0  0999 V2000
    3.4469    1.6073   17.3183 C   0  0  0  0  0  0  0  0  0  0  0  0
    2.8812    0.3286   17.3760 C   0  0  0  0  0  0  0  0  0  0  0  0
    2.9988   -0.0794   18.6452 N   0  0  0  0  0  0  0  0  0  0  0  0
    3.6081    0.8682   19.4008 C   0  0  0  0  0  0  0  0  0  0  0  0
    3.9459    0.9134   20.7415 C   0  0  0  0  0  0  0  0  0  0  0  0
    4.5714    2.0521   21.2117 C   0  0  0  0  0  0  0  0  0  0  0  0
    4.8630    3.1244   20.3984 C   0  0  0  0  0  0  0  0  0  0  0  0
    4.5098    3.0193   19.1058 N   0  0  0  0  0  0  0  0  0  0  0  0
    3.8972    1.9419   18.5730 C   0  0  0  0  0  0  0  0  0  0  0  0
    2.6745   -0.9899   19.0153 H   0  0  0  0  0  0  0  0  0  0  0  0
    3.6908    6.4670   17.6305 C   0  0  0  0  0  0  0  0  0  0  0  0
    3.6486    5.4131   16.6031 N   0  0  0  0  0  0  0  0  0  0  0  0
    4.7918    4.5674   16.8674 C   0  0  0  0  0  0  0  0  0  0  0  0
    4.8092    3.2925   16.0996 C   0  0  0  0  0  0  0  0  0  0  0  0
    3.5635    2.4835   16.1309 C   0  0  0  0  0  0  0  0  0  0  0  0
    2.3821    3.4153   15.9829 C   0  0  0  0  0  0  0  0  0  0  0  0
    2.4732    4.6098   16.9126 C   0  0  0  0  0  0  0  0  0  0  0  0
    5.5145    4.3106   20.8998 N   0  0  0  0  0  0  0  0  0  0  0  0
    4.7640    5.4651   21.2080 C   0  0  0  0  0  0  0  0  0  0  0  0
    3.5372    5.4604   21.0438 O   0  0  0  0  0  0  0  0  0  0  0  0
    6.5475    4.2418   21.0120 H   0  0  0  0  0  0  0  0  0  0  0  0
    5.4264    6.6480   21.7138 C   0  0  0  0  0  0  0  0  0  0  0  0
    4.9487    7.8923   21.3672 C   0  0  0  0  0  0  0  0  0  0  0  0
    5.5321    9.0448   21.8160 C   0  0  0  0  0  0  0  0  0  0  0  0
    6.6366    9.0042   22.6447 C   0  0  0  0  0  0  0  0  0  0  0  0
    7.1420    7.7765   23.0124 C   0  0  0  0  0  0  0  0  0  0  0  0
    6.5287    6.6215   22.5410 C   0  0  0  0  0  0  0  0  0  0  0  0
 11 12  1  0  0  0
 12 13  1  0  0  0
 13 14  1  0  0  0
 14 15  1  0  0  0
 15 16  1  0  0  0
 16 17  1  0  0  0
 15  1  1  0  0  0
  1  2  2  0  0  0
  2  3  1  0  0  0
  3  4  1  0  0  0
  4  5  2  0  0  0
  5  6  1  0  0  0
  6  7  2  0  0  0
  7 18  1  0  0  0
 18 19  1  0  0  0
 19 20  2  0  0  0
 19 22  1  0  0  0
 22 23  2  0  0  0
 23 24  1  0  0  0
 24 25  2  0  0  0
 25 26  1  0  0  0
 26 27  2  0  0  0
  7  8  1  0  0  0
  8  9  2  0  0  0
 17 12  1  0  0  0
  9  1  1  0  0  0
  9  4  1  0  0  0
 27 22  1  0  0  0
  3 10  1  0  0  0
 18 21  1  0  0  0
M  END
> <minimizedAffinity>
-8.19445

> <CNNscore>
0.3239818215

> <CNNaffinity>
5.8902921677

> <CNN_VS>
1.9083476067

> <CNNaffinity_variance>
0.4540590346

$$$$
[H]c1c([H])c([H])c(C(=O)N([H])c2nc3c(C4([H])C([H])([H])C([H])([H])N(C([H])([H])[H])C([H])([H])C4([H])[H])c([H])n([H])c3c([H])c2[H])c([H])c1[H]


 27 30  0  0  0  0  0  0  0  0999 V2000
    3.7916    2.1222   16.6509 C   0  0  0  0  0  0  0  0  0  0  0  0
    2.8736    1.1945   17.1558 C   0  0  0  0  0  0  0  0  0  0  0  0
    2.0006    0.9527   16.1706 N   0  0  0  0  0  0  0  0  0  0  0  0
    2.3105    1.6747   15.0649 C   0  0  0  0  0  0  0  0  0  0  0  0
    1.7209    1.7636   13.8167 C   0  0  0  0  0  0  0  0  0  0  0  0
    2.2973    2.6100   12.8892 C   0  0  0  0  0  0  0  0  0  0  0  0
    3.4221    3.3545   13.1668 C   0  0  0  0  0  0  0  0  0  0  0  0
    3.9475    3.2243   14.3970 N   0  0  0  0  0  0  0  0  0  0  0  0
    3.4429    2.4198   15.3552 C   0  0  0  0  0  0  0  0  0  0  0  0
    1.1943    0.3064   16.2286 H   0  0  0  0  0  0  0  0  0  0  0  0
    3.4287    6.0422   19.5276 C   0  0  0  0  0  0  0  0  0  0  0  0
    4.4588    5.1259   19.0108 N   0  0  0  0  0  0  0  0  0  0  0  0
    4.0634    3.8073   19.4546 C   0  0  0  0  0  0  0  0  0  0  0  0
    4.8298    2.6908   18.8372 C   0  0  0  0  0  0  0  0  0  0  0  0
    4.9521    2.7106   17.3567 C   0  0  0  0  0  0  0  0  0  0  0  0
    5.2363    4.1291   16.9175 C   0  0  0  0  0  0  0  0  0  0  0  0
    4.2966    5.1290   17.5629 C   0  0  0  0  0  0  0  0  0  0  0  0
    4.0181    4.2340   12.1900 N   0  0  0  0  0  0  0  0  0  0  0  0
    3.6435    5.5929   12.1252 C   0  0  0  0  0  0  0  0  0  0  0  0
    2.7944    6.0325   12.9111 O   0  0  0  0  0  0  0  0  0  0  0  0
    4.7237    3.7951   11.5624 H   0  0  0  0  0  0  0  0  0  0  0  0
    4.2499    6.4672   11.1446 C   0  0  0  0  0  0  0  0  0  0  0  0
    3.5833    6.7323    9.9690 C   0  0  0  0  0  0  0  0  0  0  0  0
    4.1057    7.5517    9.0070 C   0  0  0  0  0  0  0  0  0  0  0  0
    5.3375    8.1526    9.1799 C   0  0  0  0  0  0  0  0  0  0  0  0
    6.0331    7.9103   10.3441 C   0  0  0  0  0  0  0  0  0  0  0  0
    5.4778    7.0729   11.3047 C   0  0  0  0  0  0  0  0  0  0  0  0
 11 12  1  0  0  0
 12 13  1  0  0  0
 13 14  1  0  0  0
 14 15  1  0  0  0
 15 16  1  0  0  0
 16 17  1  0  0  0
 15  1  1  0  0  0
  1  2  2  0  0  0
  2  3  1  0  0  0
  3  4  1  0  0  0
  4  5  2  0  0  0
  5  6  1  0  0  0
  6  7  2  0  0  0
  7 18  1  0  0  0
 18 19  1  0  0  0
 19 20  2  0  0  0
 19 22  1  0  0  0
 22 23  2  0  0  0
 23 24  1  0  0  0
 24 25  2  0  0  0
 25 26  1  0  0  0
 26 27  2  0  0  0
  7  8  1  0  0  0
  8  9  2  0  0  0
 17 12  1  0  0  0
  9  1  1  0  0  0
  9  4  1  0  0  0
 27 22  1  0  0  0
  3 10  1  0  0  0
 18 21  1  0  0  0
M  END
> <minimizedAffinity>
-7.01937

> <CNNscore>
0.3191958666

> <CNNaffinity>
5.6333017349

> <CNN_VS>
1.7981265783

> <CNNaffinity_variance>
0.2238523960

$$$$
[H]c1c([H])c([H])c(C(=O)N([H])c2nc3c(C4([H])C([H])([H])C([H])([H])N(C([H])([H])[H])C([H])([H])C4([H])[H])c([H])n([H])c3c([H])c2[H])c([H])c1[H]


 27 30  0  0  0  0  0  0  0  0999 V2000
    5.3531    4.9481   18.6330 C   0  0  0  0  0  0  0  0  0  0  0  0
    5.5563    4.6008   19.9733 C   0  0  0  0  0  0  0  0  0  0  0  0
    5.1266    3.3403   20.1061 N   0  0  0  0  0  0  0  0  0  0  0  0
    4.6605    2.8637   18.9247 C   0  0  0  0  0  0  0  0  0  0  0  0
    4.1246    1.6413   18.5613 C   0  0  0  0  0  0  0  0  0  0  0  0
    3.7398    1.4705   17.2454 C   0  0  0  0  0  0  0  0  0  0  0  0
    3.8722    2.4648   16.3018 C   0  0  0  0  0  0  0  0  0  0  0  0
    4.3995    3.6292   16.7172 N   0  0  0  0  0  0  0  0  0  0  0  0
    4.7981    3.8716   17.9830 C   0  0  0  0  0  0  0  0  0  0  0  0
    5.1411    2.7906   20.9830 H   0  0  0  0  0  0  0  0  0  0  0  0
    4.8675    9.2329   20.9085 C   0  0  0  0  0  0  0  0  0  0  0  0
    5.2379    8.7054   19.5847 N   0  0  0  0  0  0  0  0  0  0  0  0
    6.3703    7.8358   19.8163 C   0  0  0  0  0  0  0  0  0  0  0  0
    6.7575    6.9994   18.6477 C   0  0  0  0  0  0  0  0  0  0  0  0
    5.6652    6.2416   17.9846 C   0  0  0  0  0  0  0  0  0  0  0  0
    4.4542    7.1403   17.8769 C   0  0  0  0  0  0  0  0  0  0  0  0
    4.1381    7.8369   19.1863 C   0  0  0  0  0  0  0  0  0  0  0  0
    3.4696    2.2756   14.9288 N   0  0  0  0  0  0  0  0  0  0  0  0
    2.4684    3.0886   14.3565 C   0  0  0  0  0  0  0  0  0  0  0  0
    1.9295    3.9691   15.0393 O   0  0  0  0  0  0  0  0  0  0  0  0
    3.9654    1.5166   14.4164 H   0  0  0  0  0  0  0  0  0  0  0  0
    2.0746    2.8932   12.9778 C   0  0  0  0  0  0  0  0  0  0  0  0
    1.0607    3.6597   12.4477 C   0  0  0  0  0  0  0  0  0  0  0  0
    0.6473    3.5209   11.1517 C   0  0  0  0  0  0  0  0  0  0  0  0
    1.2386    2.5950   10.3141 C   0  0  0  0  0  0  0  0  0  0  0  0
    2.2565    1.8105   10.8104 C   0  0  0  0  0  0  0  0  0  0  0  0
    2.6561    1.9732   12.1318 C   0  0  0  0  0  0  0  0  0  0  0  0
 11 12  1  0  0  0
 12 13  1  0  0  0
 13 14  1  0  0  0
 14 15  1  0  0  0
 15 16  1  0  0  0
 16 17  1  0  0  0
 15  1  1  0  0  0
  1  2  2  0  0  0
  2  3  1  0  0  0
  3  4  1  0  0  0
  4  5  2  0  0  0
  5  6  1  0  0  0
  6  7  2  0  0  0
  7 18  1  0  0  0
 18 19  1  0  0  0
 19 20  2  0  0  0
 19 22  1  0  0  0
 22 23  2  0  0  0
 23 24  1  0  0  0
 24 25  2  0  0  0
 25 26  1  0  0  0
 26 27  2  0  0  0
  7  8  1  0  0  0
  8  9  2  0  0  0
 17 12  1  0  0  0
  9  1  1  0  0  0
  9  4  1  0  0  0
 27 22  1  0  0  0
  3 10  1  0  0  0
 18 21  1  0  0  0
M  END
> <minimizedAffinity>
-7.10091

> <CNNscore>
0.3053478301

> <CNNaffinity>
5.6792473793

> <CNN_VS>
1.7341458797

> <CNNaffinity_variance>
0.0935755223

$$$$
[H]c1c([H])c([H])c(C(=O)N([H])c2nc3c(C4([H])C([H])([H])C([H])([H])N(C([H])([H])[H])C([H])([H])C4([H])[H])c([H])n([H])c3c([H])c2[H])c([H])c1[H]


 27 30  0  0  0  0  0  0  0  0999 V2000
    4.4809    2.2383   19.0464 C   0  0  0  0  0  0  0  0  0  0  0  0
    3.9442    1.1153   19.6860 C   0  0  0  0  0  0  0  0  0  0  0  0
    3.2295    0.4607   18.7630 N   0  0  0  0  0  0  0  0  0  0  0  0
    3.2804    1.1037   17.5697 C   0  0  0  0  0  0  0  0  0  0  0  0
    2.7174    0.8237   16.3375 C   0  0  0  0  0  0  0  0  0  0  0  0
    2.9705    1.6983   15.2983 C   0  0  0  0  0  0  0  0  0  0  0  0
    3.7532    2.8209   15.4512 C   0  0  0  0  0  0  0  0  0  0  0  0
    4.2711    3.0377   16.6724 N   0  0  0  0  0  0  0  0  0  0  0  0
    4.0698    2.2312   17.7349 C   0  0  0  0  0  0  0  0  0  0  0  0
    2.7042   -0.4168   18.9220 H   0  0  0  0  0  0  0  0  0  0  0  0
    3.6593    4.1567   23.4530 C   0  0  0  0  0  0  0  0  0  0  0  0
    4.5915    4.3084   22.3234 N   0  0  0  0  0  0  0  0  0  0  0  0
    5.2084    3.0114   22.1524 C   0  0  0  0  0  0  0  0  0  0  0  0
    6.0078    2.8659   20.9054 C   0  0  0  0  0  0  0  0  0  0  0  0
    5.3458    3.2816   19.6420 C   0  0  0  0  0  0  0  0  0  0  0  0
    4.6021    4.5739   19.8925 C   0  0  0  0  0  0  0  0  0  0  0  0
    3.7548    4.5144   21.1487 C   0  0  0  0  0  0  0  0  0  0  0  0
    4.0137    3.7271   14.3586 N   0  0  0  0  0  0  0  0  0  0  0  0
    3.1252    4.7868   14.0783 C   0  0  0  0  0  0  0  0  0  0  0  0
    2.1127    4.9379   14.7740 O   0  0  0  0  0  0  0  0  0  0  0  0
    4.8829    3.5387   13.8169 H   0  0  0  0  0  0  0  0  0  0  0  0
    3.3974    5.6921   12.9827 C   0  0  0  0  0  0  0  0  0  0  0  0
    4.3953    5.3871   12.0839 C   0  0  0  0  0  0  0  0  0  0  0  0
    4.6961    6.2031   11.0286 C   0  0  0  0  0  0  0  0  0  0  0  0
    4.0016    7.3791   10.8212 C   0  0  0  0  0  0  0  0  0  0  0  0
    2.9962    7.7165   11.7005 C   0  0  0  0  0  0  0  0  0  0  0  0
    2.7122    6.8681   12.7645 C   0  0  0  0  0  0  0  0  0  0  0  0
 11 12  1  0  0  0
 12 13  1  0  0  0
 13 14  1  0  0  0
 14 15  1  0  0  0
 15 16  1  0  0  0
 16 17  1  0  0  0
 15  1  1  0  0  0
  1  2  2  0  0  0
  2  3  1  0  0  0
  3  4  1  0  0  0
  4  5  2  0  0  0
  5  6  1  0  0  0
  6  7  2  0  0  0
  7 18  1  0  0  0
 18 19  1  0  0  0
 19 20  2  0  0  0
 19 22  1  0  0  0
 22 23  2  0  0  0
 23 24  1  0  0  0
 24 25  2  0  0  0
 25 26  1  0  0  0
 26 27  2  0  0  0
  7  8  1  0  0  0
  8  9  2  0  0  0
 17 12  1  0  0  0
  9  1  1  0  0  0
  9  4  1  0  0  0
 27 22  1  0  0  0
  3 10  1  0  0  0
 18 21  1  0  0  0
M  END
> <minimizedAffinity>
-7.41636

> <CNNscore>
0.2955878377

> <CNNaffinity>
5.9481263161

> <CNN_VS>
1.7581938505

> <CNNaffinity_variance>
0.4375221729

$$$$
[H]OC(=O)[C@@]([H])(N([H])C(=O)[C@@]1([H])N(C(=O)[C@@]2([H])N(C(=O)[C@@]([H])(N([H])C(=O)C([H])([H])[H])C([H])([H])c3c([H])c([H])c([H])c([H])c3[H])C([H])([H])C([H])([H])C2([H])[H])C([H])([H])C([H])([H])C1([H])[H])C([H])([H])[H]


 37 39  0  0  0  0  0  0  0  0999 V2000
    3.6843    5.1987   15.4902 C   0  0  0  0  0  0  0  0  0  0  0  0
    3.5929    6.7680   15.5353 C   0  0  0  0  0  0  0  0  0  0  0  0
    3.3567    7.1392   14.0745 C   0  0  0  0  0  0  0  0  0  0  0  0
    3.5502    5.8457   13.3341 C   0  0  0  0  0  0  0  0  0  0  0  0
    2.9293    4.9228   14.3369 N   0  0  0  0  0  0  0  0  0  0  0  0
    1.9229    4.0233   14.0032 C   0  0  0  0  0  0  0  0  0  0  0  0
    1.5151    3.0800   14.7635 O   0  0  0  0  0  0  0  0  0  0  0  0
    3.4304    2.7004   18.3826 C   0  0  0  0  0  0  0  0  0  0  0  0
    3.4439    1.2343   18.1229 C   0  0  0  0  0  0  0  0  0  0  0  0
    4.1967    1.0742   16.8411 C   0  0  0  0  0  0  0  0  0  0  0  0
    4.5824    2.4654   16.3657 C   0  0  0  0  0  0  0  0  0  0  0  0
    3.7563    3.3567   17.1256 N   0  0  0  0  0  0  0  0  0  0  0  0
    3.2949    4.6870   16.7968 C   0  0  0  0  0  0  0  0  0  0  0  0
    2.6222    5.2839   17.6208 O   0  0  0  0  0  0  0  0  0  0  0  0
    4.2991    4.4460   20.0161 N   0  0  0  0  0  0  0  0  0  0  0  0
    4.3607    3.1575   19.4402 C   0  0  0  0  0  0  0  0  0  0  0  0
    5.2431    2.3585   19.8389 O   0  0  0  0  0  0  0  0  0  0  0  0
    3.5768    5.1633   19.7326 H   0  0  0  0  0  0  0  0  0  0  0  0
    6.1963    5.9156   20.4528 C   0  0  0  0  0  0  0  0  0  0  0  0
    5.2257    4.9063   21.0550 C   0  0  0  0  0  0  0  0  0  0  0  0
    4.4809    5.5038   22.1834 C   0  0  0  0  0  0  0  0  0  0  0  0
    4.1301    6.8353   22.1646 O   0  0  0  0  0  0  0  0  0  0  0  0
    4.1685    4.7965   23.1598 O   0  0  0  0  0  0  0  0  0  0  0  0
    3.3904    7.2492   21.6266 H   0  0  0  0  0  0  0  0  0  0  0  0
    1.1969    4.0690   12.6967 C   0  0  0  0  0  0  0  0  0  0  0  0
    0.7848    2.7463   12.2937 N   0  0  0  0  0  0  0  0  0  0  0  0
    1.1568    2.2107   11.0520 C   0  0  0  0  0  0  0  0  0  0  0  0
    0.7218    0.8476   10.6410 C   0  0  0  0  0  0  0  0  0  0  0  0
    1.8647    2.8914   10.2778 O   0  0  0  0  0  0  0  0  0  0  0  0
    0.2019    2.1596   12.9396 H   0  0  0  0  0  0  0  0  0  0  0  0
   -0.0650    4.9071   12.7669 C   0  0  0  0  0  0  0  0  0  0  0  0
   -0.5517    5.3765   11.4679 C   0  0  0  0  0  0  0  0  0  0  0  0
   -1.8556    5.2199   11.0349 C   0  0  0  0  0  0  0  0  0  0  0  0
   -2.2852    5.6817    9.8088 C   0  0  0  0  0  0  0  0  0  0  0  0
   -1.4131    6.3242    8.9640 C   0  0  0  0  0  0  0  0  0  0  0  0
   -0.0959    6.4997    9.3652 C   0  0  0  0  0  0  0  0  0  0  0  0
    0.3056    6.0201   10.6119 C   0  0  0  0  0  0  0  0  0  0  0  0
 19 20  1  0  0  0
 20 15  1  0  0  0
 15 16  1  0  0  0
 16 17  2  0  0  0
 16  8  1  0  0  0
  8  9  1  0  0  0
  9 10  1  0  0  0
 10 11  1  0  0  0
 11 12  1  0  0  0
 12 13  1  0  0  0
 13 14  2  0  0  0
 13  1  1  0  0  0
  1  2  1  0  0  0
  2  3  1  0  0  0
  3  4  1  0  0  0
  4  5  1  0  0  0
  5  6  1  0  0  0
  6  7  2  0  0  0
  6 25  1  0  0  0
 25 31  1  0  0  0
 31 32  1  0  0  0
 32 33  2  0  0  0
 33 34  1  0  0  0
 34 35  2  0  0  0
 35 36  1  0  0  0
 36 37  2  0  0  0
 25 26  1  0  0  0
 26 27  1  0  0  0
 27 28  1  0  0  0
 27 29  2  0  0  0
 20 21  1  0  0  0
 21 22  1  0  0  0
 21 23  2  0  0  0
 12  8  1  0  0  0
  5  1  1  0  0  0
 37 32  1  0  0  0
 15 18  1  0  0  0
 26 30  1  0  0  0
 22 24  1  0  0  0
M  END
> <minimizedAffinity>
-6.86034

> <CNNscore>
0.2680526674

> <CNNaffinity>
5.8693118095

> <CNN_VS>
1.5732847452

> <CNNaffinity_variance>
0.3050449789

$$$$
[H]OC(=O)[C@@]([H])(N([H])C(=O)[C@@]1([H])N(C(=O)[C@@]2([H])N(C(=O)[C@@]([H])(N([H])C(=O)C([H])([H])[H])C([H])([H])c3c([H])c([H])c([H])c([H])c3[H])C([H])([H])C([H])([H])C2([H])[H])C([H])([H])C([H])([H])C1([H])[H])C([H])([H])[H]


 37 39  0  0  0  0  0  0  0  0999 V2000
    4.1512    5.0944   16.1784 C   0  0  0  0  0  0  0  0  0  0  0  0
    4.1112    3.5234   16.1209 C   0  0  0  0  0  0  0  0  0  0  0  0
    5.0801    3.1156   17.2265 C   0  0  0  0  0  0  0  0  0  0  0  0
    5.7241    4.4085   17.6417 C   0  0  0  0  0  0  0  0  0  0  0  0
    4.5276    5.3006   17.5172 N   0  0  0  0  0  0  0  0  0  0  0  0
    4.0969    6.1232   18.5520 C   0  0  0  0  0  0  0  0  0  0  0  0
    3.2223    7.0468   18.4250 O   0  0  0  0  0  0  0  0  0  0  0  0
    1.8066    7.2543   14.0549 C   0  0  0  0  0  0  0  0  0  0  0  0
    2.2002    8.6330   13.6531 C   0  0  0  0  0  0  0  0  0  0  0  0
    3.6951    8.6208   13.6376 C   0  0  0  0  0  0  0  0  0  0  0  0
    4.1411    7.2311   14.0622 C   0  0  0  0  0  0  0  0  0  0  0  0
    2.9794    6.6364   14.6547 N   0  0  0  0  0  0  0  0  0  0  0  0
    2.8883    5.5967   15.6555 C   0  0  0  0  0  0  0  0  0  0  0  0
    1.7796    5.2143   15.9902 O   0  0  0  0  0  0  0  0  0  0  0  0
    0.0453    6.6026   12.3394 N   0  0  0  0  0  0  0  0  0  0  0  0
    1.3010    6.4018   12.9547 C   0  0  0  0  0  0  0  0  0  0  0  0
    2.0264    5.4584   12.5548 O   0  0  0  0  0  0  0  0  0  0  0  0
   -0.6100    7.3820   12.6218 H   0  0  0  0  0  0  0  0  0  0  0  0
   -1.9876    5.7500   11.2953 C   0  0  0  0  0  0  0  0  0  0  0  0
   -0.4638    5.7535   11.2578 C   0  0  0  0  0  0  0  0  0  0  0  0
    0.0275    6.2343    9.9492 C   0  0  0  0  0  0  0  0  0  0  0  0
    1.2872    5.8971    9.5068 O   0  0  0  0  0  0  0  0  0  0  0  0
   -0.7044    6.9513    9.2410 O   0  0  0  0  0  0  0  0  0  0  0  0
    1.5715    5.0066    9.1404 H   0  0  0  0  0  0  0  0  0  0  0  0
    4.6194    6.0084   19.9484 C   0  0  0  0  0  0  0  0  0  0  0  0
    4.4685    7.2569   20.6556 N   0  0  0  0  0  0  0  0  0  0  0  0
    5.5485    7.8565   21.3199 C   0  0  0  0  0  0  0  0  0  0  0  0
    5.3828    9.1416   22.0529 C   0  0  0  0  0  0  0  0  0  0  0  0
    6.6683    7.3003   21.2962 O   0  0  0  0  0  0  0  0  0  0  0  0
    3.5375    7.7407   20.6718 H   0  0  0  0  0  0  0  0  0  0  0  0
    3.8747    4.9652   20.7591 C   0  0  0  0  0  0  0  0  0  0  0  0
    4.6428    3.7478   21.0284 C   0  0  0  0  0  0  0  0  0  0  0  0
    5.8241    3.7291   21.7469 C   0  0  0  0  0  0  0  0  0  0  0  0
    6.5194    2.5637   21.9912 C   0  0  0  0  0  0  0  0  0  0  0  0
    6.0496    1.3623   21.5188 C   0  0  0  0  0  0  0  0  0  0  0  0
    4.8664    1.3425   20.7932 C   0  0  0  0  0  0  0  0  0  0  0  0
    4.1883    2.5396   20.5640 C   0  0  0  0  0  0  0  0  0  0  0  0
 19 20  1  0  0  0
 20 15  1  0  0  0
 15 16  1  0  0  0
 16 17  2  0  0  0
 16  8  1  0  0  0
  8  9  1  0  0  0
  9 10  1  0  0  0
 10 11  1  0  0  0
 11 12  1  0  0  0
 12 13  1  0  0  0
 13 14  2  0  0  0
 13  1  1  0  0  0
  1  2  1  0  0  0
  2  3  1  0  0  0
  3  4  1  0  0  0
  4  5  1  0  0  0
  5  6  1  0  0  0
  6  7  2  0  0  0
  6 25  1  0  0  0
 25 31  1  0  0  0
 31 32  1  0  0  0
 32 33  2  0  0  0
 33 34  1  0  0  0
 34 35  2  0  0  0
 35 36  1  0  0  0
 36 37  2  0  0  0
 25 26  1  0  0  0
 26 27  1  0  0  0
 27 28  1  0  0  0
 27 29  2  0  0  0
 20 21  1  0  0  0
 21 22  1  0  0  0
 21 23  2  0  0  0
 12  8  1  0  0  0
  5  1  1  0  0  0
 37 32  1  0  0  0
 15 18  1  0  0  0
 26 30  1  0  0  0
 22 24  1  0  0  0
M  END
> <minimizedAffinity>
-8.27359

> <CNNscore>
0.2462252527

> <CNNaffinity>
5.8634819984

> <CNN_VS>
1.4437373877

> <CNNaffinity_variance>
0.1260872185

$$$$
[H]OC(=O)[C@@]([H])(N([H])C(=O)[C@@]1([H])N(C(=O)[C@@]2([H])N(C(=O)[C@@]([H])(N([H])C(=O)C([H])([H])[H])C([H])([H])c3c([H])c([H])c([H])c([H])c3[H])C([H])([H])C([H])([H])C2([H])[H])C([H])([H])C([H])([H])C1([H])[H])C([H])([H])[H]


 37 39  0  0  0  0  0  0  0  0999 V2000
    2.8605    3.4368   11.2823 C   0  0  0  0  0  0  0  0  0  0  0  0
    2.7481    1.8906   11.5463 C   0  0  0  0  0  0  0  0  0  0  0  0
    2.9766    1.2897   10.1629 C   0  0  0  0  0  0  0  0  0  0  0  0
    2.9723    2.4788    9.2439 C   0  0  0  0  0  0  0  0  0  0  0  0
    3.6776    3.4511   10.1384 N   0  0  0  0  0  0  0  0  0  0  0  0
    4.8004    4.1632    9.7316 C   0  0  0  0  0  0  0  0  0  0  0  0
    5.3040    5.1473   10.3735 O   0  0  0  0  0  0  0  0  0  0  0  0
    2.5230    5.5387   14.4666 C   0  0  0  0  0  0  0  0  0  0  0  0
    1.5623    6.6747   14.5282 C   0  0  0  0  0  0  0  0  0  0  0  0
    0.4918    6.3316   13.5426 C   0  0  0  0  0  0  0  0  0  0  0  0
    0.8724    5.0058   12.9039 C   0  0  0  0  0  0  0  0  0  0  0  0
    2.2572    4.8255   13.2266 N   0  0  0  0  0  0  0  0  0  0  0  0
    3.2747    4.0768   12.5231 C   0  0  0  0  0  0  0  0  0  0  0  0
    4.3936    4.0301   13.0063 O   0  0  0  0  0  0  0  0  0  0  0  0
    3.0817    3.3324   15.6023 N   0  0  0  0  0  0  0  0  0  0  0  0
    2.4540    4.5979   15.6081 C   0  0  0  0  0  0  0  0  0  0  0  0
    1.8058    4.9467   16.6251 O   0  0  0  0  0  0  0  0  0  0  0  0
    3.6488    2.9809   14.7829 H   0  0  0  0  0  0  0  0  0  0  0  0
    2.7081    0.9959   16.1949 C   0  0  0  0  0  0  0  0  0  0  0  0
    3.0060    2.3933   16.7258 C   0  0  0  0  0  0  0  0  0  0  0  0
    4.2688    2.4043   17.4941 C   0  0  0  0  0  0  0  0  0  0  0  0
    4.5576    1.3921   18.3819 O   0  0  0  0  0  0  0  0  0  0  0  0
    5.0782    3.3378   17.3371 O   0  0  0  0  0  0  0  0  0  0  0  0
    4.8587    0.4631   18.1491 H   0  0  0  0  0  0  0  0  0  0  0  0
    5.5519    3.8435    8.4789 C   0  0  0  0  0  0  0  0  0  0  0  0
    6.2560    5.0056    7.9938 N   0  0  0  0  0  0  0  0  0  0  0  0
    6.0288    5.5141    6.7065 C   0  0  0  0  0  0  0  0  0  0  0  0
    6.7644    6.7097    6.2111 C   0  0  0  0  0  0  0  0  0  0  0  0
    5.1949    4.9517    5.9633 O   0  0  0  0  0  0  0  0  0  0  0  0
    6.9483    5.4947    8.6122 H   0  0  0  0  0  0  0  0  0  0  0  0
    6.5990    2.7676    8.6930 C   0  0  0  0  0  0  0  0  0  0  0  0
    6.2483    1.4623    8.1291 C   0  0  0  0  0  0  0  0  0  0  0  0
    6.2285    0.2901    8.8624 C   0  0  0  0  0  0  0  0  0  0  0  0
    5.8846   -0.9226    8.3036 C   0  0  0  0  0  0  0  0  0  0  0  0
    5.5445   -1.0041    6.9751 C   0  0  0  0  0  0  0  0  0  0  0  0
    5.5532    0.1525    6.2076 C   0  0  0  0  0  0  0  0  0  0  0  0
    5.9061    1.3628    6.8043 C   0  0  0  0  0  0  0  0  0  0  0  0
 19 20  1  0  0  0
 20 15  1  0  0  0
 15 16  1  0  0  0
 16 17  2  0  0  0
 16  8  1  0  0  0
  8  9  1  0  0  0
  9 10  1  0  0  0
 10 11  1  0  0  0
 11 12  1  0  0  0
 12 13  1  0  0  0
 13 14  2  0  0  0
 13  1  1  0  0  0
  1  2  1  0  0  0
  2  3  1  0  0  0
  3  4  1  0  0  0
  4  5  1  0  0  0
  5  6  1  0  0  0
  6  7  2  0  0  0
  6 25  1  0  0  0
 25 31  1  0  0  0
 31 32  1  0  0  0
 32 33  2  0  0  0
 33 34  1  0  0  0
 34 35  2  0  0  0
 35 36  1  0  0  0
 36 37  2  0  0  0
 25 26  1  0  0  0
 26 27  1  0  0  0
 27 28  1  0  0  0
 27 29  2  0  0  0
 20 21  1  0  0  0
 21 22  1  0  0  0
 21 23  2  0  0  0
 12  8  1  0  0  0
  5  1  1  0  0  0
 37 32  1  0  0  0
 15 18  1  0  0  0
 26 30  1  0  0  0
 22 24  1  0  0  0
M  END
> <minimizedAffinity>
-5.87842

> <CNNscore>
0.2410794199

> <CNNaffinity>
5.2671494484

> <CNN_VS>
1.2698013783

> <CNNaffinity_variance>
0.0924610496

$$$$
[H]OC(=O)[C@@]([H])(N([H])C(=O)[C@@]1([H])N(C(=O)[C@@]2([H])N(C(=O)[C@@]([H])(N([H])C(=O)C([H])([H])[H])C([H])([H])c3c([H])c([H])c([H])c([H])c3[H])C([H])([H])C([H])([H])C2([H])[H])C([H])([H])C([H])([H])C1([H])[H])C([H])([H])[H]


 37 39  0  0  0  0  0  0  0  0999 V2000
    3.9331    4.0335   15.4624 C   0  0  0  0  0  0  0  0  0  0  0  0
    3.8713    2.5226   15.8943 C   0  0  0  0  0  0  0  0  0  0  0  0
    4.7174    2.4945   17.1634 C   0  0  0  0  0  0  0  0  0  0  0  0
    5.3393    3.8616   17.2170 C   0  0  0  0  0  0  0  0  0  0  0  0
    4.1773    4.6527   16.7007 N   0  0  0  0  0  0  0  0  0  0  0  0
    3.6597    5.7509   17.3784 C   0  0  0  0  0  0  0  0  0  0  0  0
    2.8187    6.5760   16.8823 O   0  0  0  0  0  0  0  0  0  0  0  0
    1.6975    5.9074   12.9802 C   0  0  0  0  0  0  0  0  0  0  0  0
    1.8553    7.3735   12.7732 C   0  0  0  0  0  0  0  0  0  0  0  0
    3.2815    7.6626   13.1163 C   0  0  0  0  0  0  0  0  0  0  0  0
    3.9185    6.3512   13.5462 C   0  0  0  0  0  0  0  0  0  0  0  0
    2.8156    5.4727   13.8033 N   0  0  0  0  0  0  0  0  0  0  0  0
    2.7379    4.3290   14.6847 C   0  0  0  0  0  0  0  0  0  0  0  0
    1.6953    3.6970   14.7184 O   0  0  0  0  0  0  0  0  0  0  0  0
    1.0602    3.8189   11.6756 N   0  0  0  0  0  0  0  0  0  0  0  0
    1.6486    5.1016   11.7387 C   0  0  0  0  0  0  0  0  0  0  0  0
    2.1557    5.5862   10.6975 O   0  0  0  0  0  0  0  0  0  0  0  0
    0.6091    3.3567   12.5119 H   0  0  0  0  0  0  0  0  0  0  0  0
    1.1010    1.5359   10.8178 C   0  0  0  0  0  0  0  0  0  0  0  0
    1.0203    3.0132   10.4513 C   0  0  0  0  0  0  0  0  0  0  0  0
   -0.2122    3.2971    9.6861 C   0  0  0  0  0  0  0  0  0  0  0  0
   -0.5320    4.5874    9.3267 O   0  0  0  0  0  0  0  0  0  0  0  0
   -0.9680    2.3610    9.3645 O   0  0  0  0  0  0  0  0  0  0  0  0
   -0.1074    5.1240    8.5920 H   0  0  0  0  0  0  0  0  0  0  0  0
    4.0378    6.0855   18.7860 C   0  0  0  0  0  0  0  0  0  0  0  0
    3.8483    7.4919   19.0463 N   0  0  0  0  0  0  0  0  0  0  0  0
    4.7801    8.2301   19.7906 C   0  0  0  0  0  0  0  0  0  0  0  0
    4.5737    9.6795   20.0604 C   0  0  0  0  0  0  0  0  0  0  0  0
    5.8001    7.6594   20.2354 O   0  0  0  0  0  0  0  0  0  0  0  0
    3.0035    7.9856   18.6674 H   0  0  0  0  0  0  0  0  0  0  0  0
    3.1907    5.3445   19.8025 C   0  0  0  0  0  0  0  0  0  0  0  0
    3.9519    4.7406   20.8981 C   0  0  0  0  0  0  0  0  0  0  0  0
    3.7260    5.0185   22.2337 C   0  0  0  0  0  0  0  0  0  0  0  0
    4.4547    4.4256   23.2431 C   0  0  0  0  0  0  0  0  0  0  0  0
    5.4467    3.5230   22.9458 C   0  0  0  0  0  0  0  0  0  0  0  0
    5.7018    3.2194   21.6156 C   0  0  0  0  0  0  0  0  0  0  0  0
    4.9461    3.8373   20.6193 C   0  0  0  0  0  0  0  0  0  0  0  0
 19 20  1  0  0  0
 20 15  1  0  0  0
 15 16  1  0  0  0
 16 17  2  0  0  0
 16  8  1  0  0  0
  8  9  1  0  0  0
  9 10  1  0  0  0
 10 11  1  0  0  0
 11 12  1  0  0  0
 12 13  1  0  0  0
 13 14  2  0  0  0
 13  1  1  0  0  0
  1  2  1  0  0  0
  2  3  1  0  0  0
  3  4  1  0  0  0
  4  5  1  0  0  0
  5  6  1  0  0  0
  6  7  2  0  0  0
  6 25  1  0  0  0
 25 31  1  0  0  0
 31 32  1  0  0  0
 32 33  2  0  0  0
 33 34  1  0  0  0
 34 35  2  0  0  0
 35 36  1  0  0  0
 36 37  2  0  0  0
 25 26  1  0  0  0
 26 27  1  0  0  0
 27 28  1  0  0  0
 27 29  2  0  0  0
 20 21  1  0  0  0
 21 22  1  0  0  0
 21 23  2  0  0  0
 12  8  1  0  0  0
  5  1  1  0  0  0
 37 32  1  0  0  0
 15 18  1  0  0  0
 26 30  1  0  0  0
 22 24  1  0  0  0
M  END
> <minimizedAffinity>
-6.89364

> <CNNscore>
0.2273401171

> <CNNaffinity>
5.8320555687

> <CNN_VS>
1.3258601427

> <CNNaffinity_variance>
0.2828289270

$$$$
[H]OC(=O)[C@@]([H])(N([H])C(=O)[C@@]1([H])N(C(=O)[C@@]2([H])N(C(=O)[C@@]([H])(N([H])C(=O)C([H])([H])[H])C([H])([H])c3c([H])c([H])c([H])c([H])c3[H])C([H])([H])C([H])([H])C2([H])[H])C([H])([H])C([H])([H])C1([H])[H])C([H])([H])[H]


 37 39  0  0  0  0  0  0  0  0999 V2000
    3.8330    3.9477   14.8820 C   0  0  0  0  0  0  0  0  0  0  0  0
    4.0418    5.4983   14.7236 C   0  0  0  0  0  0  0  0  0  0  0  0
    3.9304    5.7066   13.2165 C   0  0  0  0  0  0  0  0  0  0  0  0
    3.8980    4.3119   12.6575 C   0  0  0  0  0  0  0  0  0  0  0  0
    3.0786    3.6634   13.7303 N   0  0  0  0  0  0  0  0  0  0  0  0
    1.9307    2.9291   13.4540 C   0  0  0  0  0  0  0  0  0  0  0  0
    1.3246    2.1888   14.3018 O   0  0  0  0  0  0  0  0  0  0  0  0
    3.0071    1.9520   18.0453 C   0  0  0  0  0  0  0  0  0  0  0  0
    2.7473    0.4876   17.9730 C   0  0  0  0  0  0  0  0  0  0  0  0
    3.4977    0.0195   16.7676 C   0  0  0  0  0  0  0  0  0  0  0  0
    4.1593    1.2379   16.1446 C   0  0  0  0  0  0  0  0  0  0  0  0
    3.4949    2.3612   16.7371 N   0  0  0  0  0  0  0  0  0  0  0  0
    3.3090    3.6978   16.2175 C   0  0  0  0  0  0  0  0  0  0  0  0
    2.7364    4.5145   16.9193 O   0  0  0  0  0  0  0  0  0  0  0  0
    3.7464    2.1654   20.4697 N   0  0  0  0  0  0  0  0  0  0  0  0
    3.9720    2.3659   19.0897 C   0  0  0  0  0  0  0  0  0  0  0  0
    5.0378    2.9204   18.7254 O   0  0  0  0  0  0  0  0  0  0  0  0
    2.8754    1.6982   20.8432 H   0  0  0  0  0  0  0  0  0  0  0  0
    4.5277    4.0768   21.7682 C   0  0  0  0  0  0  0  0  0  0  0  0
    4.6940    2.5843   21.5073 C   0  0  0  0  0  0  0  0  0  0  0  0
    4.4789    1.8081   22.7468 C   0  0  0  0  0  0  0  0  0  0  0  0
    5.3086    1.9779   23.8326 O   0  0  0  0  0  0  0  0  0  0  0  0
    3.5393    0.9930   22.8089 O   0  0  0  0  0  0  0  0  0  0  0  0
    5.3034    2.7527   24.4712 H   0  0  0  0  0  0  0  0  0  0  0  0
    1.2714    2.9319   12.1119 C   0  0  0  0  0  0  0  0  0  0  0  0
    0.7733    1.6182   11.7836 N   0  0  0  0  0  0  0  0  0  0  0  0
    0.8273    1.1217   10.4730 C   0  0  0  0  0  0  0  0  0  0  0  0
    0.3051   -0.2324   10.1415 C   0  0  0  0  0  0  0  0  0  0  0  0
    1.3217    1.8301    9.5687 O   0  0  0  0  0  0  0  0  0  0  0  0
    0.3684    1.0085   12.5356 H   0  0  0  0  0  0  0  0  0  0  0  0
    0.0790    3.8673   12.0568 C   0  0  0  0  0  0  0  0  0  0  0  0
    0.4242    5.2897   12.1036 C   0  0  0  0  0  0  0  0  0  0  0  0
    0.9312    5.9921   11.0257 C   0  0  0  0  0  0  0  0  0  0  0  0
    1.2379    7.3343   11.0995 C   0  0  0  0  0  0  0  0  0  0  0  0
    1.0449    8.0279   12.2694 C   0  0  0  0  0  0  0  0  0  0  0  0
    0.5373    7.3555   13.3727 C   0  0  0  0  0  0  0  0  0  0  0  0
    0.2379    5.9976   13.2638 C   0  0  0  0  0  0  0  0  0  0  0  0
 19 20  1  0  0  0
 20 15  1  0  0  0
 15 16  1  0  0  0
 16 17  2  0  0  0
 16  8  1  0  0  0
  8  9  1  0  0  0
  9 10  1  0  0  0
 10 11  1  0  0  0
 11 12  1  0  0  0
 12 13  1  0  0  0
 13 14  2  0  0  0
 13  1  1  0  0  0
  1  2  1  0  0  0
  2  3  1  0  0  0
  3  4  1  0  0  0
  4  5  1  0  0  0
  5  6  1  0  0  0
  6  7  2  0  0  0
  6 25  1  0  0  0
 25 31  1  0  0  0
 31 32  1  0  0  0
 32 33  2  0  0  0
 33 34  1  0  0  0
 34 35  2  0  0  0
 35 36  1  0  0  0
 36 37  2  0  0  0
 25 26  1  0  0  0
 26 27  1  0  0  0
 27 28  1  0  0  0
 27 29  2  0  0  0
 20 21  1  0  0  0
 21 22  1  0  0  0
 21 23  2  0  0  0
 12  8  1  0  0  0
  5  1  1  0  0  0
 37 32  1  0  0  0
 15 18  1  0  0  0
 26 30  1  0  0  0
 22 24  1  0  0  0
M  END
> <minimizedAffinity>
-5.89513

> <CNNscore>
0.2225407958

> <CNNaffinity>
6.1689834595

> <CNN_VS>
1.3728505373

> <CNNaffinity_variance>
0.0849303827

$$$$
[H]OC(=O)[C@@]([H])(N([H])C(=O)[C@@]1([H])N(C(=O)[C@@]2([H])N(C(=O)[C@@]([H])(N([H])C(=O)C([H])([H])[H])C([H])([H])c3c([H])c([H])c([H])c([H])c3[H])C([H])([H])C([H])([H])C2([H])[H])C([H])([H])C([H])([H])C1([H])[H])C([H])([H])[H]


 37 39  0  0  0  0  0  0  0  0999 V2000
    2.8917    3.8429   10.8279 C   0  0  0  0  0  0  0  0  0  0  0  0
    2.9929    2.3334   11.2570 C   0  0  0  0  0  0  0  0  0  0  0  0
    2.7179    1.5881    9.9545 C   0  0  0  0  0  0  0  0  0  0  0  0
    2.2841    2.6668    9.0022 C   0  0  0  0  0  0  0  0  0  0  0  0
    3.2093    3.7513    9.4614 N   0  0  0  0  0  0  0  0  0  0  0  0
    4.0421    4.4433    8.5892 C   0  0  0  0  0  0  0  0  0  0  0  0
    4.6843    5.5059    8.8931 O   0  0  0  0  0  0  0  0  0  0  0  0
    3.8043    6.7556   13.1419 C   0  0  0  0  0  0  0  0  0  0  0  0
    3.2649    8.1209   12.8929 C   0  0  0  0  0  0  0  0  0  0  0  0
    1.9785    7.9028   12.1630 C   0  0  0  0  0  0  0  0  0  0  0  0
    1.8118    6.4034   11.9774 C   0  0  0  0  0  0  0  0  0  0  0  0
    3.1100    5.8536   12.2357 N   0  0  0  0  0  0  0  0  0  0  0  0
    3.7026    4.6282   11.7480 C   0  0  0  0  0  0  0  0  0  0  0  0
    4.8227    4.3366   12.1326 O   0  0  0  0  0  0  0  0  0  0  0  0
    4.3170    5.1160   15.0178 N   0  0  0  0  0  0  0  0  0  0  0  0
    3.6629    6.2709   14.5341 C   0  0  0  0  0  0  0  0  0  0  0  0
    2.9259    6.9206   15.3157 O   0  0  0  0  0  0  0  0  0  0  0  0
    4.9571    4.5289   14.4159 H   0  0  0  0  0  0  0  0  0  0  0  0
    4.2209    3.1030   16.3919 C   0  0  0  0  0  0  0  0  0  0  0  0
    4.1703    4.6264   16.3920 C   0  0  0  0  0  0  0  0  0  0  0  0
    5.2313    5.1863   17.2557 C   0  0  0  0  0  0  0  0  0  0  0  0
    6.5487    4.8338   17.0650 O   0  0  0  0  0  0  0  0  0  0  0  0
    4.9305    5.9833   18.1642 O   0  0  0  0  0  0  0  0  0  0  0  0
    7.1529    5.1601   16.3325 H   0  0  0  0  0  0  0  0  0  0  0  0
    4.2802    4.0060    7.1791 C   0  0  0  0  0  0  0  0  0  0  0  0
    4.2261    5.1316    6.2781 N   0  0  0  0  0  0  0  0  0  0  0  0
    3.0518    5.4569    5.5836 C   0  0  0  0  0  0  0  0  0  0  0  0
    3.0063    6.6161    4.6507 C   0  0  0  0  0  0  0  0  0  0  0  0
    2.0271    4.7598    5.7511 O   0  0  0  0  0  0  0  0  0  0  0  0
    5.0749    5.7325    6.1390 H   0  0  0  0  0  0  0  0  0  0  0  0
    5.6468    3.3752    6.9937 C   0  0  0  0  0  0  0  0  0  0  0  0
    5.7671    2.0222    7.5409 C   0  0  0  0  0  0  0  0  0  0  0  0
    6.5844    1.6958    8.6075 C   0  0  0  0  0  0  0  0  0  0  0  0
    6.6685    0.4128    9.1055 C   0  0  0  0  0  0  0  0  0  0  0  0
    5.9278   -0.5998    8.5458 C   0  0  0  0  0  0  0  0  0  0  0  0
    5.0960   -0.3093    7.4731 C   0  0  0  0  0  0  0  0  0  0  0  0
    5.0348    0.9991    6.9940 C   0  0  0  0  0  0  0  0  0  0  0  0
 19 20  1  0  0  0
 20 15  1  0  0  0
 15 16  1  0  0  0
 16 17  2  0  0  0
 16  8  1  0  0  0
  8  9  1  0  0  0
  9 10  1  0  0  0
 10 11  1  0  0  0
 11 12  1  0  0  0
 12 13  1  0  0  0
 13 14  2  0  0  0
 13  1  1  0  0  0
  1  2  1  0  0  0
  2  3  1  0  0  0
  3  4  1  0  0  0
  4  5  1  0  0  0
  5  6  1  0  0  0
  6  7  2  0  0  0
  6 25  1  0  0  0
 25 31  1  0  0  0
 31 32  1  0  0  0
 32 33  2  0  0  0
 33 34  1  0  0  0
 34 35  2  0  0  0
 35 36  1  0  0  0
 36 37  2  0  0  0
 25 26  1  0  0  0
 26 27  1  0  0  0
 27 28  1  0  0  0
 27 29  2  0  0  0
 20 21  1  0  0  0
 21 22  1  0  0  0
 21 23  2  0  0  0
 12  8  1  0  0  0
  5  1  1  0  0  0
 37 32  1  0  0  0
 15 18  1  0  0  0
 26 30  1  0  0  0
 22 24  1  0  0  0
M  END
> <minimizedAffinity>
-5.04475

> <CNNscore>
0.2060653120

> <CNNaffinity>
5.3046512604

> <CNN_VS>
1.0931046009

> <CNNaffinity_variance>
0.0834097937

$$$$
[H]OC(=O)[C@@]([H])(N([H])C(=O)[C@@]1([H])N(C(=O)[C@@]2([H])N(C(=O)[C@@]([H])(N([H])C(=O)C([H])([H])[H])C([H])([H])c3c([H])c([H])c([H])c([H])c3[H])C([H])([H])C([H])([H])C2([H])[H])C([H])([H])C([H])([H])C1([H])[H])C([H])([H])[H]


 37 39  0  0  0  0  0  0  0  0999 V2000
    2.0906    3.5392   13.1235 C   0  0  0  0  0  0  0  0  0  0  0  0
    1.7443    2.0068   13.1949 C   0  0  0  0  0  0  0  0  0  0  0  0
    1.3440    1.6791   11.7597 C   0  0  0  0  0  0  0  0  0  0  0  0
    1.2798    3.0201   11.0842 C   0  0  0  0  0  0  0  0  0  0  0  0
    2.4438    3.6677   11.7688 N   0  0  0  0  0  0  0  0  0  0  0  0
    3.4823    4.2713   11.0686 C   0  0  0  0  0  0  0  0  0  0  0  0
    4.3773    5.0132   11.6003 O   0  0  0  0  0  0  0  0  0  0  0  0
    3.9140    5.6448   15.7528 C   0  0  0  0  0  0  0  0  0  0  0  0
    4.1041    7.1083   15.5549 C   0  0  0  0  0  0  0  0  0  0  0  0
    2.9761    7.5300   14.6690 C   0  0  0  0  0  0  0  0  0  0  0  0
    2.1648    6.2859   14.3457 C   0  0  0  0  0  0  0  0  0  0  0  0
    3.0144    5.1886   14.7042 N   0  0  0  0  0  0  0  0  0  0  0  0
    3.0366    3.8375   14.1896 C   0  0  0  0  0  0  0  0  0  0  0  0
    3.8316    3.0493   14.6738 O   0  0  0  0  0  0  0  0  0  0  0  0
    4.1875    5.0907   18.2202 N   0  0  0  0  0  0  0  0  0  0  0  0
    3.3752    5.2568   17.0764 C   0  0  0  0  0  0  0  0  0  0  0  0
    2.1384    5.0677   17.1804 O   0  0  0  0  0  0  0  0  0  0  0  0
    5.2331    5.2421   18.2038 H   0  0  0  0  0  0  0  0  0  0  0  0
    4.3055    3.3828   19.9577 C   0  0  0  0  0  0  0  0  0  0  0  0
    3.6593    4.6953   19.5296 C   0  0  0  0  0  0  0  0  0  0  0  0
    3.9113    5.7545   20.5293 C   0  0  0  0  0  0  0  0  0  0  0  0
    3.9520    7.0783   20.1524 O   0  0  0  0  0  0  0  0  0  0  0  0
    4.0888    5.4465   21.7230 O   0  0  0  0  0  0  0  0  0  0  0  0
    3.1640    7.6584   19.9275 H   0  0  0  0  0  0  0  0  0  0  0  0
    3.6655    4.1095    9.5934 C   0  0  0  0  0  0  0  0  0  0  0  0
    3.4840    5.3692    8.9139 N   0  0  0  0  0  0  0  0  0  0  0  0
    2.3124    5.6511    8.1962 C   0  0  0  0  0  0  0  0  0  0  0  0
    2.1357    6.9509    7.4923 C   0  0  0  0  0  0  0  0  0  0  0  0
    1.4024    4.7947    8.1468 O   0  0  0  0  0  0  0  0  0  0  0  0
    4.2341    6.1016    8.9587 H   0  0  0  0  0  0  0  0  0  0  0  0
    5.0577    3.6269    9.2345 C   0  0  0  0  0  0  0  0  0  0  0  0
    5.1868    2.1712    9.1396 C   0  0  0  0  0  0  0  0  0  0  0  0
    6.3943    1.5170    8.9779 C   0  0  0  0  0  0  0  0  0  0  0  0
    6.4834    0.1432    8.9011 C   0  0  0  0  0  0  0  0  0  0  0  0
    5.3524   -0.6321    8.9847 C   0  0  0  0  0  0  0  0  0  0  0  0
    4.1223   -0.0099    9.1472 C   0  0  0  0  0  0  0  0  0  0  0  0
    4.0678    1.3818    9.2210 C   0  0  0  0  0  0  0  0  0  0  0  0
 19 20  1  0  0  0
 20 15  1  0  0  0
 15 16  1  0  0  0
 16 17  2  0  0  0
 16  8  1  0  0  0
  8  9  1  0  0  0
  9 10  1  0  0  0
 10 11  1  0  0  0
 11 12  1  0  0  0
 12 13  1  0  0  0
 13 14  2  0  0  0
 13  1  1  0  0  0
  1  2  1  0  0  0
  2  3  1  0  0  0
  3  4  1  0  0  0
  4  5  1  0  0  0
  5  6  1  0  0  0
  6  7  2  0  0  0
  6 25  1  0  0  0
 25 31  1  0  0  0
 31 32  1  0  0  0
 32 33  2  0  0  0
 33 34  1  0  0  0
 34 35  2  0  0  0
 35 36  1  0  0  0
 36 37  2  0  0  0
 25 26  1  0  0  0
 26 27  1  0  0  0
 27 28  1  0  0  0
 27 29  2  0  0  0
 20 21  1  0  0  0
 21 22  1  0  0  0
 21 23  2  0  0  0
 12  8  1  0  0  0
  5  1  1  0  0  0
 37 32  1  0  0  0
 15 18  1  0  0  0
 26 30  1  0  0  0
 22 24  1  0  0  0
M  END
> <minimizedAffinity>
-6.47759

> <CNNscore>
0.1933173984

> <CNNaffinity>
5.7011861801

> <CNN_VS>
1.1021385193

> <CNNaffinity_variance>
0.0579322278

$$$$
[H]OC(=O)[C@@]([H])(N([H])C(=O)[C@@]1([H])N(C(=O)[C@@]2([H])N(C(=O)[C@@]([H])(N([H])C(=O)C([H])([H])[H])C([H])([H])c3c([H])c([H])c([H])c([H])c3[H])C([H])([H])C([H])([H])C2([H])[H])C([H])([H])C([H])([H])C1([H])[H])C([H])([H])[H]


 37 39  0  0  0  0  0  0  0  0999 V2000
    3.8831    3.6373   18.6138 C   0  0  0  0  0  0  0  0  0  0  0  0
    5.4384    3.4364   18.4953 C   0  0  0  0  0  0  0  0  0  0  0  0
    5.6071    2.9001   17.0771 C   0  0  0  0  0  0  0  0  0  0  0  0
    4.2004    2.6404   16.6161 C   0  0  0  0  0  0  0  0  0  0  0  0
    3.5358    3.8161   17.2634 N   0  0  0  0  0  0  0  0  0  0  0  0
    2.7389    4.7085   16.5551 C   0  0  0  0  0  0  0  0  0  0  0  0
    1.9882    5.5919   17.0937 O   0  0  0  0  0  0  0  0  0  0  0  0
    3.9059    5.3189   22.0552 C   0  0  0  0  0  0  0  0  0  0  0  0
    3.8501    4.5028   23.2994 C   0  0  0  0  0  0  0  0  0  0  0  0
    4.4420    3.1822   22.9243 C   0  0  0  0  0  0  0  0  0  0  0  0
    4.8056    3.2514   21.4501 C   0  0  0  0  0  0  0  0  0  0  0  0
    4.0987    4.3932   20.9494 N   0  0  0  0  0  0  0  0  0  0  0  0
    3.6370    4.6727   19.6079 C   0  0  0  0  0  0  0  0  0  0  0  0
    3.0822    5.7386   19.3995 O   0  0  0  0  0  0  0  0  0  0  0  0
    6.1807    6.2265   22.7419 N   0  0  0  0  0  0  0  0  0  0  0  0
    4.9662    6.3525   22.0315 C   0  0  0  0  0  0  0  0  0  0  0  0
    4.7705    7.3864   21.3469 O   0  0  0  0  0  0  0  0  0  0  0  0
    6.4123    5.3795   23.3297 H   0  0  0  0  0  0  0  0  0  0  0  0
    7.2361    7.9788   24.0705 C   0  0  0  0  0  0  0  0  0  0  0  0
    7.2278    7.2528   22.7303 C   0  0  0  0  0  0  0  0  0  0  0  0
    8.5460    6.6425   22.4563 C   0  0  0  0  0  0  0  0  0  0  0  0
    9.2911    7.0426   21.3696 O   0  0  0  0  0  0  0  0  0  0  0  0
    8.9860    5.7582   23.2150 O   0  0  0  0  0  0  0  0  0  0  0  0
    9.8140    7.8958   21.2871 H   0  0  0  0  0  0  0  0  0  0  0  0
    2.6787    4.7303   15.0611 C   0  0  0  0  0  0  0  0  0  0  0  0
    1.7153    3.7733   14.5737 N   0  0  0  0  0  0  0  0  0  0  0  0
    2.0338    2.8729   13.5466 C   0  0  0  0  0  0  0  0  0  0  0  0
    1.0317    1.8929   13.0448 C   0  0  0  0  0  0  0  0  0  0  0  0
    3.1787    2.8958   13.0440 O   0  0  0  0  0  0  0  0  0  0  0  0
    0.7555    3.7346   14.9960 H   0  0  0  0  0  0  0  0  0  0  0  0
    2.2507    6.0810   14.5206 C   0  0  0  0  0  0  0  0  0  0  0  0
    3.3459    6.8921   13.9846 C   0  0  0  0  0  0  0  0  0  0  0  0
    3.7730    6.8325   12.6708 C   0  0  0  0  0  0  0  0  0  0  0  0
    4.8021    7.6168   12.1944 C   0  0  0  0  0  0  0  0  0  0  0  0
    5.4467    8.4986   13.0275 C   0  0  0  0  0  0  0  0  0  0  0  0
    5.0449    8.5856   14.3534 C   0  0  0  0  0  0  0  0  0  0  0  0
    4.0006    7.7777   14.8027 C   0  0  0  0  0  0  0  0  0  0  0  0
 19 20  1  0  0  0
 20 15  1  0  0  0
 15 16  1  0  0  0
 16 17  2  0  0  0
 16  8  1  0  0  0
  8  9  1  0  0  0
  9 10  1  0  0  0
 10 11  1  0  0  0
 11 12  1  0  0  0
 12 13  1  0  0  0
 13 14  2  0  0  0
 13  1  1  0  0  0
  1  2  1  0  0  0
  2  3  1  0  0  0
  3  4  1  0  0  0
  4  5  1  0  0  0
  5  6  1  0  0  0
  6  7  2  0  0  0
  6 25  1  0  0  0
 25 31  1  0  0  0
 31 32  1  0  0  0
 32 33  2  0  0  0
 33 34  1  0  0  0
 34 35  2  0  0  0
 35 36  1  0  0  0
 36 37  2  0  0  0
 25 26  1  0  0  0
 26 27  1  0  0  0
 27 28  1  0  0  0
 27 29  2  0  0  0
 20 21  1  0  0  0
 21 22  1  0  0  0
 21 23  2  0  0  0
 12  8  1  0  0  0
  5  1  1  0  0  0
 37 32  1  0  0  0
 15 18  1  0  0  0
 26 30  1  0  0  0
 22 24  1  0  0  0
M  END
> <minimizedAffinity>
-7.19719

> <CNNscore>
0.1929871589

> <CNNaffinity>
5.7259974480

> <CNN_VS>
1.1050440073

> <CNNaffinity_variance>
0.4379874170

$$$$
[H]OC(=O)[C@@]([H])(N([H])C(=O)[C@@]1([H])N(C(=O)[C@@]2([H])N(C(=O)[C@@]([H])(N([H])C(=O)C([H])([H])[H])C([H])([H])c3c([H])c([H])c([H])c([H])c3[H])C([H])([H])C([H])([H])C2([H])[H])C([H])([H])C([H])([H])C1([H])[H])C([H])([H])[H]


 37 39  0  0  0  0  0  0  0  0999 V2000
    3.7606    5.1925   14.8943 C   0  0  0  0  0  0  0  0  0  0  0  0
    3.3968    6.6946   14.6034 C   0  0  0  0  0  0  0  0  0  0  0  0
    3.4828    6.7793   13.0826 C   0  0  0  0  0  0  0  0  0  0  0  0
    4.0751    5.4588   12.6771 C   0  0  0  0  0  0  0  0  0  0  0  0
    3.3836    4.5894   13.6816 N   0  0  0  0  0  0  0  0  0  0  0  0
    2.6632    3.4565   13.3204 C   0  0  0  0  0  0  0  0  0  0  0  0
    2.2400    2.5756   14.1446 O   0  0  0  0  0  0  0  0  0  0  0  0
    3.4168    3.4478   18.2868 C   0  0  0  0  0  0  0  0  0  0  0  0
    4.0650    2.1299   18.5319 C   0  0  0  0  0  0  0  0  0  0  0  0
    5.2334    2.0927   17.6000 C   0  0  0  0  0  0  0  0  0  0  0  0
    5.2215    3.3893   16.8069 C   0  0  0  0  0  0  0  0  0  0  0  0
    3.9094    3.9308   17.0058 N   0  0  0  0  0  0  0  0  0  0  0  0
    3.1423    4.8157   16.1577 C   0  0  0  0  0  0  0  0  0  0  0  0
    2.0470    5.1831   16.5490 O   0  0  0  0  0  0  0  0  0  0  0  0
    4.6735    4.3464   20.3075 N   0  0  0  0  0  0  0  0  0  0  0  0
    3.6593    4.4687   19.3318 C   0  0  0  0  0  0  0  0  0  0  0  0
    2.9260    5.4876   19.3462 O   0  0  0  0  0  0  0  0  0  0  0  0
    5.3301    3.5195   20.3469 H   0  0  0  0  0  0  0  0  0  0  0  0
    4.0469    5.0247   22.5651 C   0  0  0  0  0  0  0  0  0  0  0  0
    4.9091    5.3493   21.3508 C   0  0  0  0  0  0  0  0  0  0  0  0
    6.3404    5.3856   21.7184 C   0  0  0  0  0  0  0  0  0  0  0  0
    6.8782    4.4177   22.5371 O   0  0  0  0  0  0  0  0  0  0  0  0
    7.0658    6.3001   21.2842 O   0  0  0  0  0  0  0  0  0  0  0  0
    7.1026    3.4744   22.2768 H   0  0  0  0  0  0  0  0  0  0  0  0
    2.2985    3.1465   11.9037 C   0  0  0  0  0  0  0  0  0  0  0  0
    2.6790    1.7977   11.5607 N   0  0  0  0  0  0  0  0  0  0  0  0
    3.2787    1.4976   10.3289 C   0  0  0  0  0  0  0  0  0  0  0  0
    3.6622    0.1021    9.9800 C   0  0  0  0  0  0  0  0  0  0  0  0
    3.4931    2.4186    9.5105 O   0  0  0  0  0  0  0  0  0  0  0  0
    2.5170    1.0179   12.2438 H   0  0  0  0  0  0  0  0  0  0  0  0
    0.8054    3.2453   11.6574 C   0  0  0  0  0  0  0  0  0  0  0  0
    0.2488    4.5862   11.8492 C   0  0  0  0  0  0  0  0  0  0  0  0
    0.6964    5.7066   11.1735 C   0  0  0  0  0  0  0  0  0  0  0  0
    0.1446    6.9548   11.3700 C   0  0  0  0  0  0  0  0  0  0  0  0
   -0.8871    7.1259   12.2608 C   0  0  0  0  0  0  0  0  0  0  0  0
   -1.3627    6.0235   12.9574 C   0  0  0  0  0  0  0  0  0  0  0  0
   -0.7817    4.7751   12.7348 C   0  0  0  0  0  0  0  0  0  0  0  0
 19 20  1  0  0  0
 20 15  1  0  0  0
 15 16  1  0  0  0
 16 17  2  0  0  0
 16  8  1  0  0  0
  8  9  1  0  0  0
  9 10  1  0  0  0
 10 11  1  0  0  0
 11 12  1  0  0  0
 12 13  1  0  0  0
 13 14  2  0  0  0
 13  1  1  0  0  0
  1  2  1  0  0  0
  2  3  1  0  0  0
  3  4  1  0  0  0
  4  5  1  0  0  0
  5  6  1  0  0  0
  6  7  2  0  0  0
  6 25  1  0  0  0
 25 31  1  0  0  0
 31 32  1  0  0  0
 32 33  2  0  0  0
 33 34  1  0  0  0
 34 35  2  0  0  0
 35 36  1  0  0  0
 36 37  2  0  0  0
 25 26  1  0  0  0
 26 27  1  0  0  0
 27 28  1  0  0  0
 27 29  2  0  0  0
 20 21  1  0  0  0
 21 22  1  0  0  0
 21 23  2  0  0  0
 12  8  1  0  0  0
  5  1  1  0  0  0
 37 32  1  0  0  0
 15 18  1  0  0  0
 26 30  1  0  0  0
 22 24  1  0  0  0
M  END
> <minimizedAffinity>
-6.58387

> <CNNscore>
0.1857130975

> <CNNaffinity>
5.7043972015

> <CNN_VS>
1.0593812466

> <CNNaffinity_variance>
0.1009349003

$$$$
[H]c1c([H])c([H])c(N([H])C(=O)N([H])c2c([H])c([H])c(C(=O)N([H])C3([H])C([H])([H])C([H])([H])N(S(=O)(=O)C([H])(C([H])([H])[H])C([H])([H])[H])C([H])([H])C3([H])[H])c([H])c2[H])c(OC(F)(F)F)c1[H]


 39 41  0  0  0  0  0  0  0  0999 V2000
    1.9147    3.0564   13.6001 C   0  0  0  0  0  0  0  0  0  0  0  0
    2.6447    4.0853   14.1777 C   0  0  0  0  0  0  0  0  0  0  0  0
    3.4751    3.8753   15.2426 C   0  0  0  0  0  0  0  0  0  0  0  0
    3.6551    2.6099   15.8332 C   0  0  0  0  0  0  0  0  0  0  0  0
    2.9270    1.6048   15.2514 C   0  0  0  0  0  0  0  0  0  0  0  0
    2.0710    1.8155   14.1551 C   0  0  0  0  0  0  0  0  0  0  0  0
    4.5120    2.4616   16.9293 N   0  0  0  0  0  0  0  0  0  0  0  0
    4.2948    2.8155   18.2853 C   0  0  0  0  0  0  0  0  0  0  0  0
    3.2089    3.3291   18.6019 O   0  0  0  0  0  0  0  0  0  0  0  0
    5.2837    2.5902   19.2440 N   0  0  0  0  0  0  0  0  0  0  0  0
    5.4654    2.0202   16.7027 H   0  0  0  0  0  0  0  0  0  0  0  0
    6.1728    2.1198   18.8599 H   0  0  0  0  0  0  0  0  0  0  0  0
    5.2549    2.8630   20.6066 C   0  0  0  0  0  0  0  0  0  0  0  0
    5.4081    4.1133   21.1608 C   0  0  0  0  0  0  0  0  0  0  0  0
    5.3032    4.3160   22.5462 C   0  0  0  0  0  0  0  0  0  0  0  0
    5.0445    3.2914   23.4182 C   0  0  0  0  0  0  0  0  0  0  0  0
    4.8925    2.0445   22.8643 C   0  0  0  0  0  0  0  0  0  0  0  0
    4.9911    1.8187   21.5169 C   0  0  0  0  0  0  0  0  0  0  0  0
    4.8392    0.5324   20.9836 O   0  0  0  0  0  0  0  0  0  0  0  0
    3.5327    0.0442   20.8353 C   0  0  0  0  0  0  0  0  0  0  0  0
    3.3008   -1.1949   21.3650 F   0  0  0  0  0  0  0  0  0  0  0  0
    2.6438    0.9111   21.4862 F   0  0  0  0  0  0  0  0  0  0  0  0
    3.1719   -0.0338   19.4853 F   0  0  0  0  0  0  0  0  0  0  0  0
    0.1645    4.4183   12.4858 N   0  0  0  0  0  0  0  0  0  0  0  0
    1.0388    3.3071   12.4611 C   0  0  0  0  0  0  0  0  0  0  0  0
    1.0705    2.5188   11.4498 O   0  0  0  0  0  0  0  0  0  0  0  0
    0.1209    5.0685   13.2835 H   0  0  0  0  0  0  0  0  0  0  0  0
   -2.1470    5.4166    9.4119 N   0  0  0  0  0  0  0  0  0  0  0  0
   -2.9199    5.5480   10.6330 C   0  0  0  0  0  0  0  0  0  0  0  0
   -2.1160    4.8906   11.7234 C   0  0  0  0  0  0  0  0  0  0  0  0
   -0.6938    4.6124   11.3015 C   0  0  0  0  0  0  0  0  0  0  0  0
   -0.0582    5.6788   10.4822 C   0  0  0  0  0  0  0  0  0  0  0  0
   -1.0432    6.3048    9.5204 C   0  0  0  0  0  0  0  0  0  0  0  0
   -3.0692    5.5329    8.0093 S   0  0  0  0  0  0  0  0  0  0  0  0
   -4.4805    5.9354    8.4203 O   0  0  0  0  0  0  0  0  0  0  0  0
   -2.5946    6.6148    7.0852 O   0  0  0  0  0  0  0  0  0  0  0  0
   -3.0881    2.8021    7.9156 C   0  0  0  0  0  0  0  0  0  0  0  0
   -3.2265    4.0490    7.0733 C   0  0  0  0  0  0  0  0  0  0  0  0
   -4.4380    4.0303    6.1836 C   0  0  0  0  0  0  0  0  0  0  0  0
 37 38  1  0  0  0
 38 39  1  0  0  0
 38 34  1  0  0  0
 34 35  2  0  0  0
 34 36  2  0  0  0
 34 28  1  0  0  0
 28 29  1  0  0  0
 29 30  1  0  0  0
 30 31  1  0  0  0
 31 32  1  0  0  0
 32 33  1  0  0  0
 31 24  1  0  0  0
 24 25  1  0  0  0
 25 26  2  0  0  0
 25  1  1  0  0  0
  1  2  2  0  0  0
  2  3  1  0  0  0
  3  4  2  0  0  0
  4  7  1  0  0  0
  7  8  1  0  0  0
  8  9  2  0  0  0
  8 10  1  0  0  0
 10 13  1  0  0  0
 13 14  2  0  0  0
 14 15  1  0  0  0
 15 16  2  0  0  0
 16 17  1  0  0  0
 17 18  2  0  0  0
 18 19  1  0  0  0
 19 20  1  0  0  0
 20 21  1  0  0  0
 20 22  1  0  0  0
 20 23  1  0  0  0
  4  5  1  0  0  0
  5  6  2  0  0  0
 33 28  1  0  0  0
  6  1  1  0  0  0
 18 13  1  0  0  0
 24 27  1  0  0  0
  7 11  1  0  0  0
 10 12  1  0  0  0
M  END
> <minimizedAffinity>
-7.50051

> <CNNscore>
0.3903957903

> <CNNaffinity>
6.0051937103

> <CNN_VS>
2.3444023132

> <CNNaffinity_variance>
0.1147098914

$$$$
[H]c1c([H])c([H])c(N([H])C(=O)N([H])c2c([H])c([H])c(C(=O)N([H])C3([H])C([H])([H])C([H])([H])N(S(=O)(=O)C([H])(C([H])([H])[H])C([H])([H])[H])C([H])([H])C3([H])[H])c([H])c2[H])c(OC(F)(F)F)c1[H]


 39 41  0  0  0  0  0  0  0  0999 V2000
    1.2663    6.2034   13.4364 C   0  0  0  0  0  0  0  0  0  0  0  0
    1.3440    4.9883   14.1017 C   0  0  0  0  0  0  0  0  0  0  0  0
    2.2815    4.7494   15.0670 C   0  0  0  0  0  0  0  0  0  0  0  0
    3.2345    5.7084   15.4603 C   0  0  0  0  0  0  0  0  0  0  0  0
    3.1445    6.9026   14.7936 C   0  0  0  0  0  0  0  0  0  0  0  0
    2.1814    7.1537   13.7994 C   0  0  0  0  0  0  0  0  0  0  0  0
    4.1760    5.3992   16.4480 N   0  0  0  0  0  0  0  0  0  0  0  0
    4.0257    5.4115   17.8581 C   0  0  0  0  0  0  0  0  0  0  0  0
    2.9253    5.7300   18.3388 O   0  0  0  0  0  0  0  0  0  0  0  0
    5.0952    5.0721   18.6881 N   0  0  0  0  0  0  0  0  0  0  0  0
    5.1450    5.1172   16.0782 H   0  0  0  0  0  0  0  0  0  0  0  0
    5.9916    4.7915   18.1618 H   0  0  0  0  0  0  0  0  0  0  0  0
    5.1395    5.0230   20.0765 C   0  0  0  0  0  0  0  0  0  0  0  0
    5.7031    5.9884   20.8791 C   0  0  0  0  0  0  0  0  0  0  0  0
    5.6514    5.8957   22.2792 C   0  0  0  0  0  0  0  0  0  0  0  0
    5.0429    4.8495   22.9214 C   0  0  0  0  0  0  0  0  0  0  0  0
    4.4818    3.8867   22.1197 C   0  0  0  0  0  0  0  0  0  0  0  0
    4.5188    3.9519   20.7520 C   0  0  0  0  0  0  0  0  0  0  0  0
    3.9439    2.9484   19.9619 O   0  0  0  0  0  0  0  0  0  0  0  0
    4.6446    1.7392   19.8417 C   0  0  0  0  0  0  0  0  0  0  0  0
    5.8791    1.7104   20.4288 F   0  0  0  0  0  0  0  0  0  0  0  0
    3.9048    0.7190   20.4559 F   0  0  0  0  0  0  0  0  0  0  0  0
    4.8423    1.4003   18.4983 F   0  0  0  0  0  0  0  0  0  0  0  0
   -0.7883    5.4924   12.2393 N   0  0  0  0  0  0  0  0  0  0  0  0
    0.2528    6.4335   12.4130 C   0  0  0  0  0  0  0  0  0  0  0  0
    0.3155    7.4858   11.6822 O   0  0  0  0  0  0  0  0  0  0  0  0
   -0.8639    4.6409   12.8140 H   0  0  0  0  0  0  0  0  0  0  0  0
   -3.7091    5.9048    9.5772 N   0  0  0  0  0  0  0  0  0  0  0  0
   -2.9483    4.7140    9.2475 C   0  0  0  0  0  0  0  0  0  0  0  0
   -1.6986    4.7562   10.0866 C   0  0  0  0  0  0  0  0  0  0  0  0
   -1.7787    5.7869   11.1862 C   0  0  0  0  0  0  0  0  0  0  0  0
   -3.1011    5.8907   11.8592 C   0  0  0  0  0  0  0  0  0  0  0  0
   -4.2404    5.7117   10.8808 C   0  0  0  0  0  0  0  0  0  0  0  0
   -4.8007    6.3651    8.3822 S   0  0  0  0  0  0  0  0  0  0  0  0
   -4.9802    5.1782    7.4432 O   0  0  0  0  0  0  0  0  0  0  0  0
   -6.1681    6.6623    8.9221 O   0  0  0  0  0  0  0  0  0  0  0  0
   -2.8069    7.9162    7.3402 C   0  0  0  0  0  0  0  0  0  0  0  0
   -4.3054    7.7250    7.3781 C   0  0  0  0  0  0  0  0  0  0  0  0
   -4.9357    7.7197    6.0134 C   0  0  0  0  0  0  0  0  0  0  0  0
 37 38  1  0  0  0
 38 39  1  0  0  0
 38 34  1  0  0  0
 34 35  2  0  0  0
 34 36  2  0  0  0
 34 28  1  0  0  0
 28 29  1  0  0  0
 29 30  1  0  0  0
 30 31  1  0  0  0
 31 32  1  0  0  0
 32 33  1  0  0  0
 31 24  1  0  0  0
 24 25  1  0  0  0
 25 26  2  0  0  0
 25  1  1  0  0  0
  1  2  2  0  0  0
  2  3  1  0  0  0
  3  4  2  0  0  0
  4  7  1  0  0  0
  7  8  1  0  0  0
  8  9  2  0  0  0
  8 10  1  0  0  0
 10 13  1  0  0  0
 13 14  2  0  0  0
 14 15  1  0  0  0
 15 16  2  0  0  0
 16 17  1  0  0  0
 17 18  2  0  0  0
 18 19  1  0  0  0
 19 20  1  0  0  0
 20 21  1  0  0  0
 20 22  1  0  0  0
 20 23  1  0  0  0
  4  5  1  0  0  0
  5  6  2  0  0  0
 33 28  1  0  0  0
  6  1  1  0  0  0
 18 13  1  0  0  0
 24 27  1  0  0  0
  7 11  1  0  0  0
 10 12  1  0  0  0
M  END
> <minimizedAffinity>
-7.53266

> <CNNscore>
0.3508565426

> <CNNaffinity>
5.5530381203

> <CNN_VS>
1.9483197927

> <CNNaffinity_variance>
0.4625863433

$$$$
[H]c1c([H])c([H])c(N([H])C(=O)N([H])c2c([H])c([H])c(C(=O)N([H])C3([H])C([H])([H])C([H])([H])N(S(=O)(=O)C([H])(C([H])([H])[H])C([H])([H])[H])C([H])([H])C3([H])[H])c([H])c2[H])c(OC(F)(F)F)c1[H]


 39 41  0  0  0  0  0  0  0  0999 V2000
    2.6782    3.4029   13.4192 C   0  0  0  0  0  0  0  0  0  0  0  0
    2.5442    2.1997   14.0972 C   0  0  0  0  0  0  0  0  0  0  0  0
    3.1453    1.9773   15.3042 C   0  0  0  0  0  0  0  0  0  0  0  0
    3.9409    2.9425   15.9508 C   0  0  0  0  0  0  0  0  0  0  0  0
    4.0633    4.1248   15.2683 C   0  0  0  0  0  0  0  0  0  0  0  0
    3.4466    4.3589   14.0257 C   0  0  0  0  0  0  0  0  0  0  0  0
    4.5385    2.6503   17.1816 N   0  0  0  0  0  0  0  0  0  0  0  0
    4.1944    3.1216   18.4742 C   0  0  0  0  0  0  0  0  0  0  0  0
    3.2349    3.9022   18.5894 O   0  0  0  0  0  0  0  0  0  0  0  0
    4.9214    2.7148   19.5939 N   0  0  0  0  0  0  0  0  0  0  0  0
    5.3747    1.9770   17.1310 H   0  0  0  0  0  0  0  0  0  0  0  0
    5.7153    2.0205   19.3774 H   0  0  0  0  0  0  0  0  0  0  0  0
    4.7356    3.0619   20.9269 C   0  0  0  0  0  0  0  0  0  0  0  0
    4.6702    4.3522   21.4010 C   0  0  0  0  0  0  0  0  0  0  0  0
    4.4165    4.6207   22.7556 C   0  0  0  0  0  0  0  0  0  0  0  0
    4.2211    3.6240   23.6751 C   0  0  0  0  0  0  0  0  0  0  0  0
    4.2873    2.3372   23.2012 C   0  0  0  0  0  0  0  0  0  0  0  0
    4.5343    2.0473   21.8855 C   0  0  0  0  0  0  0  0  0  0  0  0
    4.6040    0.7229   21.4350 O   0  0  0  0  0  0  0  0  0  0  0  0
    3.3982    0.0901   21.0986 C   0  0  0  0  0  0  0  0  0  0  0  0
    3.0570    0.1335   19.7752 F   0  0  0  0  0  0  0  0  0  0  0  0
    3.4886   -1.2700   21.4261 F   0  0  0  0  0  0  0  0  0  0  0  0
    2.3219    0.6471   21.7985 F   0  0  0  0  0  0  0  0  0  0  0  0
    1.5700    4.9100   11.7882 N   0  0  0  0  0  0  0  0  0  0  0  0
    2.0221    3.6155   12.1340 C   0  0  0  0  0  0  0  0  0  0  0  0
    1.8624    2.6278   11.3313 O   0  0  0  0  0  0  0  0  0  0  0  0
    1.6879    5.7208   12.4125 H   0  0  0  0  0  0  0  0  0  0  0  0
   -0.1065    5.7768    8.2916 N   0  0  0  0  0  0  0  0  0  0  0  0
   -0.9690    6.2656    9.3513 C   0  0  0  0  0  0  0  0  0  0  0  0
   -0.4545    5.6683   10.6342 C   0  0  0  0  0  0  0  0  0  0  0  0
    0.9148    5.0538   10.4741 C   0  0  0  0  0  0  0  0  0  0  0  0
    1.8528    5.8185    9.6094 C   0  0  0  0  0  0  0  0  0  0  0  0
    1.1411    6.4427    8.4299 C   0  0  0  0  0  0  0  0  0  0  0  0
   -0.8151    5.8195    6.7660 S   0  0  0  0  0  0  0  0  0  0  0  0
   -2.3263    5.7836    6.9610 O   0  0  0  0  0  0  0  0  0  0  0  0
   -0.5344    7.0936    6.0261 O   0  0  0  0  0  0  0  0  0  0  0  0
    0.8380    4.7100    4.8944 C   0  0  0  0  0  0  0  0  0  0  0  0
   -0.4176    4.4737    5.7013 C   0  0  0  0  0  0  0  0  0  0  0  0
   -0.4331    3.1399    6.3945 C   0  0  0  0  0  0  0  0  0  0  0  0
 37 38  1  0  0  0
 38 39  1  0  0  0
 38 34  1  0  0  0
 34 35  2  0  0  0
 34 36  2  0  0  0
 34 28  1  0  0  0
 28 29  1  0  0  0
 29 30  1  0  0  0
 30 31  1  0  0  0
 31 32  1  0  0  0
 32 33  1  0  0  0
 31 24  1  0  0  0
 24 25  1  0  0  0
 25 26  2  0  0  0
 25  1  1  0  0  0
  1  2  2  0  0  0
  2  3  1  0  0  0
  3  4  2  0  0  0
  4  7  1  0  0  0
  7  8  1  0  0  0
  8  9  2  0  0  0
  8 10  1  0  0  0
 10 13  1  0  0  0
 13 14  2  0  0  0
 14 15  1  0  0  0
 15 16  2  0  0  0
 16 17  1  0  0  0
 17 18  2  0  0  0
 18 19  1  0  0  0
 19 20  1  0  0  0
 20 21  1  0  0  0
 20 22  1  0  0  0
 20 23  1  0  0  0
  4  5  1  0  0  0
  5  6  2  0  0  0
 33 28  1  0  0  0
  6  1  1  0  0  0
 18 13  1  0  0  0
 24 27  1  0  0  0
  7 11  1  0  0  0
 10 12  1  0  0  0
M  END
> <minimizedAffinity>
-7.42639

> <CNNscore>
0.3272244632

> <CNNaffinity>
5.9814329147

> <CNN_VS>
1.9572712183

> <CNNaffinity_variance>
0.2142938673

$$$$
[H]c1c([H])c([H])c(N([H])C(=O)N([H])c2c([H])c([H])c(C(=O)N([H])C3([H])C([H])([H])C([H])([H])N(S(=O)(=O)C([H])(C([H])([H])[H])C([H])([H])[H])C([H])([H])C3([H])[H])c([H])c2[H])c(OC(F)(F)F)c1[H]


 39 41  0  0  0  0  0  0  0  0999 V2000
    2.2821    3.4735   13.0500 C   0  0  0  0  0  0  0  0  0  0  0  0
    3.0635    4.4161   13.7026 C   0  0  0  0  0  0  0  0  0  0  0  0
    3.7295    4.1286   14.8609 C   0  0  0  0  0  0  0  0  0  0  0  0
    3.6769    2.8644   15.4786 C   0  0  0  0  0  0  0  0  0  0  0  0
    2.9010    1.9450   14.8218 C   0  0  0  0  0  0  0  0  0  0  0  0
    2.2135    2.2358   13.6293 C   0  0  0  0  0  0  0  0  0  0  0  0
    4.3732    2.6354   16.6704 N   0  0  0  0  0  0  0  0  0  0  0  0
    4.1742    3.2219   17.9462 C   0  0  0  0  0  0  0  0  0  0  0  0
    3.2671    4.0595   18.0836 O   0  0  0  0  0  0  0  0  0  0  0  0
    4.9834    2.8634   19.0253 N   0  0  0  0  0  0  0  0  0  0  0  0
    5.1687    1.9162   16.5995 H   0  0  0  0  0  0  0  0  0  0  0  0
    5.7203    2.1128   18.7952 H   0  0  0  0  0  0  0  0  0  0  0  0
    4.9399    3.3208   20.3371 C   0  0  0  0  0  0  0  0  0  0  0  0
    5.5877    4.4435   20.7995 C   0  0  0  0  0  0  0  0  0  0  0  0
    5.4425    4.8756   22.1275 C   0  0  0  0  0  0  0  0  0  0  0  0
    4.6552    4.2119   23.0312 C   0  0  0  0  0  0  0  0  0  0  0  0
    4.0100    3.0917   22.5690 C   0  0  0  0  0  0  0  0  0  0  0  0
    4.1351    2.6475   21.2793 C   0  0  0  0  0  0  0  0  0  0  0  0
    3.4698    1.4955   20.8409 O   0  0  0  0  0  0  0  0  0  0  0  0
    3.9721    0.2572   21.2671 C   0  0  0  0  0  0  0  0  0  0  0  0
    5.3270    0.1027   21.1670 F   0  0  0  0  0  0  0  0  0  0  0  0
    3.6662    0.0820   22.6240 F   0  0  0  0  0  0  0  0  0  0  0  0
    3.4038   -0.7962   20.5418 F   0  0  0  0  0  0  0  0  0  0  0  0
    0.2057    3.5195   11.6913 N   0  0  0  0  0  0  0  0  0  0  0  0
    1.5852    3.8056   11.8124 C   0  0  0  0  0  0  0  0  0  0  0  0
    2.2296    4.3533   10.8479 O   0  0  0  0  0  0  0  0  0  0  0  0
   -0.3361    3.0830   12.4508 H   0  0  0  0  0  0  0  0  0  0  0  0
   -1.9170    4.2549    8.4138 N   0  0  0  0  0  0  0  0  0  0  0  0
   -1.5746    2.8450    8.4357 C   0  0  0  0  0  0  0  0  0  0  0  0
   -0.5418    2.6702    9.5175 C   0  0  0  0  0  0  0  0  0  0  0  0
   -0.4361    3.8808   10.4128 C   0  0  0  0  0  0  0  0  0  0  0  0
   -1.7305    4.5303   10.7519 C   0  0  0  0  0  0  0  0  0  0  0  0
   -2.6863    4.5146    9.5800 C   0  0  0  0  0  0  0  0  0  0  0  0
   -2.5716    4.7716    6.9523 S   0  0  0  0  0  0  0  0  0  0  0  0
   -1.8603    4.0136    5.8377 O   0  0  0  0  0  0  0  0  0  0  0  0
   -4.0248    4.4294    6.8087 O   0  0  0  0  0  0  0  0  0  0  0  0
   -3.6903    7.2345    6.5657 C   0  0  0  0  0  0  0  0  0  0  0  0
   -2.3785    6.4850    6.5922 C   0  0  0  0  0  0  0  0  0  0  0  0
   -1.3301    7.1572    7.4342 C   0  0  0  0  0  0  0  0  0  0  0  0
 37 38  1  0  0  0
 38 39  1  0  0  0
 38 34  1  0  0  0
 34 35  2  0  0  0
 34 36  2  0  0  0
 34 28  1  0  0  0
 28 29  1  0  0  0
 29 30  1  0  0  0
 30 31  1  0  0  0
 31 32  1  0  0  0
 32 33  1  0  0  0
 31 24  1  0  0  0
 24 25  1  0  0  0
 25 26  2  0  0  0
 25  1  1  0  0  0
  1  2  2  0  0  0
  2  3  1  0  0  0
  3  4  2  0  0  0
  4  7  1  0  0  0
  7  8  1  0  0  0
  8  9  2  0  0  0
  8 10  1  0  0  0
 10 13  1  0  0  0
 13 14  2  0  0  0
 14 15  1  0  0  0
 15 16  2  0  0  0
 16 17  1  0  0  0
 17 18  2  0  0  0
 18 19  1  0  0  0
 19 20  1  0  0  0
 20 21  1  0  0  0
 20 22  1  0  0  0
 20 23  1  0  0  0
  4  5  1  0  0  0
  5  6  2  0  0  0
 33 28  1  0  0  0
  6  1  1  0  0  0
 18 13  1  0  0  0
 24 27  1  0  0  0
  7 11  1  0  0  0
 10 12  1  0  0  0
M  END
> <minimizedAffinity>
-7.46714

> <CNNscore>
0.3182487190

> <CNNaffinity>
5.9742407799

> <CNN_VS>
1.9012944698

> <CNNaffinity_variance>
0.2328331023

$$$$
[H]c1c([H])c([H])c(N([H])C(=O)N([H])c2c([H])c([H])c(C(=O)N([H])C3([H])C([H])([H])C([H])([H])N(S(=O)(=O)C([H])(C([H])([H])[H])C([H])([H])[H])C([H])([H])C3([H])[H])c([H])c2[H])c(OC(F)(F)F)c1[H]


 39 41  0  0  0  0  0  0  0  0999 V2000
    3.6988    6.8560   12.9710 C   0  0  0  0  0  0  0  0  0  0  0  0
    3.4784    5.7310   13.7525 C   0  0  0  0  0  0  0  0  0  0  0  0
    3.3978    5.7997   15.1151 C   0  0  0  0  0  0  0  0  0  0  0  0
    3.5303    7.0066   15.8282 C   0  0  0  0  0  0  0  0  0  0  0  0
    3.7477    8.1080   15.0419 C   0  0  0  0  0  0  0  0  0  0  0  0
    3.8314    8.0427   13.6391 C   0  0  0  0  0  0  0  0  0  0  0  0
    3.4486    7.0098   17.2250 N   0  0  0  0  0  0  0  0  0  0  0  0
    4.4094    7.4439   18.1734 C   0  0  0  0  0  0  0  0  0  0  0  0
    5.4911    7.8969   17.7633 O   0  0  0  0  0  0  0  0  0  0  0  0
    4.1427    7.3627   19.5409 N   0  0  0  0  0  0  0  0  0  0  0  0
    2.5282    6.6261   17.6261 H   0  0  0  0  0  0  0  0  0  0  0  0
    3.1665    6.9761   19.7788 H   0  0  0  0  0  0  0  0  0  0  0  0
    4.9485    7.7372   20.6098 C   0  0  0  0  0  0  0  0  0  0  0  0
    4.9764    8.9939   21.1699 C   0  0  0  0  0  0  0  0  0  0  0  0
    5.7736    9.2764   22.2908 C   0  0  0  0  0  0  0  0  0  0  0  0
    6.5617    8.3271   22.8863 C   0  0  0  0  0  0  0  0  0  0  0  0
    6.5336    7.0740   22.3262 C   0  0  0  0  0  0  0  0  0  0  0  0
    5.7663    6.7717   21.2325 C   0  0  0  0  0  0  0  0  0  0  0  0
    5.7662    5.4849   20.6795 O   0  0  0  0  0  0  0  0  0  0  0  0
    4.9625    4.5156   21.2975 C   0  0  0  0  0  0  0  0  0  0  0  0
    4.4791    4.8484   22.5325 F   0  0  0  0  0  0  0  0  0  0  0  0
    3.8364    4.2773   20.4972 F   0  0  0  0  0  0  0  0  0  0  0  0
    5.6570    3.3116   21.4607 F   0  0  0  0  0  0  0  0  0  0  0  0
    3.8001    7.9345   10.7380 N   0  0  0  0  0  0  0  0  0  0  0  0
    3.7761    6.7552   11.5180 C   0  0  0  0  0  0  0  0  0  0  0  0
    3.8219    5.5997   10.9630 O   0  0  0  0  0  0  0  0  0  0  0  0
    3.7673    8.8745   11.1578 H   0  0  0  0  0  0  0  0  0  0  0  0
    4.1717    7.9256    6.7819 N   0  0  0  0  0  0  0  0  0  0  0  0
    3.0473    8.7707    7.1384 C   0  0  0  0  0  0  0  0  0  0  0  0
    2.7633    8.5166    8.5952 C   0  0  0  0  0  0  0  0  0  0  0  0
    3.8783    7.7597    9.2750 C   0  0  0  0  0  0  0  0  0  0  0  0
    5.2521    8.1596    8.8688 C   0  0  0  0  0  0  0  0  0  0  0  0
    5.3248    8.4867    7.3941 C   0  0  0  0  0  0  0  0  0  0  0  0
    4.2799    7.5992    5.1348 S   0  0  0  0  0  0  0  0  0  0  0  0
    3.6995    6.2091    4.9035 O   0  0  0  0  0  0  0  0  0  0  0  0
    3.4493    8.5270    4.2988 O   0  0  0  0  0  0  0  0  0  0  0  0
    6.1473    6.4154    3.5291 C   0  0  0  0  0  0  0  0  0  0  0  0
    5.9094    7.5769    4.4660 C   0  0  0  0  0  0  0  0  0  0  0  0
    6.3363    8.8983    3.8904 C   0  0  0  0  0  0  0  0  0  0  0  0
 37 38  1  0  0  0
 38 39  1  0  0  0
 38 34  1  0  0  0
 34 35  2  0  0  0
 34 36  2  0  0  0
 34 28  1  0  0  0
 28 29  1  0  0  0
 29 30  1  0  0  0
 30 31  1  0  0  0
 31 32  1  0  0  0
 32 33  1  0  0  0
 31 24  1  0  0  0
 24 25  1  0  0  0
 25 26  2  0  0  0
 25  1  1  0  0  0
  1  2  2  0  0  0
  2  3  1  0  0  0
  3  4  2  0  0  0
  4  7  1  0  0  0
  7  8  1  0  0  0
  8  9  2  0  0  0
  8 10  1  0  0  0
 10 13  1  0  0  0
 13 14  2  0  0  0
 14 15  1  0  0  0
 15 16  2  0  0  0
 16 17  1  0  0  0
 17 18  2  0  0  0
 18 19  1  0  0  0
 19 20  1  0  0  0
 20 21  1  0  0  0
 20 22  1  0  0  0
 20 23  1  0  0  0
  4  5  1  0  0  0
  5  6  2  0  0  0
 33 28  1  0  0  0
  6  1  1  0  0  0
 18 13  1  0  0  0
 24 27  1  0  0  0
  7 11  1  0  0  0
 10 12  1  0  0  0
M  END
> <minimizedAffinity>
-7.07485

> <CNNscore>
0.2893982530

> <CNNaffinity>
5.1623730659

> <CNN_VS>
1.4939817190

> <CNNaffinity_variance>
0.4382230341

$$$$
[H]c1c([H])c([H])c(N([H])C(=O)N([H])c2c([H])c([H])c(C(=O)N([H])C3([H])C([H])([H])C([H])([H])N(S(=O)(=O)C([H])(C([H])([H])[H])C([H])([H])[H])C([H])([H])C3([H])[H])c([H])c2[H])c(OC(F)(F)F)c1[H]


 39 41  0  0  0  0  0  0  0  0999 V2000
    1.5999    6.7662   13.5992 C   0  0  0  0  0  0  0  0  0  0  0  0
    1.8469    5.6259   14.3502 C   0  0  0  0  0  0  0  0  0  0  0  0
    2.8942    5.5471   15.2246 C   0  0  0  0  0  0  0  0  0  0  0  0
    3.7978    6.6068   15.4319 C   0  0  0  0  0  0  0  0  0  0  0  0
    3.5402    7.7253   14.6826 C   0  0  0  0  0  0  0  0  0  0  0  0
    2.4635    7.8118   13.7813 C   0  0  0  0  0  0  0  0  0  0  0  0
    4.8573    6.4605   16.3339 N   0  0  0  0  0  0  0  0  0  0  0  0
    4.8934    6.7507   17.7216 C   0  0  0  0  0  0  0  0  0  0  0  0
    3.8690    7.1960   18.2655 O   0  0  0  0  0  0  0  0  0  0  0  0
    6.0587    6.5395   18.4600 N   0  0  0  0  0  0  0  0  0  0  0  0
    5.7662    6.0771   15.9073 H   0  0  0  0  0  0  0  0  0  0  0  0
    6.8751    6.1300   17.8900 H   0  0  0  0  0  0  0  0  0  0  0  0
    6.2842    6.7582   19.8140 C   0  0  0  0  0  0  0  0  0  0  0  0
    6.7374    7.9401   20.3540 C   0  0  0  0  0  0  0  0  0  0  0  0
    6.8799    8.1020   21.7415 C   0  0  0  0  0  0  0  0  0  0  0  0
    6.5787    7.1031   22.6296 C   0  0  0  0  0  0  0  0  0  0  0  0
    6.1274    5.9243   22.0896 C   0  0  0  0  0  0  0  0  0  0  0  0
    5.9804    5.7393   20.7404 C   0  0  0  0  0  0  0  0  0  0  0  0
    5.5252    4.5210   20.2205 O   0  0  0  0  0  0  0  0  0  0  0  0
    4.1587    4.2327   20.3505 C   0  0  0  0  0  0  0  0  0  0  0  0
    3.8459    3.2373   21.2342 F   0  0  0  0  0  0  0  0  0  0  0  0
    3.4917    5.3767   20.8108 F   0  0  0  0  0  0  0  0  0  0  0  0
    3.6021    3.8552   19.1232 F   0  0  0  0  0  0  0  0  0  0  0  0
   -0.5649    5.8697   12.7809 N   0  0  0  0  0  0  0  0  0  0  0  0
    0.4721    6.8254   12.6762 C   0  0  0  0  0  0  0  0  0  0  0  0
    0.4320    7.7426   11.7803 O   0  0  0  0  0  0  0  0  0  0  0  0
   -0.5591    5.1248   13.4923 H   0  0  0  0  0  0  0  0  0  0  0  0
   -3.7759    5.8372   10.4406 N   0  0  0  0  0  0  0  0  0  0  0  0
   -3.0289    4.6134   10.2170 C   0  0  0  0  0  0  0  0  0  0  0  0
   -1.6941    4.7956   10.8897 C   0  0  0  0  0  0  0  0  0  0  0  0
   -1.6744    5.9875   11.8155 C   0  0  0  0  0  0  0  0  0  0  0  0
   -2.9147    6.1895   12.6112 C   0  0  0  0  0  0  0  0  0  0  0  0
   -4.1523    5.8507   11.8107 C   0  0  0  0  0  0  0  0  0  0  0  0
   -5.0058    6.0955    9.3216 S   0  0  0  0  0  0  0  0  0  0  0  0
   -5.3964    4.7386    8.7480 O   0  0  0  0  0  0  0  0  0  0  0  0
   -6.2554    6.6456    9.9424 O   0  0  0  0  0  0  0  0  0  0  0  0
   -5.4000    8.3877    7.8872 C   0  0  0  0  0  0  0  0  0  0  0  0
   -4.5867    7.1156    7.9480 C   0  0  0  0  0  0  0  0  0  0  0  0
   -3.1086    7.3512    7.8087 C   0  0  0  0  0  0  0  0  0  0  0  0
 37 38  1  0  0  0
 38 39  1  0  0  0
 38 34  1  0  0  0
 34 35  2  0  0  0
 34 36  2  0  0  0
 34 28  1  0  0  0
 28 29  1  0  0  0
 29 30  1  0  0  0
 30 31  1  0  0  0
 31 32  1  0  0  0
 32 33  1  0  0  0
 31 24  1  0  0  0
 24 25  1  0  0  0
 25 26  2  0  0  0
 25  1  1  0  0  0
  1  2  2  0  0  0
  2  3  1  0  0  0
  3  4  2  0  0  0
  4  7  1  0  0  0
  7  8  1  0  0  0
  8  9  2  0  0  0
  8 10  1  0  0  0
 10 13  1  0  0  0
 13 14  2  0  0  0
 14 15  1  0  0  0
 15 16  2  0  0  0
 16 17  1  0  0  0
 17 18  2  0  0  0
 18 19  1  0  0  0
 19 20  1  0  0  0
 20 21  1  0  0  0
 20 22  1  0  0  0
 20 23  1  0  0  0
  4  5  1  0  0  0
  5  6  2  0  0  0
 33 28  1  0  0  0
  6  1  1  0  0  0
 18 13  1  0  0  0
 24 27  1  0  0  0
  7 11  1  0  0  0
 10 12  1  0  0  0
M  END
> <minimizedAffinity>
-7.72994

> <CNNscore>
0.2870763540

> <CNNaffinity>
5.3611788750

> <CNN_VS>
1.5390676260

> <CNNaffinity_variance>
0.4235003889

$$$$
[H]c1c([H])c([H])c(N([H])C(=O)N([H])c2c([H])c([H])c(C(=O)N([H])C3([H])C([H])([H])C([H])([H])N(S(=O)(=O)C([H])(C([H])([H])[H])C([H])([H])[H])C([H])([H])C3([H])[H])c([H])c2[H])c(OC(F)(F)F)c1[H]


 39 41  0  0  0  0  0  0  0  0999 V2000
    3.1054    3.2883   16.0913 C   0  0  0  0  0  0  0  0  0  0  0  0
    4.0224    2.9699   17.0828 C   0  0  0  0  0  0  0  0  0  0  0  0
    4.1579    3.7250   18.2138 C   0  0  0  0  0  0  0  0  0  0  0  0
    3.3849    4.8755   18.4615 C   0  0  0  0  0  0  0  0  0  0  0  0
    2.4845    5.1763   17.4728 C   0  0  0  0  0  0  0  0  0  0  0  0
    2.3409    4.4024   16.3068 C   0  0  0  0  0  0  0  0  0  0  0  0
    3.5785    5.6128   19.6347 N   0  0  0  0  0  0  0  0  0  0  0  0
    4.5601    6.5964   19.9179 C   0  0  0  0  0  0  0  0  0  0  0  0
    5.3868    6.8862   19.0371 O   0  0  0  0  0  0  0  0  0  0  0  0
    4.5948    7.2254   21.1633 N   0  0  0  0  0  0  0  0  0  0  0  0
    2.8848    5.3955   20.4263 H   0  0  0  0  0  0  0  0  0  0  0  0
    3.8172    6.9119   21.8387 H   0  0  0  0  0  0  0  0  0  0  0  0
    5.4685    8.2047   21.6210 C   0  0  0  0  0  0  0  0  0  0  0  0
    5.3906    9.5402   21.2980 C   0  0  0  0  0  0  0  0  0  0  0  0
    6.2752   10.4787   21.8530 C   0  0  0  0  0  0  0  0  0  0  0  0
    7.2574   10.1235   22.7397 C   0  0  0  0  0  0  0  0  0  0  0  0
    7.3346    8.7909   23.0606 C   0  0  0  0  0  0  0  0  0  0  0  0
    6.4855    7.8545   22.5331 C   0  0  0  0  0  0  0  0  0  0  0  0
    6.5959    6.5006   22.8746 O   0  0  0  0  0  0  0  0  0  0  0  0
    7.4508    5.7055   22.0972 C   0  0  0  0  0  0  0  0  0  0  0  0
    7.9662    6.3065   20.9824 F   0  0  0  0  0  0  0  0  0  0  0  0
    8.5553    5.3273   22.8734 F   0  0  0  0  0  0  0  0  0  0  0  0
    6.8008    4.5486   21.6526 F   0  0  0  0  0  0  0  0  0  0  0  0
    2.7506    3.0795   13.6438 N   0  0  0  0  0  0  0  0  0  0  0  0
    2.9781    2.4626   14.8957 C   0  0  0  0  0  0  0  0  0  0  0  0
    3.0741    1.1870   14.9916 O   0  0  0  0  0  0  0  0  0  0  0  0
    2.6723    4.1011   13.5382 H   0  0  0  0  0  0  0  0  0  0  0  0
    2.2577    1.0599   10.2576 N   0  0  0  0  0  0  0  0  0  0  0  0
    0.9504    1.3542   10.8144 C   0  0  0  0  0  0  0  0  0  0  0  0
    1.1824    1.8506   12.2170 C   0  0  0  0  0  0  0  0  0  0  0  0
    2.6312    2.1851   12.4764 C   0  0  0  0  0  0  0  0  0  0  0  0
    3.3361    2.8543   11.3505 C   0  0  0  0  0  0  0  0  0  0  0  0
    2.8955    2.3057   10.0118 C   0  0  0  0  0  0  0  0  0  0  0  0
    2.2196   -0.0296    8.9758 S   0  0  0  0  0  0  0  0  0  0  0  0
    1.2255   -1.1272    9.3362 O   0  0  0  0  0  0  0  0  0  0  0  0
    1.7048    0.5792    7.7055 O   0  0  0  0  0  0  0  0  0  0  0  0
    4.5395   -0.1376    7.5360 C   0  0  0  0  0  0  0  0  0  0  0  0
    3.7432   -0.8362    8.6136 C   0  0  0  0  0  0  0  0  0  0  0  0
    4.5559   -1.1540    9.8376 C   0  0  0  0  0  0  0  0  0  0  0  0
 37 38  1  0  0  0
 38 39  1  0  0  0
 38 34  1  0  0  0
 34 35  2  0  0  0
 34 36  2  0  0  0
 34 28  1  0  0  0
 28 29  1  0  0  0
 29 30  1  0  0  0
 30 31  1  0  0  0
 31 32  1  0  0  0
 32 33  1  0  0  0
 31 24  1  0  0  0
 24 25  1  0  0  0
 25 26  2  0  0  0
 25  1  1  0  0  0
  1  2  2  0  0  0
  2  3  1  0  0  0
  3  4  2  0  0  0
  4  7  1  0  0  0
  7  8  1  0  0  0
  8  9  2  0  0  0
  8 10  1  0  0  0
 10 13  1  0  0  0
 13 14  2  0  0  0
 14 15  1  0  0  0
 15 16  2  0  0  0
 16 17  1  0  0  0
 17 18  2  0  0  0
 18 19  1  0  0  0
 19 20  1  0  0  0
 20 21  1  0  0  0
 20 22  1  0  0  0
 20 23  1  0  0  0
  4  5  1  0  0  0
  5  6  2  0  0  0
 33 28  1  0  0  0
  6  1  1  0  0  0
 18 13  1  0  0  0
 24 27  1  0  0  0
  7 11  1  0  0  0
 10 12  1  0  0  0
M  END
> <minimizedAffinity>
-7.75034

> <CNNscore>
0.2428893298

> <CNNaffinity>
5.6672477722

> <CNN_VS>
1.3765139580

> <CNNaffinity_variance>
0.2107588500

$$$$
[H]c1c([H])c([H])c(N([H])C(=O)N([H])c2c([H])c([H])c(C(=O)N([H])C3([H])C([H])([H])C([H])([H])N(S(=O)(=O)C([H])(C([H])([H])[H])C([H])([H])[H])C([H])([H])C3([H])[H])c([H])c2[H])c(OC(F)(F)F)c1[H]


 39 41  0  0  0  0  0  0  0  0999 V2000
    2.6376    2.6107   12.9915 C   0  0  0  0  0  0  0  0  0  0  0  0
    3.1418    3.8464   13.3710 C   0  0  0  0  0  0  0  0  0  0  0  0
    3.2153    4.2276   14.6814 C   0  0  0  0  0  0  0  0  0  0  0  0
    2.7897    3.4044   15.7414 C   0  0  0  0  0  0  0  0  0  0  0  0
    2.2942    2.1878   15.3499 C   0  0  0  0  0  0  0  0  0  0  0  0
    2.2165    1.7906   14.0026 C   0  0  0  0  0  0  0  0  0  0  0  0
    2.8811    3.8565   17.0624 N   0  0  0  0  0  0  0  0  0  0  0  0
    3.9455    3.7004   17.9865 C   0  0  0  0  0  0  0  0  0  0  0  0
    4.9648    3.0887   17.6259 O   0  0  0  0  0  0  0  0  0  0  0  0
    3.8473    4.2249   19.2762 N   0  0  0  0  0  0  0  0  0  0  0  0
    2.0205    4.3926   17.4186 H   0  0  0  0  0  0  0  0  0  0  0  0
    2.9297    4.7540   19.4696 H   0  0  0  0  0  0  0  0  0  0  0  0
    4.7756    4.1772   20.3095 C   0  0  0  0  0  0  0  0  0  0  0  0
    5.7408    5.1300   20.5430 C   0  0  0  0  0  0  0  0  0  0  0  0
    6.6027    5.0411   21.6479 C   0  0  0  0  0  0  0  0  0  0  0  0
    6.5336    4.0113   22.5489 C   0  0  0  0  0  0  0  0  0  0  0  0
    5.5709    3.0611   22.3145 C   0  0  0  0  0  0  0  0  0  0  0  0
    4.7183    3.1228   21.2443 C   0  0  0  0  0  0  0  0  0  0  0  0
    3.7519    2.1323   21.0283 O   0  0  0  0  0  0  0  0  0  0  0  0
    4.1811    0.9227   20.4624 C   0  0  0  0  0  0  0  0  0  0  0  0
    5.4812    0.8962   20.0397 F   0  0  0  0  0  0  0  0  0  0  0  0
    4.0691   -0.0953   21.4197 F   0  0  0  0  0  0  0  0  0  0  0  0
    3.4018    0.5789   19.3520 F   0  0  0  0  0  0  0  0  0  0  0  0
    3.5815    2.6694   10.6969 N   0  0  0  0  0  0  0  0  0  0  0  0
    2.5744    2.2272   11.5857 C   0  0  0  0  0  0  0  0  0  0  0  0
    1.6078    1.4934   11.1703 O   0  0  0  0  0  0  0  0  0  0  0  0
    4.3698    3.2567   11.0044 H   0  0  0  0  0  0  0  0  0  0  0  0
    3.6820    1.7317    6.8370 N   0  0  0  0  0  0  0  0  0  0  0  0
    3.4974    3.1658    6.9594 C   0  0  0  0  0  0  0  0  0  0  0  0
    3.1746    3.4358    8.4052 C   0  0  0  0  0  0  0  0  0  0  0  0
    3.4557    2.2454    9.2893 C   0  0  0  0  0  0  0  0  0  0  0  0
    4.6936    1.4906    8.9573 C   0  0  0  0  0  0  0  0  0  0  0  0
    4.9177    1.4161    7.4635 C   0  0  0  0  0  0  0  0  0  0  0  0
    3.4632    1.1504    5.2732 S   0  0  0  0  0  0  0  0  0  0  0  0
    2.3557    1.9751    4.6280 O   0  0  0  0  0  0  0  0  0  0  0  0
    4.6693    1.3443    4.4029 O   0  0  0  0  0  0  0  0  0  0  0  0
    4.1355   -1.4877    5.0377 C   0  0  0  0  0  0  0  0  0  0  0  0
    2.9675   -0.5352    5.1473 C   0  0  0  0  0  0  0  0  0  0  0  0
    1.9679   -0.9429    6.1935 C   0  0  0  0  0  0  0  0  0  0  0  0
 37 38  1  0  0  0
 38 39  1  0  0  0
 38 34  1  0  0  0
 34 35  2  0  0  0
 34 36  2  0  0  0
 34 28  1  0  0  0
 28 29  1  0  0  0
 29 30  1  0  0  0
 30 31  1  0  0  0
 31 32  1  0  0  0
 32 33  1  0  0  0
 31 24  1  0  0  0
 24 25  1  0  0  0
 25 26  2  0  0  0
 25  1  1  0  0  0
  1  2  2  0  0  0
  2  3  1  0  0  0
  3  4  2  0  0  0
  4  7  1  0  0  0
  7  8  1  0  0  0
  8  9  2  0  0  0
  8 10  1  0  0  0
 10 13  1  0  0  0
 13 14  2  0  0  0
 14 15  1  0  0  0
 15 16  2  0  0  0
 16 17  1  0  0  0
 17 18  2  0  0  0
 18 19  1  0  0  0
 19 20  1  0  0  0
 20 21  1  0  0  0
 20 22  1  0  0  0
 20 23  1  0  0  0
  4  5  1  0  0  0
  5  6  2  0  0  0
 33 28  1  0  0  0
  6  1  1  0  0  0
 18 13  1  0  0  0
 24 27  1  0  0  0
  7 11  1  0  0  0
 10 12  1  0  0  0
M  END
> <minimizedAffinity>
-6.58678

> <CNNscore>
0.2251295894

> <CNNaffinity>
5.8502979279

> <CNN_VS>
1.3170751333

> <CNNaffinity_variance>
0.2018197775

$$$$
[H]c1c([H])c([H])c(N([H])C(=O)N([H])c2c([H])c([H])c(C(=O)N([H])C3([H])C([H])([H])C([H])([H])N(S(=O)(=O)C([H])(C([H])([H])[H])C([H])([H])[H])C([H])([H])C3([H])[H])c([H])c2[H])c(OC(F)(F)F)c1[H]


 39 41  0  0  0  0  0  0  0  0999 V2000
    3.3848    5.1105   12.9188 C   0  0  0  0  0  0  0  0  0  0  0  0
    3.6340    3.8305   13.3927 C   0  0  0  0  0  0  0  0  0  0  0  0
    3.5390    3.5180   14.7198 C   0  0  0  0  0  0  0  0  0  0  0  0
    3.1835    4.4610   15.7031 C   0  0  0  0  0  0  0  0  0  0  0  0
    2.9410    5.7201   15.2188 C   0  0  0  0  0  0  0  0  0  0  0  0
    3.0372    6.0470   13.8538 C   0  0  0  0  0  0  0  0  0  0  0  0
    3.1137    4.0813   17.0480 N   0  0  0  0  0  0  0  0  0  0  0  0
    4.1684    3.7568   17.9387 C   0  0  0  0  0  0  0  0  0  0  0  0
    5.3378    3.8025   17.5218 O   0  0  0  0  0  0  0  0  0  0  0  0
    3.8954    3.3930   19.2582 N   0  0  0  0  0  0  0  0  0  0  0  0
    2.1196    4.0283   17.4529 H   0  0  0  0  0  0  0  0  0  0  0  0
    2.8498    3.4101   19.5142 H   0  0  0  0  0  0  0  0  0  0  0  0
    4.7849    3.0480   20.2690 C   0  0  0  0  0  0  0  0  0  0  0  0
    5.5068    3.9467   21.0206 C   0  0  0  0  0  0  0  0  0  0  0  0
    6.3389    3.5205   22.0683 C   0  0  0  0  0  0  0  0  0  0  0  0
    6.4789    2.1986   22.4002 C   0  0  0  0  0  0  0  0  0  0  0  0
    5.7588    1.3030   21.6492 C   0  0  0  0  0  0  0  0  0  0  0  0
    4.9410    1.6914   20.6213 C   0  0  0  0  0  0  0  0  0  0  0  0
    4.2257    0.7516   19.8683 O   0  0  0  0  0  0  0  0  0  0  0  0
    3.2002    0.0485   20.5174 C   0  0  0  0  0  0  0  0  0  0  0  0
    2.5428    0.7351   21.5003 F   0  0  0  0  0  0  0  0  0  0  0  0
    2.2219   -0.3047   19.5774 F   0  0  0  0  0  0  0  0  0  0  0  0
    3.6872   -1.1196   21.1150 F   0  0  0  0  0  0  0  0  0  0  0  0
    3.6177    6.7613   11.0803 N   0  0  0  0  0  0  0  0  0  0  0  0
    3.4891    5.4160   11.4964 C   0  0  0  0  0  0  0  0  0  0  0  0
    3.4635    4.4627   10.6384 O   0  0  0  0  0  0  0  0  0  0  0  0
    3.6437    7.5453   11.7478 H   0  0  0  0  0  0  0  0  0  0  0  0
    4.1198    7.8158    7.2823 N   0  0  0  0  0  0  0  0  0  0  0  0
    3.1320    8.6954    7.8792 C   0  0  0  0  0  0  0  0  0  0  0  0
    2.7611    8.0876    9.2061 C   0  0  0  0  0  0  0  0  0  0  0  0
    3.7177    6.9988    9.6275 C   0  0  0  0  0  0  0  0  0  0  0  0
    5.1508    7.2697    9.3356 C   0  0  0  0  0  0  0  0  0  0  0  0
    5.3254    7.9857    8.0150 C   0  0  0  0  0  0  0  0  0  0  0  0
    4.2317    7.9575    5.6094 S   0  0  0  0  0  0  0  0  0  0  0  0
    4.9113    9.2876    5.3062 O   0  0  0  0  0  0  0  0  0  0  0  0
    5.1062    6.9078    4.9906 O   0  0  0  0  0  0  0  0  0  0  0  0
    2.8645    8.2115    3.2571 C   0  0  0  0  0  0  0  0  0  0  0  0
    2.6999    7.9706    4.7398 C   0  0  0  0  0  0  0  0  0  0  0  0
    1.8256    6.7887    5.0535 C   0  0  0  0  0  0  0  0  0  0  0  0
 37 38  1  0  0  0
 38 39  1  0  0  0
 38 34  1  0  0  0
 34 35  2  0  0  0
 34 36  2  0  0  0
 34 28  1  0  0  0
 28 29  1  0  0  0
 29 30  1  0  0  0
 30 31  1  0  0  0
 31 32  1  0  0  0
 32 33  1  0  0  0
 31 24  1  0  0  0
 24 25  1  0  0  0
 25 26  2  0  0  0
 25  1  1  0  0  0
  1  2  2  0  0  0
  2  3  1  0  0  0
  3  4  2  0  0  0
  4  7  1  0  0  0
  7  8  1  0  0  0
  8  9  2  0  0  0
  8 10  1  0  0  0
 10 13  1  0  0  0
 13 14  2  0  0  0
 14 15  1  0  0  0
 15 16  2  0  0  0
 16 17  1  0  0  0
 17 18  2  0  0  0
 18 19  1  0  0  0
 19 20  1  0  0  0
 20 21  1  0  0  0
 20 22  1  0  0  0
 20 23  1  0  0  0
  4  5  1  0  0  0
  5  6  2  0  0  0
 33 28  1  0  0  0
  6  1  1  0  0  0
 18 13  1  0  0  0
 24 27  1  0  0  0
  7 11  1  0  0  0
 10 12  1  0  0  0
M  END
> <minimizedAffinity>
-7.61086

> <CNNscore>
0.2159321606

> <CNNaffinity>
5.6440572739

> <CNN_VS>
1.2187334299

> <CNNaffinity_variance>
0.2770787477

$$$$
[H]OC(=O)C([H])([H])C([H])(c1c([H])c([H])c(Cl)c(Cl)c1[H])N(C([H])([H])c1c([H])c([H])c(OC([H])([H])C([H])([H])N2C(=O)C([H])([H])C([H])([H])C2=O)c(OC([H])([H])[H])c1[H])C([H])([H])C1([H])C([H])([H])C1([H])[H]


 38 41  0  0  0  0  0  0  0  0999 V2000
    6.5489    6.1906   18.8086 C   0  0  0  0  0  0  0  0  0  0  0  0
    4.5516    3.2803   17.5072 C   0  0  0  0  0  0  0  0  0  0  0  0
    5.3878    4.0385   18.2963 C   0  0  0  0  0  0  0  0  0  0  0  0
    5.6751    5.3450   17.9743 C   0  0  0  0  0  0  0  0  0  0  0  0
    5.1120    5.8830   16.8479 C   0  0  0  0  0  0  0  0  0  0  0  0
    4.2907    5.1763   16.0524 C   0  0  0  0  0  0  0  0  0  0  0  0
    3.9824    3.8544   16.3523 C   0  0  0  0  0  0  0  0  0  0  0  0
    4.2691    1.5694   19.1648 C   0  0  0  0  0  0  0  0  0  0  0  0
    4.2574    1.9771   17.8157 O   0  0  0  0  0  0  0  0  0  0  0  0
    3.1947    3.1474   15.6049 O   0  0  0  0  0  0  0  0  0  0  0  0
    2.5025    2.4731   14.7494 C   0  0  0  0  0  0  0  0  0  0  0  0
    1.5844    3.1360   13.7617 C   0  0  0  0  0  0  0  0  0  0  0  0
    2.0245    4.4268   13.3433 N   0  0  0  0  0  0  0  0  0  0  0  0
    3.0058    4.6560   12.3316 C   0  0  0  0  0  0  0  0  0  0  0  0
    3.5390    3.7713   11.5842 O   0  0  0  0  0  0  0  0  0  0  0  0
    3.3450    6.0892   12.2469 C   0  0  0  0  0  0  0  0  0  0  0  0
    2.2500    6.7473   13.0254 C   0  0  0  0  0  0  0  0  0  0  0  0
    1.5822    5.6888   13.7874 C   0  0  0  0  0  0  0  0  0  0  0  0
    0.7247    5.8364   14.7192 O   0  0  0  0  0  0  0  0  0  0  0  0
    6.0001    6.8458   19.9037 N   0  0  0  0  0  0  0  0  0  0  0  0
    5.5773    8.2011   19.6611 C   0  0  0  0  0  0  0  0  0  0  0  0
    4.1964    8.3522   19.1567 C   0  0  0  0  0  0  0  0  0  0  0  0
    3.3654    9.5445   19.1533 C   0  0  0  0  0  0  0  0  0  0  0  0
    4.0325    9.1216   17.8583 C   0  0  0  0  0  0  0  0  0  0  0  0
    6.3131    6.5702   21.2312 C   0  0  0  0  0  0  0  0  0  0  0  0
    5.6904    5.3047   21.7432 C   0  0  0  0  0  0  0  0  0  0  0  0
    4.4409    5.3092   22.2981 C   0  0  0  0  0  0  0  0  0  0  0  0
    3.8424    4.1447   22.8062 C   0  0  0  0  0  0  0  0  0  0  0  0
    4.5270    2.9510   22.7493 C   0  0  0  0  0  0  0  0  0  0  0  0
    3.8365    1.4512   23.3683 Cl  0  0  0  0  0  0  0  0  0  0  0  0
    5.7847    2.9793   22.1839 C   0  0  0  0  0  0  0  0  0  0  0  0
    6.6592    1.4485   22.1113 Cl  0  0  0  0  0  0  0  0  0  0  0  0
    6.3796    4.1145   21.6834 C   0  0  0  0  0  0  0  0  0  0  0  0
    6.1199    7.6520   22.2138 C   0  0  0  0  0  0  0  0  0  0  0  0
    7.1293    7.9427   23.2165 C   0  0  0  0  0  0  0  0  0  0  0  0
    6.8971    7.8437   24.5764 O   0  0  0  0  0  0  0  0  0  0  0  0
    8.2835    8.3009   22.8677 O   0  0  0  0  0  0  0  0  0  0  0  0
    6.0872    7.4009   24.9894 H   0  0  0  0  0  0  0  0  0  0  0  0
  8  9  1  0  0  0
  9  2  1  0  0  0
  2  3  2  0  0  0
  3  4  1  0  0  0
  4  1  1  0  0  0
  1 20  1  0  0  0
 20 21  1  0  0  0
 21 22  1  0  0  0
 22 23  1  0  0  0
 23 24  1  0  0  0
 20 25  1  0  0  0
 25 34  1  0  0  0
 34 35  1  0  0  0
 35 36  1  0  0  0
 35 37  2  0  0  0
 25 26  1  0  0  0
 26 27  2  0  0  0
 27 28  1  0  0  0
 28 29  2  0  0  0
 29 30  1  0  0  0
 29 31  1  0  0  0
 31 32  1  0  0  0
 31 33  2  0  0  0
  4  5  2  0  0  0
  5  6  1  0  0  0
  6  7  2  0  0  0
  7 10  1  0  0  0
 10 11  1  0  0  0
 11 12  1  0  0  0
 12 13  1  0  0  0
 13 14  1  0  0  0
 14 15  2  0  0  0
 14 16  1  0  0  0
 16 17  1  0  0  0
 17 18  1  0  0  0
 18 19  2  0  0  0
  7  2  1  0  0  0
 18 13  1  0  0  0
 24 22  1  0  0  0
 33 26  1  0  0  0
 36 38  1  0  0  0
M  END
> <minimizedAffinity>
-7.45273

> <CNNscore>
0.4892046154

> <CNNaffinity>
6.8030958176

> <CNN_VS>
3.3281059265

> <CNNaffinity_variance>
0.2453960478

$$$$
[H]OC(=O)C([H])([H])C([H])(c1c([H])c([H])c(Cl)c(Cl)c1[H])N(C([H])([H])c1c([H])c([H])c(OC([H])([H])C([H])([H])N2C(=O)C([H])([H])C([H])([H])C2=O)c(OC([H])([H])[H])c1[H])C([H])([H])C1([H])C([H])([H])C1([H])[H]


 38 41  0  0  0  0  0  0  0  0999 V2000
    5.5584    4.1687   17.9936 C   0  0  0  0  0  0  0  0  0  0  0  0
    3.0913    2.3992   15.7724 C   0  0  0  0  0  0  0  0  0  0  0  0
    4.0066    2.6374   16.7734 C   0  0  0  0  0  0  0  0  0  0  0  0
    4.5914    3.8743   16.9201 C   0  0  0  0  0  0  0  0  0  0  0  0
    4.2461    4.8717   16.0476 C   0  0  0  0  0  0  0  0  0  0  0  0
    3.3569    4.6792   15.0582 C   0  0  0  0  0  0  0  0  0  0  0  0
    2.7500    3.4406   14.8855 C   0  0  0  0  0  0  0  0  0  0  0  0
    2.5621    0.2376   16.6680 C   0  0  0  0  0  0  0  0  0  0  0  0
    2.5014    1.1715   15.6142 O   0  0  0  0  0  0  0  0  0  0  0  0
    1.8896    3.2240   13.9411 O   0  0  0  0  0  0  0  0  0  0  0  0
    0.9379    3.0888   13.0800 C   0  0  0  0  0  0  0  0  0  0  0  0
    0.1195    4.2546   12.6013 C   0  0  0  0  0  0  0  0  0  0  0  0
    0.7792    5.5127   12.7305 N   0  0  0  0  0  0  0  0  0  0  0  0
    1.8479    5.9532   11.8920 C   0  0  0  0  0  0  0  0  0  0  0  0
    2.2862    5.3574   10.8535 O   0  0  0  0  0  0  0  0  0  0  0  0
    2.4084    7.2259   12.3842 C   0  0  0  0  0  0  0  0  0  0  0  0
    1.3793    7.6985   13.3618 C   0  0  0  0  0  0  0  0  0  0  0  0
    0.5085    6.5536   13.6408 C   0  0  0  0  0  0  0  0  0  0  0  0
   -0.3749    6.4646   14.5556 O   0  0  0  0  0  0  0  0  0  0  0  0
    5.6709    5.4743   18.4546 N   0  0  0  0  0  0  0  0  0  0  0  0
    6.9119    6.1333   18.1385 C   0  0  0  0  0  0  0  0  0  0  0  0
    7.3764    7.1197   19.1362 C   0  0  0  0  0  0  0  0  0  0  0  0
    8.7424    7.4471   19.5091 C   0  0  0  0  0  0  0  0  0  0  0  0
    7.9950    8.3934   18.5888 C   0  0  0  0  0  0  0  0  0  0  0  0
    5.0235    5.9766   19.5792 C   0  0  0  0  0  0  0  0  0  0  0  0
    4.9045    4.9818   20.6962 C   0  0  0  0  0  0  0  0  0  0  0  0
    3.9967    5.1589   21.7031 C   0  0  0  0  0  0  0  0  0  0  0  0
    3.8787    4.2567   22.7729 C   0  0  0  0  0  0  0  0  0  0  0  0
    4.6995    3.1518   22.8210 C   0  0  0  0  0  0  0  0  0  0  0  0
    4.6058    1.9788   24.1343 Cl  0  0  0  0  0  0  0  0  0  0  0  0
    5.6042    3.0012   21.7909 C   0  0  0  0  0  0  0  0  0  0  0  0
    6.6537    1.5842   21.8543 Cl  0  0  0  0  0  0  0  0  0  0  0  0
    5.7276    3.8791   20.7387 C   0  0  0  0  0  0  0  0  0  0  0  0
    3.7285    6.6503   19.3739 C   0  0  0  0  0  0  0  0  0  0  0  0
    3.6453    7.9124   18.6604 C   0  0  0  0  0  0  0  0  0  0  0  0
    3.7536    8.0140   17.2852 O   0  0  0  0  0  0  0  0  0  0  0  0
    3.4623    8.9853   19.2908 O   0  0  0  0  0  0  0  0  0  0  0  0
    3.7211    7.2298   16.6476 H   0  0  0  0  0  0  0  0  0  0  0  0
  8  9  1  0  0  0
  9  2  1  0  0  0
  2  3  2  0  0  0
  3  4  1  0  0  0
  4  1  1  0  0  0
  1 20  1  0  0  0
 20 21  1  0  0  0
 21 22  1  0  0  0
 22 23  1  0  0  0
 23 24  1  0  0  0
 20 25  1  0  0  0
 25 34  1  0  0  0
 34 35  1  0  0  0
 35 36  1  0  0  0
 35 37  2  0  0  0
 25 26  1  0  0  0
 26 27  2  0  0  0
 27 28  1  0  0  0
 28 29  2  0  0  0
 29 30  1  0  0  0
 29 31  1  0  0  0
 31 32  1  0  0  0
 31 33  2  0  0  0
  4  5  2  0  0  0
  5  6  1  0  0  0
  6  7  2  0  0  0
  7 10  1  0  0  0
 10 11  1  0  0  0
 11 12  1  0  0  0
 12 13  1  0  0  0
 13 14  1  0  0  0
 14 15  2  0  0  0
 14 16  1  0  0  0
 16 17  1  0  0  0
 17 18  1  0  0  0
 18 19  2  0  0  0
  7  2  1  0  0  0
 18 13  1  0  0  0
 24 22  1  0  0  0
 33 26  1  0  0  0
 36 38  1  0  0  0
M  END
> <minimizedAffinity>
-7.68696

> <CNNscore>
0.4280752540

> <CNNaffinity>
6.5290794373

> <CNN_VS>
2.7949373722

> <CNNaffinity_variance>
0.2816122174

$$$$
[H]OC(=O)C([H])([H])C([H])(c1c([H])c([H])c(Cl)c(Cl)c1[H])N(C([H])([H])c1c([H])c([H])c(OC([H])([H])C([H])([H])N2C(=O)C([H])([H])C([H])([H])C2=O)c(OC([H])([H])[H])c1[H])C([H])([H])C1([H])C([H])([H])C1([H])[H]


 38 41  0  0  0  0  0  0  0  0999 V2000
    3.0191    5.4229   18.2421 C   0  0  0  0  0  0  0  0  0  0  0  0
    4.8705    6.8223   21.2029 C   0  0  0  0  0  0  0  0  0  0  0  0
    4.2547    5.9301   20.3535 C   0  0  0  0  0  0  0  0  0  0  0  0
    3.6677    6.3542   19.1836 C   0  0  0  0  0  0  0  0  0  0  0  0
    3.7057    7.6880   18.8756 C   0  0  0  0  0  0  0  0  0  0  0  0
    4.2972    8.5899   19.6777 C   0  0  0  0  0  0  0  0  0  0  0  0
    4.8984    8.1909   20.8659 C   0  0  0  0  0  0  0  0  0  0  0  0
    5.6489    5.0362   22.6024 C   0  0  0  0  0  0  0  0  0  0  0  0
    5.4587    6.4135   22.3721 O   0  0  0  0  0  0  0  0  0  0  0  0
    5.4759    9.0364   21.6600 O   0  0  0  0  0  0  0  0  0  0  0  0
    6.1607    9.7804   22.4620 C   0  0  0  0  0  0  0  0  0  0  0  0
    7.6632    9.7642   22.4825 C   0  0  0  0  0  0  0  0  0  0  0  0
    8.2238    8.4547   22.5565 N   0  0  0  0  0  0  0  0  0  0  0  0
    8.7329    7.7306   21.4359 C   0  0  0  0  0  0  0  0  0  0  0  0
    8.8698    8.1762   20.2493 O   0  0  0  0  0  0  0  0  0  0  0  0
    9.0965    6.3545   21.8238 C   0  0  0  0  0  0  0  0  0  0  0  0
    9.1052    6.4105   23.3188 C   0  0  0  0  0  0  0  0  0  0  0  0
    8.4208    7.6500   23.6962 C   0  0  0  0  0  0  0  0  0  0  0  0
    8.0415    7.9938   24.8638 O   0  0  0  0  0  0  0  0  0  0  0  0
    3.7457    4.9559   17.1541 N   0  0  0  0  0  0  0  0  0  0  0  0
    3.0487    4.9784   15.8938 C   0  0  0  0  0  0  0  0  0  0  0  0
    3.6628    4.1740   14.8169 C   0  0  0  0  0  0  0  0  0  0  0  0
    3.1482    2.9683   14.1895 C   0  0  0  0  0  0  0  0  0  0  0  0
    3.0236    4.2836   13.4443 C   0  0  0  0  0  0  0  0  0  0  0  0
    4.7687    4.0156   17.2285 C   0  0  0  0  0  0  0  0  0  0  0  0
    4.5015    2.9164   18.2143 C   0  0  0  0  0  0  0  0  0  0  0  0
    5.0902    2.9188   19.4482 C   0  0  0  0  0  0  0  0  0  0  0  0
    4.8767    1.8921   20.3823 C   0  0  0  0  0  0  0  0  0  0  0  0
    4.0481    0.8413   20.0565 C   0  0  0  0  0  0  0  0  0  0  0  0
    3.7357   -0.4812   21.1803 Cl  0  0  0  0  0  0  0  0  0  0  0  0
    3.4694    0.8678   18.8049 C   0  0  0  0  0  0  0  0  0  0  0  0
    2.4074   -0.4789   18.3904 Cl  0  0  0  0  0  0  0  0  0  0  0  0
    3.6721    1.8689   17.8829 C   0  0  0  0  0  0  0  0  0  0  0  0
    6.1429    4.5189   17.4058 C   0  0  0  0  0  0  0  0  0  0  0  0
    6.4224    5.9438   17.4255 C   0  0  0  0  0  0  0  0  0  0  0  0
    5.9722    6.8178   16.4526 O   0  0  0  0  0  0  0  0  0  0  0  0
    7.1006    6.4432   18.3597 O   0  0  0  0  0  0  0  0  0  0  0  0
    5.2772    6.5903   15.7542 H   0  0  0  0  0  0  0  0  0  0  0  0
  8  9  1  0  0  0
  9  2  1  0  0  0
  2  3  2  0  0  0
  3  4  1  0  0  0
  4  1  1  0  0  0
  1 20  1  0  0  0
 20 21  1  0  0  0
 21 22  1  0  0  0
 22 23  1  0  0  0
 23 24  1  0  0  0
 20 25  1  0  0  0
 25 34  1  0  0  0
 34 35  1  0  0  0
 35 36  1  0  0  0
 35 37  2  0  0  0
 25 26  1  0  0  0
 26 27  2  0  0  0
 27 28  1  0  0  0
 28 29  2  0  0  0
 29 30  1  0  0  0
 29 31  1  0  0  0
 31 32  1  0  0  0
 31 33  2  0  0  0
  4  5  2  0  0  0
  5  6  1  0  0  0
  6  7  2  0  0  0
  7 10  1  0  0  0
 10 11  1  0  0  0
 11 12  1  0  0  0
 12 13  1  0  0  0
 13 14  1  0  0  0
 14 15  2  0  0  0
 14 16  1  0  0  0
 16 17  1  0  0  0
 17 18  1  0  0  0
 18 19  2  0  0  0
  7  2  1  0  0  0
 18 13  1  0  0  0
 24 22  1  0  0  0
 33 26  1  0  0  0
 36 38  1  0  0  0
M  END
> <minimizedAffinity>
-7.84638

> <CNNscore>
0.3448339403

> <CNNaffinity>
6.6105241776

> <CNN_VS>
2.2795331478

> <CNNaffinity_variance>
0.1451513618

$$$$
[H]OC(=O)C([H])([H])C([H])(c1c([H])c([H])c(Cl)c(Cl)c1[H])N(C([H])([H])c1c([H])c([H])c(OC([H])([H])C([H])([H])N2C(=O)C([H])([H])C([H])([H])C2=O)c(OC([H])([H])[H])c1[H])C([H])([H])C1([H])C([H])([H])C1([H])[H]


 38 41  0  0  0  0  0  0  0  0999 V2000
    2.4008    3.0389   12.3627 C   0  0  0  0  0  0  0  0  0  0  0  0
    2.6815    2.0607   15.9843 C   0  0  0  0  0  0  0  0  0  0  0  0
    2.2849    2.0770   14.6656 C   0  0  0  0  0  0  0  0  0  0  0  0
    2.7879    3.0071   13.7852 C   0  0  0  0  0  0  0  0  0  0  0  0
    3.6957    3.9234   14.2452 C   0  0  0  0  0  0  0  0  0  0  0  0
    4.1083    3.9401   15.5244 C   0  0  0  0  0  0  0  0  0  0  0  0
    3.6176    3.0129   16.4365 C   0  0  0  0  0  0  0  0  0  0  0  0
    2.8345   -0.1053   17.0040 C   0  0  0  0  0  0  0  0  0  0  0  0
    2.1880    1.1401   16.8726 O   0  0  0  0  0  0  0  0  0  0  0  0
    3.9956    3.0039   17.6759 O   0  0  0  0  0  0  0  0  0  0  0  0
    4.2376    3.0466   18.9429 C   0  0  0  0  0  0  0  0  0  0  0  0
    4.9399    1.9296   19.6620 C   0  0  0  0  0  0  0  0  0  0  0  0
    4.5841    1.8180   21.0389 N   0  0  0  0  0  0  0  0  0  0  0  0
    5.2440    2.5073   22.1011 C   0  0  0  0  0  0  0  0  0  0  0  0
    6.1506    3.3949   21.9755 O   0  0  0  0  0  0  0  0  0  0  0  0
    4.7368    2.0574   23.4114 C   0  0  0  0  0  0  0  0  0  0  0  0
    3.4868    1.3152   23.0587 C   0  0  0  0  0  0  0  0  0  0  0  0
    3.5361    1.0725   21.6145 C   0  0  0  0  0  0  0  0  0  0  0  0
    2.7698    0.3123   20.9361 O   0  0  0  0  0  0  0  0  0  0  0  0
    1.9225    4.2270   11.8247 N   0  0  0  0  0  0  0  0  0  0  0  0
    0.4895    4.3177   11.7111 C   0  0  0  0  0  0  0  0  0  0  0  0
   -0.1944    4.9767   12.8434 C   0  0  0  0  0  0  0  0  0  0  0  0
    0.3087    6.0312   13.7077 C   0  0  0  0  0  0  0  0  0  0  0  0
   -0.6705    6.3990   12.6090 C   0  0  0  0  0  0  0  0  0  0  0  0
    2.6221    5.0304   10.9297 C   0  0  0  0  0  0  0  0  0  0  0  0
    3.8489    4.3740   10.3681 C   0  0  0  0  0  0  0  0  0  0  0  0
    5.0959    4.7134   10.8143 C   0  0  0  0  0  0  0  0  0  0  0  0
    6.2627    4.1324   10.2913 C   0  0  0  0  0  0  0  0  0  0  0  0
    6.1609    3.1872    9.2948 C   0  0  0  0  0  0  0  0  0  0  0  0
    7.5836    2.4176    8.5926 Cl  0  0  0  0  0  0  0  0  0  0  0  0
    4.8897    2.8664    8.8665 C   0  0  0  0  0  0  0  0  0  0  0  0
    4.7620    1.6544    7.5906 Cl  0  0  0  0  0  0  0  0  0  0  0  0
    3.7408    3.4296    9.3723 C   0  0  0  0  0  0  0  0  0  0  0  0
    2.9452    6.4035   11.3581 C   0  0  0  0  0  0  0  0  0  0  0  0
    2.6415    7.5436   10.5115 C   0  0  0  0  0  0  0  0  0  0  0  0
    3.6145    8.3326    9.9251 O   0  0  0  0  0  0  0  0  0  0  0  0
    1.4463    7.8559   10.2748 O   0  0  0  0  0  0  0  0  0  0  0  0
    4.5964    8.0948    9.8811 H   0  0  0  0  0  0  0  0  0  0  0  0
  8  9  1  0  0  0
  9  2  1  0  0  0
  2  3  2  0  0  0
  3  4  1  0  0  0
  4  1  1  0  0  0
  1 20  1  0  0  0
 20 21  1  0  0  0
 21 22  1  0  0  0
 22 23  1  0  0  0
 23 24  1  0  0  0
 20 25  1  0  0  0
 25 34  1  0  0  0
 34 35  1  0  0  0
 35 36  1  0  0  0
 35 37  2  0  0  0
 25 26  1  0  0  0
 26 27  2  0  0  0
 27 28  1  0  0  0
 28 29  2  0  0  0
 29 30  1  0  0  0
 29 31  1  0  0  0
 31 32  1  0  0  0
 31 33  2  0  0  0
  4  5  2  0  0  0
  5  6  1  0  0  0
  6  7  2  0  0  0
  7 10  1  0  0  0
 10 11  1  0  0  0
 11 12  1  0  0  0
 12 13  1  0  0  0
 13 14  1  0  0  0
 14 15  2  0  0  0
 14 16  1  0  0  0
 16 17  1  0  0  0
 17 18  1  0  0  0
 18 19  2  0  0  0
  7  2  1  0  0  0
 18 13  1  0  0  0
 24 22  1  0  0  0
 33 26  1  0  0  0
 36 38  1  0  0  0
M  END
> <minimizedAffinity>
-6.84485

> <CNNscore>
0.2909363508

> <CNNaffinity>
6.1033892632

> <CNN_VS>
1.7756978273

> <CNNaffinity_variance>
0.3035061955

$$$$
[H]OC(=O)C([H])([H])C([H])(c1c([H])c([H])c(Cl)c(Cl)c1[H])N(C([H])([H])c1c([H])c([H])c(OC([H])([H])C([H])([H])N2C(=O)C([H])([H])C([H])([H])C2=O)c(OC([H])([H])[H])c1[H])C([H])([H])C1([H])C([H])([H])C1([H])[H]


 38 41  0  0  0  0  0  0  0  0999 V2000
    3.1595    3.6278   13.0404 C   0  0  0  0  0  0  0  0  0  0  0  0
    4.1587    3.6941   16.6666 C   0  0  0  0  0  0  0  0  0  0  0  0
    3.9886    4.0756   15.3543 C   0  0  0  0  0  0  0  0  0  0  0  0
    3.3764    3.2418   14.4469 C   0  0  0  0  0  0  0  0  0  0  0  0
    2.9364    2.0171   14.8732 C   0  0  0  0  0  0  0  0  0  0  0  0
    3.0832    1.6083   16.1453 C   0  0  0  0  0  0  0  0  0  0  0  0
    3.6976    2.4290   17.0840 C   0  0  0  0  0  0  0  0  0  0  0  0
    6.0953    4.9302   17.3566 C   0  0  0  0  0  0  0  0  0  0  0  0
    4.7675    4.5146   17.5811 O   0  0  0  0  0  0  0  0  0  0  0  0
    3.8541    2.0630   18.3171 O   0  0  0  0  0  0  0  0  0  0  0  0
    4.1459    1.6556   19.5065 C   0  0  0  0  0  0  0  0  0  0  0  0
    5.2461    2.2783   20.3187 C   0  0  0  0  0  0  0  0  0  0  0  0
    4.7788    3.1183   21.3726 N   0  0  0  0  0  0  0  0  0  0  0  0
    4.0098    2.6632   22.4864 C   0  0  0  0  0  0  0  0  0  0  0  0
    3.7306    1.4507   22.7648 O   0  0  0  0  0  0  0  0  0  0  0  0
    3.5581    3.8007   23.3100 C   0  0  0  0  0  0  0  0  0  0  0  0
    4.3999    4.9355   22.8186 C   0  0  0  0  0  0  0  0  0  0  0  0
    4.9955    4.4989   21.5530 C   0  0  0  0  0  0  0  0  0  0  0  0
    5.6239    5.2198   20.7100 O   0  0  0  0  0  0  0  0  0  0  0  0
    3.1052    4.9777   12.7167 N   0  0  0  0  0  0  0  0  0  0  0  0
    4.2309    5.4766   11.9695 C   0  0  0  0  0  0  0  0  0  0  0  0
    4.6180    4.6689   10.7940 C   0  0  0  0  0  0  0  0  0  0  0  0
    5.3199    5.1012    9.5971 C   0  0  0  0  0  0  0  0  0  0  0  0
    6.0938    4.3404   10.6570 C   0  0  0  0  0  0  0  0  0  0  0  0
    2.4336    5.9445   13.4584 C   0  0  0  0  0  0  0  0  0  0  0  0
    0.9664    6.0212   13.1537 C   0  0  0  0  0  0  0  0  0  0  0  0
    0.0835    6.5300   14.0653 C   0  0  0  0  0  0  0  0  0  0  0  0
   -1.2972    6.5932   13.8167 C   0  0  0  0  0  0  0  0  0  0  0  0
   -1.7916    6.1301   12.6175 C   0  0  0  0  0  0  0  0  0  0  0  0
   -3.5132    6.1786   12.2391 Cl  0  0  0  0  0  0  0  0  0  0  0  0
   -0.8760    5.6231   11.7192 C   0  0  0  0  0  0  0  0  0  0  0  0
   -1.5118    5.0317   10.1832 Cl  0  0  0  0  0  0  0  0  0  0  0  0
    0.4782    5.5570   11.9531 C   0  0  0  0  0  0  0  0  0  0  0  0
    3.0074    7.3022   13.4835 C   0  0  0  0  0  0  0  0  0  0  0  0
    3.3671    7.9407   14.7372 C   0  0  0  0  0  0  0  0  0  0  0  0
    2.6066    8.9339   15.3273 O   0  0  0  0  0  0  0  0  0  0  0  0
    4.4124    7.5962   15.3462 O   0  0  0  0  0  0  0  0  0  0  0  0
    1.6659    9.1783   15.0482 H   0  0  0  0  0  0  0  0  0  0  0  0
  8  9  1  0  0  0
  9  2  1  0  0  0
  2  3  2  0  0  0
  3  4  1  0  0  0
  4  1  1  0  0  0
  1 20  1  0  0  0
 20 21  1  0  0  0
 21 22  1  0  0  0
 22 23  1  0  0  0
 23 24  1  0  0  0
 20 25  1  0  0  0
 25 34  1  0  0  0
 34 35  1  0  0  0
 35 36  1  0  0  0
 35 37  2  0  0  0
 25 26  1  0  0  0
 26 27  2  0  0  0
 27 28  1  0  0  0
 28 29  2  0  0  0
 29 30  1  0  0  0
 29 31  1  0  0  0
 31 32  1  0  0  0
 31 33  2  0  0  0
  4  5  2  0  0  0
  5  6  1  0  0  0
  6  7  2  0  0  0
  7 10  1  0  0  0
 10 11  1  0  0  0
 11 12  1  0  0  0
 12 13  1  0  0  0
 13 14  1  0  0  0
 14 15  2  0  0  0
 14 16  1  0  0  0
 16 17  1  0  0  0
 17 18  1  0  0  0
 18 19  2  0  0  0
  7  2  1  0  0  0
 18 13  1  0  0  0
 24 22  1  0  0  0
 33 26  1  0  0  0
 36 38  1  0  0  0
M  END
> <minimizedAffinity>
-7.58118

> <CNNscore>
0.2871658206

> <CNNaffinity>
6.2422761917

> <CNN_VS>
1.7925683260

> <CNNaffinity_variance>
0.3569293916

$$$$
[H]OC(=O)C([H])([H])C([H])(c1c([H])c([H])c(Cl)c(Cl)c1[H])N(C([H])([H])c1c([H])c([H])c(OC([H])([H])C([H])([H])N2C(=O)C([H])([H])C([H])([H])C2=O)c(OC([H])([H])[H])c1[H])C([H])([H])C1([H])C([H])([H])C1([H])[H]


 38 41  0  0  0  0  0  0  0  0999 V2000
    5.4083    5.9186   17.7478 C   0  0  0  0  0  0  0  0  0  0  0  0
    3.7228    3.8201   15.1195 C   0  0  0  0  0  0  0  0  0  0  0  0
    4.5085    4.1846   16.1903 C   0  0  0  0  0  0  0  0  0  0  0  0
    4.5937    5.4976   16.5929 C   0  0  0  0  0  0  0  0  0  0  0  0
    3.8797    6.4430   15.9061 C   0  0  0  0  0  0  0  0  0  0  0  0
    3.1015    6.1274   14.8565 C   0  0  0  0  0  0  0  0  0  0  0  0
    2.9957    4.8096   14.4270 C   0  0  0  0  0  0  0  0  0  0  0  0
    2.9208    1.5917   15.5012 C   0  0  0  0  0  0  0  0  0  0  0  0
    3.6292    2.5158   14.7071 O   0  0  0  0  0  0  0  0  0  0  0  0
    2.2544    4.4743   13.4185 O   0  0  0  0  0  0  0  0  0  0  0  0
    1.6350    4.1635   12.3297 C   0  0  0  0  0  0  0  0  0  0  0  0
    0.9895    5.1985   11.4523 C   0  0  0  0  0  0  0  0  0  0  0  0
   -0.3044    5.6032   11.8958 N   0  0  0  0  0  0  0  0  0  0  0  0
   -0.5423    6.6252   12.8642 C   0  0  0  0  0  0  0  0  0  0  0  0
    0.3344    7.3938   13.3802 O   0  0  0  0  0  0  0  0  0  0  0  0
   -1.9742    6.6926   13.2127 C   0  0  0  0  0  0  0  0  0  0  0  0
   -2.6279    5.8885   12.1338 C   0  0  0  0  0  0  0  0  0  0  0  0
   -1.5625    5.1333   11.4692 C   0  0  0  0  0  0  0  0  0  0  0  0
   -1.7017    4.1872   10.6262 O   0  0  0  0  0  0  0  0  0  0  0  0
    4.9197    5.6962   19.0291 N   0  0  0  0  0  0  0  0  0  0  0  0
    4.0358    6.7145   19.5354 C   0  0  0  0  0  0  0  0  0  0  0  0
    4.3734    8.0982   19.1414 C   0  0  0  0  0  0  0  0  0  0  0  0
    3.5151    9.2710   19.1507 C   0  0  0  0  0  0  0  0  0  0  0  0
    4.5260    9.1030   20.2691 C   0  0  0  0  0  0  0  0  0  0  0  0
    5.5783    4.9655   20.0131 C   0  0  0  0  0  0  0  0  0  0  0  0
    5.0181    3.5878   20.2121 C   0  0  0  0  0  0  0  0  0  0  0  0
    4.8039    2.7545   19.1495 C   0  0  0  0  0  0  0  0  0  0  0  0
    4.2598    1.4690   19.3032 C   0  0  0  0  0  0  0  0  0  0  0  0
    3.9264    1.0205   20.5620 C   0  0  0  0  0  0  0  0  0  0  0  0
    3.2391   -0.5815   20.8279 Cl  0  0  0  0  0  0  0  0  0  0  0  0
    4.1545    1.8841   21.6129 C   0  0  0  0  0  0  0  0  0  0  0  0
    3.7277    1.3066   23.2246 Cl  0  0  0  0  0  0  0  0  0  0  0  0
    4.6871    3.1450   21.4728 C   0  0  0  0  0  0  0  0  0  0  0  0
    5.7790    5.6141   21.3216 C   0  0  0  0  0  0  0  0  0  0  0  0
    7.0570    6.2050   21.6769 C   0  0  0  0  0  0  0  0  0  0  0  0
    7.6384    6.0601   22.9236 O   0  0  0  0  0  0  0  0  0  0  0  0
    7.6965    6.8849   20.8338 O   0  0  0  0  0  0  0  0  0  0  0  0
    7.3304    5.4025   23.6273 H   0  0  0  0  0  0  0  0  0  0  0  0
  8  9  1  0  0  0
  9  2  1  0  0  0
  2  3  2  0  0  0
  3  4  1  0  0  0
  4  1  1  0  0  0
  1 20  1  0  0  0
 20 21  1  0  0  0
 21 22  1  0  0  0
 22 23  1  0  0  0
 23 24  1  0  0  0
 20 25  1  0  0  0
 25 34  1  0  0  0
 34 35  1  0  0  0
 35 36  1  0  0  0
 35 37  2  0  0  0
 25 26  1  0  0  0
 26 27  2  0  0  0
 27 28  1  0  0  0
 28 29  2  0  0  0
 29 30  1  0  0  0
 29 31  1  0  0  0
 31 32  1  0  0  0
 31 33  2  0  0  0
  4  5  2  0  0  0
  5  6  1  0  0  0
  6  7  2  0  0  0
  7 10  1  0  0  0
 10 11  1  0  0  0
 11 12  1  0  0  0
 12 13  1  0  0  0
 13 14  1  0  0  0
 14 15  2  0  0  0
 14 16  1  0  0  0
 16 17  1  0  0  0
 17 18  1  0  0  0
 18 19  2  0  0  0
  7  2  1  0  0  0
 18 13  1  0  0  0
 24 22  1  0  0  0
 33 26  1  0  0  0
 36 38  1  0  0  0
M  END
> <minimizedAffinity>
-7.82315

> <CNNscore>
0.2484368980

> <CNNaffinity>
6.3947863579

> <CNN_VS>
1.5887008905

> <CNNaffinity_variance>
0.2905771732

$$$$
[H]OC(=O)C([H])([H])C([H])(c1c([H])c([H])c(Cl)c(Cl)c1[H])N(C([H])([H])c1c([H])c([H])c(OC([H])([H])C([H])([H])N2C(=O)C([H])([H])C([H])([H])C2=O)c(OC([H])([H])[H])c1[H])C([H])([H])C1([H])C([H])([H])C1([H])[H]


 38 41  0  0  0  0  0  0  0  0999 V2000
    3.3726    5.6353   19.5474 C   0  0  0  0  0  0  0  0  0  0  0  0
    3.8757    7.0884   16.1141 C   0  0  0  0  0  0  0  0  0  0  0  0
    4.0017    6.8688   17.4679 C   0  0  0  0  0  0  0  0  0  0  0  0
    3.2469    5.9103   18.1042 C   0  0  0  0  0  0  0  0  0  0  0  0
    2.3614    5.1732   17.3640 C   0  0  0  0  0  0  0  0  0  0  0  0
    2.2096    5.3569   16.0411 C   0  0  0  0  0  0  0  0  0  0  0  0
    2.9583    6.3177   15.3713 C   0  0  0  0  0  0  0  0  0  0  0  0
    4.9240    9.2459   16.1316 C   0  0  0  0  0  0  0  0  0  0  0  0
    4.6208    8.0405   15.4674 O   0  0  0  0  0  0  0  0  0  0  0  0
    2.8340    6.5185   14.0972 O   0  0  0  0  0  0  0  0  0  0  0  0
    2.6110    6.6093   12.8293 C   0  0  0  0  0  0  0  0  0  0  0  0
    2.4608    5.3973   11.9539 C   0  0  0  0  0  0  0  0  0  0  0  0
    2.2424    4.1878   12.6778 N   0  0  0  0  0  0  0  0  0  0  0  0
    3.2781    3.4068   13.2750 C   0  0  0  0  0  0  0  0  0  0  0  0
    4.5109    3.7225   13.3530 O   0  0  0  0  0  0  0  0  0  0  0  0
    2.7371    2.1439   13.8124 C   0  0  0  0  0  0  0  0  0  0  0  0
    1.2594    2.3773   13.8146 C   0  0  0  0  0  0  0  0  0  0  0  0
    1.0193    3.5554   12.9771 C   0  0  0  0  0  0  0  0  0  0  0  0
   -0.1056    3.9840   12.5575 O   0  0  0  0  0  0  0  0  0  0  0  0
    4.6409    5.5840   20.1119 N   0  0  0  0  0  0  0  0  0  0  0  0
    5.3726    6.8245   20.0939 C   0  0  0  0  0  0  0  0  0  0  0  0
    4.8221    7.8961   20.9500 C   0  0  0  0  0  0  0  0  0  0  0  0
    5.5123    9.0491   21.5035 C   0  0  0  0  0  0  0  0  0  0  0  0
    4.6215    9.2495   20.2922 C   0  0  0  0  0  0  0  0  0  0  0  0
    5.4399    4.4461   20.1646 C   0  0  0  0  0  0  0  0  0  0  0  0
    4.9222    3.3115   19.3304 C   0  0  0  0  0  0  0  0  0  0  0  0
    5.1239    3.2822   17.9785 C   0  0  0  0  0  0  0  0  0  0  0  0
    4.6315    2.2451   17.1696 C   0  0  0  0  0  0  0  0  0  0  0  0
    3.9197    1.2164   17.7457 C   0  0  0  0  0  0  0  0  0  0  0  0
    3.2724   -0.1171   16.7907 Cl  0  0  0  0  0  0  0  0  0  0  0  0
    3.7333    1.2745   19.1110 C   0  0  0  0  0  0  0  0  0  0  0  0
    2.8220   -0.0452   19.8467 Cl  0  0  0  0  0  0  0  0  0  0  0  0
    4.2116    2.2858   19.9120 C   0  0  0  0  0  0  0  0  0  0  0  0
    5.8256    3.9475   21.4972 C   0  0  0  0  0  0  0  0  0  0  0  0
    5.0324    4.2602   22.6727 C   0  0  0  0  0  0  0  0  0  0  0  0
    5.0106    5.5118   23.2612 O   0  0  0  0  0  0  0  0  0  0  0  0
    4.3150    3.3755   23.2063 O   0  0  0  0  0  0  0  0  0  0  0  0
    5.3892    6.3500   22.8409 H   0  0  0  0  0  0  0  0  0  0  0  0
  8  9  1  0  0  0
  9  2  1  0  0  0
  2  3  2  0  0  0
  3  4  1  0  0  0
  4  1  1  0  0  0
  1 20  1  0  0  0
 20 21  1  0  0  0
 21 22  1  0  0  0
 22 23  1  0  0  0
 23 24  1  0  0  0
 20 25  1  0  0  0
 25 34  1  0  0  0
 34 35  1  0  0  0
 35 36  1  0  0  0
 35 37  2  0  0  0
 25 26  1  0  0  0
 26 27  2  0  0  0
 27 28  1  0  0  0
 28 29  2  0  0  0
 29 30  1  0  0  0
 29 31  1  0  0  0
 31 32  1  0  0  0
 31 33  2  0  0  0
  4  5  2  0  0  0
  5  6  1  0  0  0
  6  7  2  0  0  0
  7 10  1  0  0  0
 10 11  1  0  0  0
 11 12  1  0  0  0
 12 13  1  0  0  0
 13 14  1  0  0  0
 14 15  2  0  0  0
 14 16  1  0  0  0
 16 17  1  0  0  0
 17 18  1  0  0  0
 18 19  2  0  0  0
  7  2  1  0  0  0
 18 13  1  0  0  0
 24 22  1  0  0  0
 33 26  1  0  0  0
 36 38  1  0  0  0
M  END
> <minimizedAffinity>
-7.90917

> <CNNscore>
0.2425145656

> <CNNaffinity>
6.3156371117

> <CNN_VS>
1.5316339731

> <CNNaffinity_variance>
0.5696708560

$$$$
[H]OC(=O)C([H])([H])C([H])(c1c([H])c([H])c(Cl)c(Cl)c1[H])N(C([H])([H])c1c([H])c([H])c(OC([H])([H])C([H])([H])N2C(=O)C([H])([H])C([H])([H])C2=O)c(OC([H])([H])[H])c1[H])C([H])([H])C1([H])C([H])([H])C1([H])[H]


 38 41  0  0  0  0  0  0  0  0999 V2000
    8.0220    7.0599   19.5231 C   0  0  0  0  0  0  0  0  0  0  0  0
    5.8793    7.9286   16.5556 C   0  0  0  0  0  0  0  0  0  0  0  0
    6.8446    8.0092   17.5346 C   0  0  0  0  0  0  0  0  0  0  0  0
    6.9857    7.0149   18.4751 C   0  0  0  0  0  0  0  0  0  0  0  0
    6.1440    5.9360   18.4217 C   0  0  0  0  0  0  0  0  0  0  0  0
    5.1899    5.8201   17.4820 C   0  0  0  0  0  0  0  0  0  0  0  0
    5.0238    6.8087   16.5189 C   0  0  0  0  0  0  0  0  0  0  0  0
    6.5013    8.8639   14.4359 C   0  0  0  0  0  0  0  0  0  0  0  0
    5.7271    8.9123   15.6126 O   0  0  0  0  0  0  0  0  0  0  0  0
    4.1131    6.7257   15.6009 O   0  0  0  0  0  0  0  0  0  0  0  0
    3.3165    6.6448   14.5887 C   0  0  0  0  0  0  0  0  0  0  0  0
    2.1925    5.6491   14.5319 C   0  0  0  0  0  0  0  0  0  0  0  0
    2.5532    4.3471   14.9892 N   0  0  0  0  0  0  0  0  0  0  0  0
    2.4331    3.9049   16.3417 C   0  0  0  0  0  0  0  0  0  0  0  0
    1.8898    4.5474   17.2996 O   0  0  0  0  0  0  0  0  0  0  0  0
    3.0328    2.5676   16.5100 C   0  0  0  0  0  0  0  0  0  0  0  0
    3.2024    2.0882   15.1031 C   0  0  0  0  0  0  0  0  0  0  0  0
    3.0445    3.2606   14.2384 C   0  0  0  0  0  0  0  0  0  0  0  0
    3.2988    3.3359   12.9915 O   0  0  0  0  0  0  0  0  0  0  0  0
    7.6449    7.3597   20.8260 N   0  0  0  0  0  0  0  0  0  0  0  0
    7.5792    8.7640   21.1395 C   0  0  0  0  0  0  0  0  0  0  0  0
    6.2621    9.3990   20.9251 C   0  0  0  0  0  0  0  0  0  0  0  0
    4.9739    8.7550   20.7298 C   0  0  0  0  0  0  0  0  0  0  0  0
    5.2901    9.3471   22.0901 C   0  0  0  0  0  0  0  0  0  0  0  0
    7.8652    6.5351   21.9249 C   0  0  0  0  0  0  0  0  0  0  0  0
    6.8093    5.4848   22.1070 C   0  0  0  0  0  0  0  0  0  0  0  0
    5.5249    5.8259   22.4282 C   0  0  0  0  0  0  0  0  0  0  0  0
    4.5214    4.8636   22.6271 C   0  0  0  0  0  0  0  0  0  0  0  0
    4.8288    3.5275   22.4969 C   0  0  0  0  0  0  0  0  0  0  0  0
    3.6189    2.2665   22.7328 Cl  0  0  0  0  0  0  0  0  0  0  0  0
    6.1325    3.2158   22.1722 C   0  0  0  0  0  0  0  0  0  0  0  0
    6.5233    1.5033   22.0049 Cl  0  0  0  0  0  0  0  0  0  0  0  0
    7.1225    4.1507   21.9753 C   0  0  0  0  0  0  0  0  0  0  0  0
    8.1470    7.1858   23.2174 C   0  0  0  0  0  0  0  0  0  0  0  0
    9.1292    6.6359   24.1347 C   0  0  0  0  0  0  0  0  0  0  0  0
    9.1448    6.9206   25.4882 O   0  0  0  0  0  0  0  0  0  0  0  0
   10.0218    5.8560   23.7139 O   0  0  0  0  0  0  0  0  0  0  0  0
    8.3936    7.3784   25.9869 H   0  0  0  0  0  0  0  0  0  0  0  0
  8  9  1  0  0  0
  9  2  1  0  0  0
  2  3  2  0  0  0
  3  4  1  0  0  0
  4  1  1  0  0  0
  1 20  1  0  0  0
 20 21  1  0  0  0
 21 22  1  0  0  0
 22 23  1  0  0  0
 23 24  1  0  0  0
 20 25  1  0  0  0
 25 34  1  0  0  0
 34 35  1  0  0  0
 35 36  1  0  0  0
 35 37  2  0  0  0
 25 26  1  0  0  0
 26 27  2  0  0  0
 27 28  1  0  0  0
 28 29  2  0  0  0
 29 30  1  0  0  0
 29 31  1  0  0  0
 31 32  1  0  0  0
 31 33  2  0  0  0
  4  5  2  0  0  0
  5  6  1  0  0  0
  6  7  2  0  0  0
  7 10  1  0  0  0
 10 11  1  0  0  0
 11 12  1  0  0  0
 12 13  1  0  0  0
 13 14  1  0  0  0
 14 15  2  0  0  0
 14 16  1  0  0  0
 16 17  1  0  0  0
 17 18  1  0  0  0
 18 19  2  0  0  0
  7  2  1  0  0  0
 18 13  1  0  0  0
 24 22  1  0  0  0
 33 26  1  0  0  0
 36 38  1  0  0  0
M  END
> <minimizedAffinity>
-7.39228

> <CNNscore>
0.2208529264

> <CNNaffinity>
6.4014878273

> <CNN_VS>
1.4137873650

> <CNNaffinity_variance>
0.2560565770

$$$$
[H]OC(=O)C([H])([H])C([H])(c1c([H])c([H])c(Cl)c(Cl)c1[H])N(C([H])([H])c1c([H])c([H])c(OC([H])([H])C([H])([H])N2C(=O)C([H])([H])C([H])([H])C2=O)c(OC([H])([H])[H])c1[H])C([H])([H])C1([H])C([H])([H])C1([H])[H]


 38 41  0  0  0  0  0  0  0  0999 V2000
    3.4603    6.0436   19.1210 C   0  0  0  0  0  0  0  0  0  0  0  0
    3.5825    3.7442   16.1460 C   0  0  0  0  0  0  0  0  0  0  0  0
    3.5931    4.1926   17.4482 C   0  0  0  0  0  0  0  0  0  0  0  0
    3.4741    5.5325   17.7379 C   0  0  0  0  0  0  0  0  0  0  0  0
    3.3445    6.4194   16.7026 C   0  0  0  0  0  0  0  0  0  0  0  0
    3.3292    6.0215   15.4187 C   0  0  0  0  0  0  0  0  0  0  0  0
    3.4475    4.6747   15.0956 C   0  0  0  0  0  0  0  0  0  0  0  0
    2.5630    1.5844   15.9217 C   0  0  0  0  0  0  0  0  0  0  0  0
    3.7009    2.4123   15.8429 O   0  0  0  0  0  0  0  0  0  0  0  0
    3.4367    4.2605   13.8679 O   0  0  0  0  0  0  0  0  0  0  0  0
    3.5305    3.7517   12.6855 C   0  0  0  0  0  0  0  0  0  0  0  0
    2.8408    4.3579   11.4960 C   0  0  0  0  0  0  0  0  0  0  0  0
    1.9954    5.4600   11.8206 N   0  0  0  0  0  0  0  0  0  0  0  0
    0.6371    5.3376   12.2440 C   0  0  0  0  0  0  0  0  0  0  0  0
    0.0234    4.2507   12.5040 O   0  0  0  0  0  0  0  0  0  0  0  0
    0.0008    6.6642   12.3504 C   0  0  0  0  0  0  0  0  0  0  0  0
    1.1622    7.6061   12.3068 C   0  0  0  0  0  0  0  0  0  0  0  0
    2.3119    6.8330   11.8298 C   0  0  0  0  0  0  0  0  0  0  0  0
    3.4466    7.2871   11.4672 O   0  0  0  0  0  0  0  0  0  0  0  0
    4.6610    6.4243   19.7067 N   0  0  0  0  0  0  0  0  0  0  0  0
    5.1182    7.7475   19.3679 C   0  0  0  0  0  0  0  0  0  0  0  0
    4.5727    8.8382   20.2025 C   0  0  0  0  0  0  0  0  0  0  0  0
    4.9014    9.1680   21.5793 C   0  0  0  0  0  0  0  0  0  0  0  0
    5.4982   10.0118   20.4689 C   0  0  0  0  0  0  0  0  0  0  0  0
    5.6718    5.5464   20.0857 C   0  0  0  0  0  0  0  0  0  0  0  0
    5.1888    4.4074   20.9346 C   0  0  0  0  0  0  0  0  0  0  0  0
    4.3795    4.6277   22.0143 C   0  0  0  0  0  0  0  0  0  0  0  0
    3.9309    3.5838   22.8399 C   0  0  0  0  0  0  0  0  0  0  0  0
    4.3119    2.2896   22.5630 C   0  0  0  0  0  0  0  0  0  0  0  0
    3.7862    0.9314   23.5571 Cl  0  0  0  0  0  0  0  0  0  0  0  0
    5.1281    2.1002   21.4675 C   0  0  0  0  0  0  0  0  0  0  0  0
    5.6138    0.4411   21.1144 Cl  0  0  0  0  0  0  0  0  0  0  0  0
    5.5729    3.1158   20.6527 C   0  0  0  0  0  0  0  0  0  0  0  0
    6.8894    6.1275   20.6800 C   0  0  0  0  0  0  0  0  0  0  0  0
    7.1505    6.0243   22.1047 C   0  0  0  0  0  0  0  0  0  0  0  0
    7.8305    4.9637   22.6756 O   0  0  0  0  0  0  0  0  0  0  0  0
    6.7573    6.9270   22.8875 O   0  0  0  0  0  0  0  0  0  0  0  0
    8.3523    4.2705   22.1563 H   0  0  0  0  0  0  0  0  0  0  0  0
  8  9  1  0  0  0
  9  2  1  0  0  0
  2  3  2  0  0  0
  3  4  1  0  0  0
  4  1  1  0  0  0
  1 20  1  0  0  0
 20 21  1  0  0  0
 21 22  1  0  0  0
 22 23  1  0  0  0
 23 24  1  0  0  0
 20 25  1  0  0  0
 25 34  1  0  0  0
 34 35  1  0  0  0
 35 36  1  0  0  0
 35 37  2  0  0  0
 25 26  1  0  0  0
 26 27  2  0  0  0
 27 28  1  0  0  0
 28 29  2  0  0  0
 29 30  1  0  0  0
 29 31  1  0  0  0
 31 32  1  0  0  0
 31 33  2  0  0  0
  4  5  2  0  0  0
  5  6  1  0  0  0
  6  7  2  0  0  0
  7 10  1  0  0  0
 10 11  1  0  0  0
 11 12  1  0  0  0
 12 13  1  0  0  0
 13 14  1  0  0  0
 14 15  2  0  0  0
 14 16  1  0  0  0
 16 17  1  0  0  0
 17 18  1  0  0  0
 18 19  2  0  0  0
  7  2  1  0  0  0
 18 13  1  0  0  0
 24 22  1  0  0  0
 33 26  1  0  0  0
 36 38  1  0  0  0
M  END
> <minimizedAffinity>
-7.23463

> <CNNscore>
0.2115738392

> <CNNaffinity>
6.2751016617

> <CNN_VS>
1.3276473284

> <CNNaffinity_variance>
0.3430079520

$$$$
[H]c1nc(N([H])c2c([H])c([H])c(N3C([H])([H])C([H])([H])C([H])(N4C([H])([H])C([H])([H])OC([H])([H])C4([H])[H])C([H])([H])C3([H])[H])c([H])c2OC([H])([H])[H])nc(N([H])c2c([H])c([H])c([H])c([H])c2S(=O)(=O)C([H])(C([H])([H])[H])C([H])([H])[H])c1Cl


 43 47  0  0  0  0  0  0  0  0999 V2000
    4.4960    1.5462   18.2797 N   0  0  0  0  0  0  0  0  0  0  0  0
    5.1575    0.6788   18.3355 H   0  0  0  0  0  0  0  0  0  0  0  0
    4.3337    2.2108   19.5101 C   0  0  0  0  0  0  0  0  0  0  0  0
    4.1131    1.4186   20.6197 N   0  0  0  0  0  0  0  0  0  0  0  0
    3.9701    1.8826   21.8436 C   0  0  0  0  0  0  0  0  0  0  0  0
    4.0409    3.2402   22.0625 C   0  0  0  0  0  0  0  0  0  0  0  0
    3.8674    3.9328   23.6496 Cl  0  0  0  0  0  0  0  0  0  0  0  0
    4.2650    4.1046   20.9759 C   0  0  0  0  0  0  0  0  0  0  0  0
    4.3956    3.5114   19.7642 N   0  0  0  0  0  0  0  0  0  0  0  0
    4.3041    5.4763   21.2372 N   0  0  0  0  0  0  0  0  0  0  0  0
    3.3546    5.9239   21.4330 H   0  0  0  0  0  0  0  0  0  0  0  0
    5.3787    6.3844   21.3098 C   0  0  0  0  0  0  0  0  0  0  0  0
    6.2430    6.4376   22.3720 C   0  0  0  0  0  0  0  0  0  0  0  0
    7.2388    7.3898   22.4220 C   0  0  0  0  0  0  0  0  0  0  0  0
    7.4050    8.3145   21.4220 C   0  0  0  0  0  0  0  0  0  0  0  0
    6.5394    8.2762   20.3377 C   0  0  0  0  0  0  0  0  0  0  0  0
    5.5421    7.3299   20.2783 C   0  0  0  0  0  0  0  0  0  0  0  0
    4.5229    7.3476   18.8733 S   0  0  0  0  0  0  0  0  0  0  0  0
    3.1865    6.7029   19.0801 O   0  0  0  0  0  0  0  0  0  0  0  0
    4.1977    8.8111   18.5491 O   0  0  0  0  0  0  0  0  0  0  0  0
    5.3192    6.6492   17.4715 C   0  0  0  0  0  0  0  0  0  0  0  0
    5.9212    7.7879   16.6085 C   0  0  0  0  0  0  0  0  0  0  0  0
    6.3884    5.6504   17.8223 C   0  0  0  0  0  0  0  0  0  0  0  0
    3.0681    0.8551   16.4915 C   0  0  0  0  0  0  0  0  0  0  0  0
    2.4943    1.1144   15.2697 C   0  0  0  0  0  0  0  0  0  0  0  0
    2.7592    2.2704   14.5418 C   0  0  0  0  0  0  0  0  0  0  0  0
    3.6313    3.1766   15.0805 C   0  0  0  0  0  0  0  0  0  0  0  0
    4.2380    2.9497   16.3259 C   0  0  0  0  0  0  0  0  0  0  0  0
    3.9551    1.7987   17.0191 C   0  0  0  0  0  0  0  0  0  0  0  0
    2.1738    2.5247   13.2726 N   0  0  0  0  0  0  0  0  0  0  0  0
    0.7922    3.0017   13.1721 C   0  0  0  0  0  0  0  0  0  0  0  0
    0.5716    3.6101   11.7882 C   0  0  0  0  0  0  0  0  0  0  0  0
    1.7239    4.5129   11.4565 C   0  0  0  0  0  0  0  0  0  0  0  0
    2.9161    3.6205   11.1843 C   0  0  0  0  0  0  0  0  0  0  0  0
    2.8614    2.3558   12.0222 C   0  0  0  0  0  0  0  0  0  0  0  0
    1.4656    5.2859   10.2726 N   0  0  0  0  0  0  0  0  0  0  0  0
    2.1931    6.5600   10.3363 C   0  0  0  0  0  0  0  0  0  0  0  0
    1.9218    7.2645    9.0184 C   0  0  0  0  0  0  0  0  0  0  0  0
    0.5712    7.5563    8.8650 O   0  0  0  0  0  0  0  0  0  0  0  0
   -0.0913    6.3362    8.7974 C   0  0  0  0  0  0  0  0  0  0  0  0
    0.0677    5.6570   10.1412 C   0  0  0  0  0  0  0  0  0  0  0  0
    1.8478   -0.2488   18.2583 C   0  0  0  0  0  0  0  0  0  0  0  0
    2.8006   -0.2974   17.2110 O   0  0  0  0  0  0  0  0  0  0  0  0
 42 43  1  0  0  0
 43 24  1  0  0  0
 24 25  2  0  0  0
 25 26  1  0  0  0
 26 27  2  0  0  0
 27 28  1  0  0  0
 28 29  2  0  0  0
 29  1  1  0  0  0
  1  3  1  0  0  0
  3  4  2  0  0  0
  4  5  1  0  0  0
  5  6  2  0  0  0
  6  7  1  0  0  0
  6  8  1  0  0  0
  8 10  1  0  0  0
 10 12  1  0  0  0
 12 13  2  0  0  0
 13 14  1  0  0  0
 14 15  2  0  0  0
 15 16  1  0  0  0
 16 17  2  0  0  0
 17 18  1  0  0  0
 18 19  2  0  0  0
 18 20  2  0  0  0
 18 21  1  0  0  0
 21 22  1  0  0  0
 21 23  1  0  0  0
  8  9  2  0  0  0
 26 30  1  0  0  0
 30 31  1  0  0  0
 31 32  1  0  0  0
 32 33  1  0  0  0
 33 34  1  0  0  0
 34 35  1  0  0  0
 33 36  1  0  0  0
 36 37  1  0  0  0
 37 38  1  0  0  0
 38 39  1  0  0  0
 39 40  1  0  0  0
 40 41  1  0  0  0
 29 24  1  0  0  0
  9  3  1  0  0  0
 35 30  1  0  0  0
 41 36  1  0  0  0
 17 12  1  0  0  0
  1  2  1  0  0  0
 10 11  1  0  0  0
M  END
> <minimizedAffinity>
-8.94963

> <CNNscore>
0.4148608148

> <CNNaffinity>
7.3365745544

> <CNN_VS>
3.0436573029

> <CNNaffinity_variance>
0.3088585138

$$$$
[H]c1nc(N([H])c2c([H])c([H])c(N3C([H])([H])C([H])([H])C([H])(N4C([H])([H])C([H])([H])OC([H])([H])C4([H])[H])C([H])([H])C3([H])[H])c([H])c2OC([H])([H])[H])nc(N([H])c2c([H])c([H])c([H])c([H])c2S(=O)(=O)C([H])(C([H])([H])[H])C([H])([H])[H])c1Cl


 43 47  0  0  0  0  0  0  0  0999 V2000
    4.5832    1.8079   18.3868 N   0  0  0  0  0  0  0  0  0  0  0  0
    5.2476    0.9442   18.4638 H   0  0  0  0  0  0  0  0  0  0  0  0
    4.3609    2.4587   19.6151 C   0  0  0  0  0  0  0  0  0  0  0  0
    4.1719    1.6521   20.7203 N   0  0  0  0  0  0  0  0  0  0  0  0
    3.9814    2.1039   21.9423 C   0  0  0  0  0  0  0  0  0  0  0  0
    3.9649    3.4628   22.1637 C   0  0  0  0  0  0  0  0  0  0  0  0
    3.7240    4.1402   23.7486 Cl  0  0  0  0  0  0  0  0  0  0  0  0
    4.1525    4.3416   21.0817 C   0  0  0  0  0  0  0  0  0  0  0  0
    4.3385    3.7601   19.8716 N   0  0  0  0  0  0  0  0  0  0  0  0
    4.1028    5.7126   21.3451 N   0  0  0  0  0  0  0  0  0  0  0  0
    3.1222    6.1049   21.5027 H   0  0  0  0  0  0  0  0  0  0  0  0
    5.1202    6.6802   21.4615 C   0  0  0  0  0  0  0  0  0  0  0  0
    5.9599    6.7567   22.5419 C   0  0  0  0  0  0  0  0  0  0  0  0
    6.8964    7.7642   22.6351 C   0  0  0  0  0  0  0  0  0  0  0  0
    7.0261    8.7225   21.6617 C   0  0  0  0  0  0  0  0  0  0  0  0
    6.1845    8.6612   20.5596 C   0  0  0  0  0  0  0  0  0  0  0  0
    5.2464    7.6597   20.4570 C   0  0  0  0  0  0  0  0  0  0  0  0
    4.2542    7.6536   19.0327 S   0  0  0  0  0  0  0  0  0  0  0  0
    3.1043    6.6952   19.0936 O   0  0  0  0  0  0  0  0  0  0  0  0
    3.5977    9.0347   18.9133 O   0  0  0  0  0  0  0  0  0  0  0  0
    5.1944    7.3759   17.5747 C   0  0  0  0  0  0  0  0  0  0  0  0
    6.1848    6.2091   17.8226 C   0  0  0  0  0  0  0  0  0  0  0  0
    4.3525    7.0861   16.3618 C   0  0  0  0  0  0  0  0  0  0  0  0
    3.2983    1.0947   16.5014 C   0  0  0  0  0  0  0  0  0  0  0  0
    2.7779    1.3604   15.2573 C   0  0  0  0  0  0  0  0  0  0  0  0
    3.0138    2.5525   14.5795 C   0  0  0  0  0  0  0  0  0  0  0  0
    3.8003    3.4891   15.1929 C   0  0  0  0  0  0  0  0  0  0  0  0
    4.3503    3.2569   16.4634 C   0  0  0  0  0  0  0  0  0  0  0  0
    4.0982    2.0698   17.1056 C   0  0  0  0  0  0  0  0  0  0  0  0
    2.4846    2.8140   13.2873 N   0  0  0  0  0  0  0  0  0  0  0  0
    3.2325    3.6304   12.3278 C   0  0  0  0  0  0  0  0  0  0  0  0
    2.6829    3.3832   10.9240 C   0  0  0  0  0  0  0  0  0  0  0  0
    2.5150    1.9068   10.7125 C   0  0  0  0  0  0  0  0  0  0  0  0
    1.3350    1.4741   11.5565 C   0  0  0  0  0  0  0  0  0  0  0  0
    1.2231    2.3104   12.8185 C   0  0  0  0  0  0  0  0  0  0  0  0
    2.2182    1.6001    9.3400 N   0  0  0  0  0  0  0  0  0  0  0  0
    1.5789    0.2813    9.2473 C   0  0  0  0  0  0  0  0  0  0  0  0
    1.2356    0.0834    7.7811 C   0  0  0  0  0  0  0  0  0  0  0  0
    2.3781    0.0558    6.9893 O   0  0  0  0  0  0  0  0  0  0  0  0
    2.9568    1.3159    7.0868 C   0  0  0  0  0  0  0  0  0  0  0  0
    3.4120    1.4981    8.5193 C   0  0  0  0  0  0  0  0  0  0  0  0
    1.9979   -0.1558   18.1058 C   0  0  0  0  0  0  0  0  0  0  0  0
    3.0603   -0.0939   17.1707 O   0  0  0  0  0  0  0  0  0  0  0  0
 42 43  1  0  0  0
 43 24  1  0  0  0
 24 25  2  0  0  0
 25 26  1  0  0  0
 26 27  2  0  0  0
 27 28  1  0  0  0
 28 29  2  0  0  0
 29  1  1  0  0  0
  1  3  1  0  0  0
  3  4  2  0  0  0
  4  5  1  0  0  0
  5  6  2  0  0  0
  6  7  1  0  0  0
  6  8  1  0  0  0
  8 10  1  0  0  0
 10 12  1  0  0  0
 12 13  2  0  0  0
 13 14  1  0  0  0
 14 15  2  0  0  0
 15 16  1  0  0  0
 16 17  2  0  0  0
 17 18  1  0  0  0
 18 19  2  0  0  0
 18 20  2  0  0  0
 18 21  1  0  0  0
 21 22  1  0  0  0
 21 23  1  0  0  0
  8  9  2  0  0  0
 26 30  1  0  0  0
 30 31  1  0  0  0
 31 32  1  0  0  0
 32 33  1  0  0  0
 33 34  1  0  0  0
 34 35  1  0  0  0
 33 36  1  0  0  0
 36 37  1  0  0  0
 37 38  1  0  0  0
 38 39  1  0  0  0
 39 40  1  0  0  0
 40 41  1  0  0  0
 29 24  1  0  0  0
  9  3  1  0  0  0
 35 30  1  0  0  0
 41 36  1  0  0  0
 17 12  1  0  0  0
  1  2  1  0  0  0
 10 11  1  0  0  0
M  END
> <minimizedAffinity>
-8.72463

> <CNNscore>
0.3520607650

> <CNNaffinity>
7.1040735245

> <CNN_VS>
2.5010654926

> <CNNaffinity_variance>
0.4011774957

$$$$
[H]c1nc(N([H])c2c([H])c([H])c(N3C([H])([H])C([H])([H])C([H])(N4C([H])([H])C([H])([H])OC([H])([H])C4([H])[H])C([H])([H])C3([H])[H])c([H])c2OC([H])([H])[H])nc(N([H])c2c([H])c([H])c([H])c([H])c2S(=O)(=O)C([H])(C([H])([H])[H])C([H])([H])[H])c1Cl


 43 47  0  0  0  0  0  0  0  0999 V2000
    4.4631    1.4797   18.4974 N   0  0  0  0  0  0  0  0  0  0  0  0
    5.0378    0.5551   18.5876 H   0  0  0  0  0  0  0  0  0  0  0  0
    4.3088    2.1681   19.7156 C   0  0  0  0  0  0  0  0  0  0  0  0
    4.0952    1.3977   20.8418 N   0  0  0  0  0  0  0  0  0  0  0  0
    3.9601    1.8855   22.0573 C   0  0  0  0  0  0  0  0  0  0  0  0
    4.0324    3.2470   22.2493 C   0  0  0  0  0  0  0  0  0  0  0  0
    3.8691    3.9704   23.8237 Cl  0  0  0  0  0  0  0  0  0  0  0  0
    4.2496    4.0900   21.1446 C   0  0  0  0  0  0  0  0  0  0  0  0
    4.3724    3.4734   19.9439 N   0  0  0  0  0  0  0  0  0  0  0  0
    4.2904    5.4666   21.3790 N   0  0  0  0  0  0  0  0  0  0  0  0
    3.3401    5.9216   21.5521 H   0  0  0  0  0  0  0  0  0  0  0  0
    5.3676    6.3720   21.4489 C   0  0  0  0  0  0  0  0  0  0  0  0
    6.2650    6.3886   22.4846 C   0  0  0  0  0  0  0  0  0  0  0  0
    7.2627    7.3388   22.5359 C   0  0  0  0  0  0  0  0  0  0  0  0
    7.3980    8.2976   21.5637 C   0  0  0  0  0  0  0  0  0  0  0  0
    6.4986    8.2965   20.5065 C   0  0  0  0  0  0  0  0  0  0  0  0
    5.4992    7.3525   20.4461 C   0  0  0  0  0  0  0  0  0  0  0  0
    4.4361    7.4185   19.0753 S   0  0  0  0  0  0  0  0  0  0  0  0
    3.2150    6.5608   19.2078 O   0  0  0  0  0  0  0  0  0  0  0  0
    3.8921    8.8489   18.9731 O   0  0  0  0  0  0  0  0  0  0  0  0
    5.2716    7.0509   17.5740 C   0  0  0  0  0  0  0  0  0  0  0  0
    6.2145    5.8410   17.7996 C   0  0  0  0  0  0  0  0  0  0  0  0
    4.3445    6.7720   16.4223 C   0  0  0  0  0  0  0  0  0  0  0  0
    3.1432    0.8494   16.6066 C   0  0  0  0  0  0  0  0  0  0  0  0
    2.6498    1.1453   15.3583 C   0  0  0  0  0  0  0  0  0  0  0  0
    2.9715    2.3156   14.6777 C   0  0  0  0  0  0  0  0  0  0  0  0
    3.8173    3.1981   15.2925 C   0  0  0  0  0  0  0  0  0  0  0  0
    4.3423    2.9336   16.5673 C   0  0  0  0  0  0  0  0  0  0  0  0
    4.0049    1.7694   17.2122 C   0  0  0  0  0  0  0  0  0  0  0  0
    2.4694    2.6078   13.3813 N   0  0  0  0  0  0  0  0  0  0  0  0
    1.4565    1.7481   12.7640 C   0  0  0  0  0  0  0  0  0  0  0  0
    0.7830    2.5075   11.6222 C   0  0  0  0  0  0  0  0  0  0  0  0
    0.4380    3.8925   12.0865 C   0  0  0  0  0  0  0  0  0  0  0  0
    1.7413    4.6543   12.2005 C   0  0  0  0  0  0  0  0  0  0  0  0
    2.8844    3.7363   12.5945 C   0  0  0  0  0  0  0  0  0  0  0  0
   -0.3966    4.5756   11.1364 N   0  0  0  0  0  0  0  0  0  0  0  0
   -1.7310    4.7969   11.7083 C   0  0  0  0  0  0  0  0  0  0  0  0
   -2.5072    5.5870   10.6690 C   0  0  0  0  0  0  0  0  0  0  0  0
   -2.6662    4.8634    9.4926 O   0  0  0  0  0  0  0  0  0  0  0  0
   -1.3924    4.6771    8.9682 C   0  0  0  0  0  0  0  0  0  0  0  0
   -0.6274    3.7961    9.9331 C   0  0  0  0  0  0  0  0  0  0  0  0
    1.8475   -0.2708   18.3082 C   0  0  0  0  0  0  0  0  0  0  0  0
    2.8196   -0.3172   17.2787 O   0  0  0  0  0  0  0  0  0  0  0  0
 42 43  1  0  0  0
 43 24  1  0  0  0
 24 25  2  0  0  0
 25 26  1  0  0  0
 26 27  2  0  0  0
 27 28  1  0  0  0
 28 29  2  0  0  0
 29  1  1  0  0  0
  1  3  1  0  0  0
  3  4  2  0  0  0
  4  5  1  0  0  0
  5  6  2  0  0  0
  6  7  1  0  0  0
  6  8  1  0  0  0
  8 10  1  0  0  0
 10 12  1  0  0  0
 12 13  2  0  0  0
 13 14  1  0  0  0
 14 15  2  0  0  0
 15 16  1  0  0  0
 16 17  2  0  0  0
 17 18  1  0  0  0
 18 19  2  0  0  0
 18 20  2  0  0  0
 18 21  1  0  0  0
 21 22  1  0  0  0
 21 23  1  0  0  0
  8  9  2  0  0  0
 26 30  1  0  0  0
 30 31  1  0  0  0
 31 32  1  0  0  0
 32 33  1  0  0  0
 33 34  1  0  0  0
 34 35  1  0  0  0
 33 36  1  0  0  0
 36 37  1  0  0  0
 37 38  1  0  0  0
 38 39  1  0  0  0
 39 40  1  0  0  0
 40 41  1  0  0  0
 29 24  1  0  0  0
  9  3  1  0  0  0
 35 30  1  0  0  0
 41 36  1  0  0  0
 17 12  1  0  0  0
  1  2  1  0  0  0
 10 11  1  0  0  0
M  END
> <minimizedAffinity>
-9.11322

> <CNNscore>
0.3389712274

> <CNNaffinity>
7.3030710220

> <CNN_VS>
2.4755308628

> <CNNaffinity_variance>
0.4138755202

$$$$
[H]c1nc(N([H])c2c([H])c([H])c(N3C([H])([H])C([H])([H])C([H])(N4C([H])([H])C([H])([H])OC([H])([H])C4([H])[H])C([H])([H])C3([H])[H])c([H])c2OC([H])([H])[H])nc(N([H])c2c([H])c([H])c([H])c([H])c2S(=O)(=O)C([H])(C([H])([H])[H])C([H])([H])[H])c1Cl


 43 47  0  0  0  0  0  0  0  0999 V2000
    4.9035    9.5486   15.8498 N   0  0  0  0  0  0  0  0  0  0  0  0
    5.4056   10.4889   15.6111 H   0  0  0  0  0  0  0  0  0  0  0  0
    4.8320    9.2831   17.2304 C   0  0  0  0  0  0  0  0  0  0  0  0
    5.3672   10.2359   18.0749 N   0  0  0  0  0  0  0  0  0  0  0  0
    5.3542   10.1514   19.3888 C   0  0  0  0  0  0  0  0  0  0  0  0
    4.7765    9.0546   19.9881 C   0  0  0  0  0  0  0  0  0  0  0  0
    4.7140    8.8696   21.7175 Cl  0  0  0  0  0  0  0  0  0  0  0  0
    4.2112    8.0467   19.1863 C   0  0  0  0  0  0  0  0  0  0  0  0
    4.2853    8.2436   17.8474 N   0  0  0  0  0  0  0  0  0  0  0  0
    3.6586    6.9387   19.8332 N   0  0  0  0  0  0  0  0  0  0  0  0
    2.5937    6.9486   19.9114 H   0  0  0  0  0  0  0  0  0  0  0  0
    4.2520    5.7890   20.3907 C   0  0  0  0  0  0  0  0  0  0  0  0
    4.8505    5.7787   21.6236 C   0  0  0  0  0  0  0  0  0  0  0  0
    5.4736    4.6423   22.0938 C   0  0  0  0  0  0  0  0  0  0  0  0
    5.5210    3.4864   21.3560 C   0  0  0  0  0  0  0  0  0  0  0  0
    4.9199    3.4774   20.1049 C   0  0  0  0  0  0  0  0  0  0  0  0
    4.2955    4.6064   19.6263 C   0  0  0  0  0  0  0  0  0  0  0  0
    3.5542    4.4922   18.0609 S   0  0  0  0  0  0  0  0  0  0  0  0
    3.1682    3.0989   17.6682 O   0  0  0  0  0  0  0  0  0  0  0  0
    2.2265    5.2584   18.1144 O   0  0  0  0  0  0  0  0  0  0  0  0
    4.5461    5.2196   16.8063 C   0  0  0  0  0  0  0  0  0  0  0  0
    6.0405    5.0818   17.1956 C   0  0  0  0  0  0  0  0  0  0  0  0
    4.3149    4.6325   15.4404 C   0  0  0  0  0  0  0  0  0  0  0  0
    5.3542    8.6133   13.6966 C   0  0  0  0  0  0  0  0  0  0  0  0
    4.9388    7.8588   12.6254 C   0  0  0  0  0  0  0  0  0  0  0  0
    3.6686    7.2963   12.5460 C   0  0  0  0  0  0  0  0  0  0  0  0
    2.8090    7.5144   13.5879 C   0  0  0  0  0  0  0  0  0  0  0  0
    3.1948    8.2786   14.7005 C   0  0  0  0  0  0  0  0  0  0  0  0
    4.4557    8.8198   14.7481 C   0  0  0  0  0  0  0  0  0  0  0  0
    3.2411    6.5299   11.4288 N   0  0  0  0  0  0  0  0  0  0  0  0
    4.1797    5.6525   10.7249 C   0  0  0  0  0  0  0  0  0  0  0  0
    3.3926    4.6404    9.8940 C   0  0  0  0  0  0  0  0  0  0  0  0
    2.2849    4.0698   10.7308 C   0  0  0  0  0  0  0  0  0  0  0  0
    1.2510    5.1634   10.8948 C   0  0  0  0  0  0  0  0  0  0  0  0
    1.8986    6.5363   10.9163 C   0  0  0  0  0  0  0  0  0  0  0  0
    1.6541    2.9531   10.0818 N   0  0  0  0  0  0  0  0  0  0  0  0
    0.2339    3.2449    9.8485 C   0  0  0  0  0  0  0  0  0  0  0  0
   -0.3220    2.0490    9.0952 C   0  0  0  0  0  0  0  0  0  0  0  0
   -0.2486    0.8880    9.8565 O   0  0  0  0  0  0  0  0  0  0  0  0
    1.1029    0.6297   10.0536 C   0  0  0  0  0  0  0  0  0  0  0  0
    1.6623    1.7534   10.9002 C   0  0  0  0  0  0  0  0  0  0  0  0
    7.6428    8.6666   12.9294 C   0  0  0  0  0  0  0  0  0  0  0  0
    6.6197    9.1708   13.7696 O   0  0  0  0  0  0  0  0  0  0  0  0
 42 43  1  0  0  0
 43 24  1  0  0  0
 24 25  2  0  0  0
 25 26  1  0  0  0
 26 27  2  0  0  0
 27 28  1  0  0  0
 28 29  2  0  0  0
 29  1  1  0  0  0
  1  3  1  0  0  0
  3  4  2  0  0  0
  4  5  1  0  0  0
  5  6  2  0  0  0
  6  7  1  0  0  0
  6  8  1  0  0  0
  8 10  1  0  0  0
 10 12  1  0  0  0
 12 13  2  0  0  0
 13 14  1  0  0  0
 14 15  2  0  0  0
 15 16  1  0  0  0
 16 17  2  0  0  0
 17 18  1  0  0  0
 18 19  2  0  0  0
 18 20  2  0  0  0
 18 21  1  0  0  0
 21 22  1  0  0  0
 21 23  1  0  0  0
  8  9  2  0  0  0
 26 30  1  0  0  0
 30 31  1  0  0  0
 31 32  1  0  0  0
 32 33  1  0  0  0
 33 34  1  0  0  0
 34 35  1  0  0  0
 33 36  1  0  0  0
 36 37  1  0  0  0
 37 38  1  0  0  0
 38 39  1  0  0  0
 39 40  1  0  0  0
 40 41  1  0  0  0
 29 24  1  0  0  0
  9  3  1  0  0  0
 35 30  1  0  0  0
 41 36  1  0  0  0
 17 12  1  0  0  0
  1  2  1  0  0  0
 10 11  1  0  0  0
M  END
> <minimizedAffinity>
-7.85549

> <CNNscore>
0.2119241655

> <CNNaffinity>
6.4435515404

> <CNN_VS>
1.3655443192

> <CNNaffinity_variance>
0.2536154389

$$$$
[H]c1nc(N([H])c2c([H])c([H])c(N3C([H])([H])C([H])([H])C([H])(N4C([H])([H])C([H])([H])OC([H])([H])C4([H])[H])C([H])([H])C3([H])[H])c([H])c2OC([H])([H])[H])nc(N([H])c2c([H])c([H])c([H])c([H])c2S(=O)(=O)C([H])(C([H])([H])[H])C([H])([H])[H])c1Cl


 43 47  0  0  0  0  0  0  0  0999 V2000
    4.9012    2.2988   17.9683 N   0  0  0  0  0  0  0  0  0  0  0  0
    5.5811    1.4439   17.9800 H   0  0  0  0  0  0  0  0  0  0  0  0
    4.7697    2.9310   19.2192 C   0  0  0  0  0  0  0  0  0  0  0  0
    4.1523    2.2063   20.2197 N   0  0  0  0  0  0  0  0  0  0  0  0
    3.9781    2.6426   21.4498 C   0  0  0  0  0  0  0  0  0  0  0  0
    4.4304    3.8978   21.7902 C   0  0  0  0  0  0  0  0  0  0  0  0
    4.2436    4.5460   23.3946 Cl  0  0  0  0  0  0  0  0  0  0  0  0
    5.0697    4.6889   20.8190 C   0  0  0  0  0  0  0  0  0  0  0  0
    5.1907    4.1337   19.5885 N   0  0  0  0  0  0  0  0  0  0  0  0
    5.4902    5.9659   21.1985 N   0  0  0  0  0  0  0  0  0  0  0  0
    6.1618    5.9901   22.0283 H   0  0  0  0  0  0  0  0  0  0  0  0
    5.2035    7.2404   20.6708 C   0  0  0  0  0  0  0  0  0  0  0  0
    4.1622    7.4777   19.8120 C   0  0  0  0  0  0  0  0  0  0  0  0
    3.9658    8.7318   19.2739 C   0  0  0  0  0  0  0  0  0  0  0  0
    4.7950    9.7837   19.5715 C   0  0  0  0  0  0  0  0  0  0  0  0
    5.8550    9.5627   20.4399 C   0  0  0  0  0  0  0  0  0  0  0  0
    6.0598    8.3147   20.9823 C   0  0  0  0  0  0  0  0  0  0  0  0
    7.3983    8.1409   22.0739 S   0  0  0  0  0  0  0  0  0  0  0  0
    7.0191    7.6220   23.4272 O   0  0  0  0  0  0  0  0  0  0  0  0
    8.3347    7.0702   21.5000 O   0  0  0  0  0  0  0  0  0  0  0  0
    8.3166    9.6302   22.2344 C   0  0  0  0  0  0  0  0  0  0  0  0
    8.0057   10.2737   23.6103 C   0  0  0  0  0  0  0  0  0  0  0  0
    9.8012    9.4413   22.0793 C   0  0  0  0  0  0  0  0  0  0  0  0
    3.5584    1.5536   16.1364 C   0  0  0  0  0  0  0  0  0  0  0  0
    2.9354    1.8234   14.9412 C   0  0  0  0  0  0  0  0  0  0  0  0
    3.0234    3.0585   14.3063 C   0  0  0  0  0  0  0  0  0  0  0  0
    3.7668    4.0345   14.9119 C   0  0  0  0  0  0  0  0  0  0  0  0
    4.4181    3.7995   16.1331 C   0  0  0  0  0  0  0  0  0  0  0  0
    4.3111    2.5695   16.7338 C   0  0  0  0  0  0  0  0  0  0  0  0
    2.3888    3.3253   13.0636 N   0  0  0  0  0  0  0  0  0  0  0  0
    1.2069    2.5636   12.6524 C   0  0  0  0  0  0  0  0  0  0  0  0
    0.4801    3.3252   11.5453 C   0  0  0  0  0  0  0  0  0  0  0  0
    0.3679    4.7710   11.9324 C   0  0  0  0  0  0  0  0  0  0  0  0
    1.7557    5.3648   11.8176 C   0  0  0  0  0  0  0  0  0  0  0  0
    2.8245    4.3359   12.1396 C   0  0  0  0  0  0  0  0  0  0  0  0
   -0.5005    5.4906   11.0413 N   0  0  0  0  0  0  0  0  0  0  0  0
   -1.7036    4.6960   10.7625 C   0  0  0  0  0  0  0  0  0  0  0  0
   -2.5864    5.5654    9.8840 C   0  0  0  0  0  0  0  0  0  0  0  0
   -1.9750    5.8476    8.6677 O   0  0  0  0  0  0  0  0  0  0  0  0
   -0.8477    6.6069    8.9590 C   0  0  0  0  0  0  0  0  0  0  0  0
    0.1037    5.7272    9.7421 C   0  0  0  0  0  0  0  0  0  0  0  0
    2.3164    0.0265   17.5344 C   0  0  0  0  0  0  0  0  0  0  0  0
    3.4673    0.3222   16.7631 O   0  0  0  0  0  0  0  0  0  0  0  0
 42 43  1  0  0  0
 43 24  1  0  0  0
 24 25  2  0  0  0
 25 26  1  0  0  0
 26 27  2  0  0  0
 27 28  1  0  0  0
 28 29  2  0  0  0
 29  1  1  0  0  0
  1  3  1  0  0  0
  3  4  2  0  0  0
  4  5  1  0  0  0
  5  6  2  0  0  0
  6  7  1  0  0  0
  6  8  1  0  0  0
  8 10  1  0  0  0
 10 12  1  0  0  0
 12 13  2  0  0  0
 13 14  1  0  0  0
 14 15  2  0  0  0
 15 16  1  0  0  0
 16 17  2  0  0  0
 17 18  1  0  0  0
 18 19  2  0  0  0
 18 20  2  0  0  0
 18 21  1  0  0  0
 21 22  1  0  0  0
 21 23  1  0  0  0
  8  9  2  0  0  0
 26 30  1  0  0  0
 30 31  1  0  0  0
 31 32  1  0  0  0
 32 33  1  0  0  0
 33 34  1  0  0  0
 34 35  1  0  0  0
 33 36  1  0  0  0
 36 37  1  0  0  0
 37 38  1  0  0  0
 38 39  1  0  0  0
 39 40  1  0  0  0
 40 41  1  0  0  0
 29 24  1  0  0  0
  9  3  1  0  0  0
 35 30  1  0  0  0
 41 36  1  0  0  0
 17 12  1  0  0  0
  1  2  1  0  0  0
 10 11  1  0  0  0
M  END
> <minimizedAffinity>
-8.40512

> <CNNscore>
0.0901485831

> <CNNaffinity>
6.6528868675

> <CNN_VS>
0.5997483134

> <CNNaffinity_variance>
0.2802399695

$$$$
[H]c1nc(N([H])c2c([H])c([H])c(N3C([H])([H])C([H])([H])C([H])(N4C([H])([H])C([H])([H])OC([H])([H])C4([H])[H])C([H])([H])C3([H])[H])c([H])c2OC([H])([H])[H])nc(N([H])c2c([H])c([H])c([H])c([H])c2S(=O)(=O)C([H])(C([H])([H])[H])C([H])([H])[H])c1Cl


 43 47  0  0  0  0  0  0  0  0999 V2000
    2.2533    1.8057   14.0106 N   0  0  0  0  0  0  0  0  0  0  0  0
    1.8538    0.8241   14.2754 H   0  0  0  0  0  0  0  0  0  0  0  0
    1.9377    2.2070   12.6987 C   0  0  0  0  0  0  0  0  0  0  0  0
    0.8431    3.0358   12.5489 N   0  0  0  0  0  0  0  0  0  0  0  0
    0.4348    3.5212   11.3950 C   0  0  0  0  0  0  0  0  0  0  0  0
    1.1236    3.1999   10.2469 C   0  0  0  0  0  0  0  0  0  0  0  0
    0.6520    3.8037    8.6842 Cl  0  0  0  0  0  0  0  0  0  0  0  0
    2.2494    2.3609   10.3283 C   0  0  0  0  0  0  0  0  0  0  0  0
    2.5731    1.9226   11.5693 N   0  0  0  0  0  0  0  0  0  0  0  0
    2.9041    2.0387    9.1370 N   0  0  0  0  0  0  0  0  0  0  0  0
    2.6003    2.6106    8.2880 H   0  0  0  0  0  0  0  0  0  0  0  0
    3.9159    1.1013    8.8498 C   0  0  0  0  0  0  0  0  0  0  0  0
    5.2435    1.3337    9.0982 C   0  0  0  0  0  0  0  0  0  0  0  0
    6.1994    0.4079    8.7374 C   0  0  0  0  0  0  0  0  0  0  0  0
    5.8663   -0.7719    8.1210 C   0  0  0  0  0  0  0  0  0  0  0  0
    4.5264   -1.0251    7.8616 C   0  0  0  0  0  0  0  0  0  0  0  0
    3.5647   -0.1076    8.2176 C   0  0  0  0  0  0  0  0  0  0  0  0
    1.9150   -0.5222    7.8715 S   0  0  0  0  0  0  0  0  0  0  0  0
    1.1007    0.6129    7.3300 O   0  0  0  0  0  0  0  0  0  0  0  0
    1.9202   -1.5633    6.7451 O   0  0  0  0  0  0  0  0  0  0  0  0
    1.1083   -1.2346    9.2602 C   0  0  0  0  0  0  0  0  0  0  0  0
   -0.0628   -0.3161    9.6947 C   0  0  0  0  0  0  0  0  0  0  0  0
    0.6022   -2.6296    9.0119 C   0  0  0  0  0  0  0  0  0  0  0  0
    3.2447    1.7143   16.1839 C   0  0  0  0  0  0  0  0  0  0  0  0
    4.0056    2.3095   17.1616 C   0  0  0  0  0  0  0  0  0  0  0  0
    4.5268    3.5935   17.0352 C   0  0  0  0  0  0  0  0  0  0  0  0
    4.2599    4.2785   15.8813 C   0  0  0  0  0  0  0  0  0  0  0  0
    3.4876    3.7061   14.8583 C   0  0  0  0  0  0  0  0  0  0  0  0
    2.9880    2.4367   15.0143 C   0  0  0  0  0  0  0  0  0  0  0  0
    5.3000    4.2079   18.0564 N   0  0  0  0  0  0  0  0  0  0  0  0
    6.1206    5.3854   17.7623 C   0  0  0  0  0  0  0  0  0  0  0  0
    6.4690    6.0928   19.0708 C   0  0  0  0  0  0  0  0  0  0  0  0
    5.2329    6.2071   19.9145 C   0  0  0  0  0  0  0  0  0  0  0  0
    4.9183    4.8160   20.4222 C   0  0  0  0  0  0  0  0  0  0  0  0
    5.3356    3.7551   19.4197 C   0  0  0  0  0  0  0  0  0  0  0  0
    5.4465    7.0595   21.0519 N   0  0  0  0  0  0  0  0  0  0  0  0
    5.2463    8.4637   20.6714 C   0  0  0  0  0  0  0  0  0  0  0  0
    5.4152    9.2721   21.9461 C   0  0  0  0  0  0  0  0  0  0  0  0
    6.7019    9.1525   22.4588 O   0  0  0  0  0  0  0  0  0  0  0  0
    6.8610    7.8195   22.8195 C   0  0  0  0  0  0  0  0  0  0  0  0
    6.8090    6.9953   21.5504 C   0  0  0  0  0  0  0  0  0  0  0  0
    2.5997   -0.1233   17.6109 C   0  0  0  0  0  0  0  0  0  0  0  0
    2.7285    0.4362   16.3158 O   0  0  0  0  0  0  0  0  0  0  0  0
 42 43  1  0  0  0
 43 24  1  0  0  0
 24 25  2  0  0  0
 25 26  1  0  0  0
 26 27  2  0  0  0
 27 28  1  0  0  0
 28 29  2  0  0  0
 29  1  1  0  0  0
  1  3  1  0  0  0
  3  4  2  0  0  0
  4  5  1  0  0  0
  5  6  2  0  0  0
  6  7  1  0  0  0
  6  8  1  0  0  0
  8 10  1  0  0  0
 10 12  1  0  0  0
 12 13  2  0  0  0
 13 14  1  0  0  0
 14 15  2  0  0  0
 15 16  1  0  0  0
 16 17  2  0  0  0
 17 18  1  0  0  0
 18 19  2  0  0  0
 18 20  2  0  0  0
 18 21  1  0  0  0
 21 22  1  0  0  0
 21 23  1  0  0  0
  8  9  2  0  0  0
 26 30  1  0  0  0
 30 31  1  0  0  0
 31 32  1  0  0  0
 32 33  1  0  0  0
 33 34  1  0  0  0
 34 35  1  0  0  0
 33 36  1  0  0  0
 36 37  1  0  0  0
 37 38  1  0  0  0
 38 39  1  0  0  0
 39 40  1  0  0  0
 40 41  1  0  0  0
 29 24  1  0  0  0
  9  3  1  0  0  0
 35 30  1  0  0  0
 41 36  1  0  0  0
 17 12  1  0  0  0
  1  2  1  0  0  0
 10 11  1  0  0  0
M  END
> <minimizedAffinity>
-7.50616

> <CNNscore>
0.0827202126

> <CNNaffinity>
6.7117104530

> <CNN_VS>
0.5551941395

> <CNNaffinity_variance>
0.0643763542

$$$$
[H]c1nc(N([H])c2c([H])c([H])c(N3C([H])([H])C([H])([H])C([H])(N4C([H])([H])C([H])([H])OC([H])([H])C4([H])[H])C([H])([H])C3([H])[H])c([H])c2OC([H])([H])[H])nc(N([H])c2c([H])c([H])c([H])c([H])c2S(=O)(=O)C([H])(C([H])([H])[H])C([H])([H])[H])c1Cl


 43 47  0  0  0  0  0  0  0  0999 V2000
    4.8756    4.2460   16.9316 N   0  0  0  0  0  0  0  0  0  0  0  0
    5.8363    3.7992   16.6659 H   0  0  0  0  0  0  0  0  0  0  0  0
    4.7683    4.5818   18.2945 C   0  0  0  0  0  0  0  0  0  0  0  0
    4.7453    3.5330   19.1928 N   0  0  0  0  0  0  0  0  0  0  0  0
    4.6777    3.6793   20.4996 C   0  0  0  0  0  0  0  0  0  0  0  0
    4.6262    4.9471   21.0342 C   0  0  0  0  0  0  0  0  0  0  0  0
    4.5407    5.2260   22.7500 Cl  0  0  0  0  0  0  0  0  0  0  0  0
    4.6473    6.0607   20.1754 C   0  0  0  0  0  0  0  0  0  0  0  0
    4.7175    5.7854   18.8501 N   0  0  0  0  0  0  0  0  0  0  0  0
    4.5670    7.3283   20.7569 N   0  0  0  0  0  0  0  0  0  0  0  0
    4.6544    7.3412   21.8211 H   0  0  0  0  0  0  0  0  0  0  0  0
    4.4096    8.6088   20.1909 C   0  0  0  0  0  0  0  0  0  0  0  0
    3.4334    8.9079   19.2767 C   0  0  0  0  0  0  0  0  0  0  0  0
    3.3647   10.1607   18.7051 C   0  0  0  0  0  0  0  0  0  0  0  0
    4.2606   11.1501   19.0232 C   0  0  0  0  0  0  0  0  0  0  0  0
    5.2563   10.8660   19.9476 C   0  0  0  0  0  0  0  0  0  0  0  0
    5.3336    9.6187   20.5237 C   0  0  0  0  0  0  0  0  0  0  0  0
    6.5996    9.3648   21.6839 S   0  0  0  0  0  0  0  0  0  0  0  0
    7.0749   10.6181   22.3532 O   0  0  0  0  0  0  0  0  0  0  0  0
    6.0262    8.5138   22.8239 O   0  0  0  0  0  0  0  0  0  0  0  0
    7.9618    8.4952   20.9947 C   0  0  0  0  0  0  0  0  0  0  0  0
    9.2793    9.1890   21.4265 C   0  0  0  0  0  0  0  0  0  0  0  0
    7.9999    7.0394   21.3729 C   0  0  0  0  0  0  0  0  0  0  0  0
    3.8245    5.6424   15.3007 C   0  0  0  0  0  0  0  0  0  0  0  0
    2.9697    5.7744   14.2325 C   0  0  0  0  0  0  0  0  0  0  0  0
    2.2494    4.7065   13.7060 C   0  0  0  0  0  0  0  0  0  0  0  0
    2.4110    3.4797   14.2897 C   0  0  0  0  0  0  0  0  0  0  0  0
    3.2749    3.3026   15.3820 C   0  0  0  0  0  0  0  0  0  0  0  0
    3.9714    4.3770   15.8776 C   0  0  0  0  0  0  0  0  0  0  0  0
    1.3563    4.8535   12.6110 N   0  0  0  0  0  0  0  0  0  0  0  0
    0.9421    3.6877   11.8264 C   0  0  0  0  0  0  0  0  0  0  0  0
   -0.3201    4.0361   11.0394 C   0  0  0  0  0  0  0  0  0  0  0  0
   -1.2891    4.7377   11.9459 C   0  0  0  0  0  0  0  0  0  0  0  0
   -0.7274    6.1200   12.2025 C   0  0  0  0  0  0  0  0  0  0  0  0
    0.7906    6.1083   12.1984 C   0  0  0  0  0  0  0  0  0  0  0  0
   -2.5777    4.8875   11.3272 N   0  0  0  0  0  0  0  0  0  0  0  0
   -2.4238    5.4336    9.9727 C   0  0  0  0  0  0  0  0  0  0  0  0
   -3.8205    5.4807    9.3780 C   0  0  0  0  0  0  0  0  0  0  0  0
   -4.6487    6.3417   10.0892 O   0  0  0  0  0  0  0  0  0  0  0  0
   -4.7854    5.7974   11.3609 C   0  0  0  0  0  0  0  0  0  0  0  0
   -3.4245    5.8402   12.0231 C   0  0  0  0  0  0  0  0  0  0  0  0
    4.0441    8.0236   15.6336 C   0  0  0  0  0  0  0  0  0  0  0  0
    4.5384    6.7091   15.8203 O   0  0  0  0  0  0  0  0  0  0  0  0
 42 43  1  0  0  0
 43 24  1  0  0  0
 24 25  2  0  0  0
 25 26  1  0  0  0
 26 27  2  0  0  0
 27 28  1  0  0  0
 28 29  2  0  0  0
 29  1  1  0  0  0
  1  3  1  0  0  0
  3  4  2  0  0  0
  4  5  1  0  0  0
  5  6  2  0  0  0
  6  7  1  0  0  0
  6  8  1  0  0  0
  8 10  1  0  0  0
 10 12  1  0  0  0
 12 13  2  0  0  0
 13 14  1  0  0  0
 14 15  2  0  0  0
 15 16  1  0  0  0
 16 17  2  0  0  0
 17 18  1  0  0  0
 18 19  2  0  0  0
 18 20  2  0  0  0
 18 21  1  0  0  0
 21 22  1  0  0  0
 21 23  1  0  0  0
  8  9  2  0  0  0
 26 30  1  0  0  0
 30 31  1  0  0  0
 31 32  1  0  0  0
 32 33  1  0  0  0
 33 34  1  0  0  0
 34 35  1  0  0  0
 33 36  1  0  0  0
 36 37  1  0  0  0
 37 38  1  0  0  0
 38 39  1  0  0  0
 39 40  1  0  0  0
 40 41  1  0  0  0
 29 24  1  0  0  0
  9  3  1  0  0  0
 35 30  1  0  0  0
 41 36  1  0  0  0
 17 12  1  0  0  0
  1  2  1  0  0  0
 10 11  1  0  0  0
M  END
> <minimizedAffinity>
-8.40633

> <CNNscore>
0.0741359740

> <CNNaffinity>
6.1604452133

> <CNN_VS>
0.4567106068

> <CNNaffinity_variance>
0.4339184165

$$$$
[H]c1nc(N([H])c2c([H])c([H])c(N3C([H])([H])C([H])([H])C([H])(N4C([H])([H])C([H])([H])OC([H])([H])C4([H])[H])C([H])([H])C3([H])[H])c([H])c2OC([H])([H])[H])nc(N([H])c2c([H])c([H])c([H])c([H])c2S(=O)(=O)C([H])(C([H])([H])[H])C([H])([H])[H])c1Cl


 43 47  0  0  0  0  0  0  0  0999 V2000
    4.1007    5.1703   14.7863 N   0  0  0  0  0  0  0  0  0  0  0  0
    5.0627    5.1270   14.2707 H   0  0  0  0  0  0  0  0  0  0  0  0
    4.2154    5.3346   16.1797 C   0  0  0  0  0  0  0  0  0  0  0  0
    4.1609    6.6286   16.6592 N   0  0  0  0  0  0  0  0  0  0  0  0
    4.2243    6.9483   17.9350 C   0  0  0  0  0  0  0  0  0  0  0  0
    4.3526    5.9500   18.8746 C   0  0  0  0  0  0  0  0  0  0  0  0
    4.4383    6.2883   20.5796 Cl  0  0  0  0  0  0  0  0  0  0  0  0
    4.4128    4.6092   18.4544 C   0  0  0  0  0  0  0  0  0  0  0  0
    4.3386    4.4036   17.1168 N   0  0  0  0  0  0  0  0  0  0  0  0
    4.5692    3.6291   19.4375 N   0  0  0  0  0  0  0  0  0  0  0  0
    5.1595    3.9245   20.2769 H   0  0  0  0  0  0  0  0  0  0  0  0
    4.0707    2.3151   19.5361 C   0  0  0  0  0  0  0  0  0  0  0  0
    3.6905    1.5754   18.4468 C   0  0  0  0  0  0  0  0  0  0  0  0
    3.1479    0.3179   18.6048 C   0  0  0  0  0  0  0  0  0  0  0  0
    2.9670   -0.2403   19.8452 C   0  0  0  0  0  0  0  0  0  0  0  0
    3.3465    0.4937   20.9605 C   0  0  0  0  0  0  0  0  0  0  0  0
    3.8889    1.7498   20.8135 C   0  0  0  0  0  0  0  0  0  0  0  0
    4.3523    2.5817   22.2648 S   0  0  0  0  0  0  0  0  0  0  0  0
    3.8090    3.9739   22.3707 O   0  0  0  0  0  0  0  0  0  0  0  0
    3.7303    1.8350   23.4515 O   0  0  0  0  0  0  0  0  0  0  0  0
    6.0947    2.5954   22.4901 C   0  0  0  0  0  0  0  0  0  0  0  0
    6.7237    1.4457   21.6616 C   0  0  0  0  0  0  0  0  0  0  0  0
    6.7386    3.9048   22.1233 C   0  0  0  0  0  0  0  0  0  0  0  0
    2.5456    3.7547   13.6495 C   0  0  0  0  0  0  0  0  0  0  0  0
    1.4175    3.6195   12.8760 C   0  0  0  0  0  0  0  0  0  0  0  0
    0.6967    4.7087   12.3960 C   0  0  0  0  0  0  0  0  0  0  0  0
    1.1452    5.9608   12.7171 C   0  0  0  0  0  0  0  0  0  0  0  0
    2.2927    6.1418   13.5052 C   0  0  0  0  0  0  0  0  0  0  0  0
    2.9814    5.0459   13.9634 C   0  0  0  0  0  0  0  0  0  0  0  0
   -0.4600    4.5614   11.5846 N   0  0  0  0  0  0  0  0  0  0  0  0
   -1.6987    5.2689   11.9186 C   0  0  0  0  0  0  0  0  0  0  0  0
   -2.6038    5.3027   10.6882 C   0  0  0  0  0  0  0  0  0  0  0  0
   -1.7918    5.6962    9.4888 C   0  0  0  0  0  0  0  0  0  0  0  0
   -0.9051    4.5160    9.1530 C   0  0  0  0  0  0  0  0  0  0  0  0
   -0.5136    3.7469   10.4020 C   0  0  0  0  0  0  0  0  0  0  0  0
   -2.6271    5.9648    8.3504 N   0  0  0  0  0  0  0  0  0  0  0  0
   -2.3085    5.0312    7.2626 C   0  0  0  0  0  0  0  0  0  0  0  0
   -3.2879    5.3406    6.1437 C   0  0  0  0  0  0  0  0  0  0  0  0
   -3.1148    6.6314    5.6571 O   0  0  0  0  0  0  0  0  0  0  0  0
   -3.4319    7.4928    6.7010 C   0  0  0  0  0  0  0  0  0  0  0  0
   -2.4015    7.2858    7.7909 C   0  0  0  0  0  0  0  0  0  0  0  0
    2.5970    1.7103   14.9328 C   0  0  0  0  0  0  0  0  0  0  0  0
    3.2588    2.6667   14.1240 O   0  0  0  0  0  0  0  0  0  0  0  0
 42 43  1  0  0  0
 43 24  1  0  0  0
 24 25  2  0  0  0
 25 26  1  0  0  0
 26 27  2  0  0  0
 27 28  1  0  0  0
 28 29  2  0  0  0
 29  1  1  0  0  0
  1  3  1  0  0  0
  3  4  2  0  0  0
  4  5  1  0  0  0
  5  6  2  0  0  0
  6  7  1  0  0  0
  6  8  1  0  0  0
  8 10  1  0  0  0
 10 12  1  0  0  0
 12 13  2  0  0  0
 13 14  1  0  0  0
 14 15  2  0  0  0
 15 16  1  0  0  0
 16 17  2  0  0  0
 17 18  1  0  0  0
 18 19  2  0  0  0
 18 20  2  0  0  0
 18 21  1  0  0  0
 21 22  1  0  0  0
 21 23  1  0  0  0
  8  9  2  0  0  0
 26 30  1  0  0  0
 30 31  1  0  0  0
 31 32  1  0  0  0
 32 33  1  0  0  0
 33 34  1  0  0  0
 34 35  1  0  0  0
 33 36  1  0  0  0
 36 37  1  0  0  0
 37 38  1  0  0  0
 38 39  1  0  0  0
 39 40  1  0  0  0
 40 41  1  0  0  0
 29 24  1  0  0  0
  9  3  1  0  0  0
 35 30  1  0  0  0
 41 36  1  0  0  0
 17 12  1  0  0  0
  1  2  1  0  0  0
 10 11  1  0  0  0
M  END
> <minimizedAffinity>
-7.83948

> <CNNscore>
0.0729784891

> <CNNaffinity>
6.4869995117

> <CNN_VS>
0.4734114110

> <CNNaffinity_variance>
0.1599157900

$$$$
[H]c1nc(N([H])c2c([H])c([H])c(N3C([H])([H])C([H])([H])C([H])(N4C([H])([H])C([H])([H])OC([H])([H])C4([H])[H])C([H])([H])C3([H])[H])c([H])c2OC([H])([H])[H])nc(N([H])c2c([H])c([H])c([H])c([H])c2S(=O)(=O)C([H])(C([H])([H])[H])C([H])([H])[H])c1Cl


 43 47  0  0  0  0  0  0  0  0999 V2000
    2.1225    1.9358   14.2661 N   0  0  0  0  0  0  0  0  0  0  0  0
    1.6366    1.0053   14.5684 H   0  0  0  0  0  0  0  0  0  0  0  0
    1.8659    2.2969   12.9299 C   0  0  0  0  0  0  0  0  0  0  0  0
    0.7751    3.1138   12.7056 N   0  0  0  0  0  0  0  0  0  0  0  0
    0.4182    3.5629   11.5204 C   0  0  0  0  0  0  0  0  0  0  0  0
    1.1611    3.2130   10.4151 C   0  0  0  0  0  0  0  0  0  0  0  0
    0.7593    3.7682    8.8154 Cl  0  0  0  0  0  0  0  0  0  0  0  0
    2.2863    2.3841   10.5729 C   0  0  0  0  0  0  0  0  0  0  0  0
    2.5544    1.9840   11.8399 N   0  0  0  0  0  0  0  0  0  0  0  0
    2.9972    2.0318    9.4231 N   0  0  0  0  0  0  0  0  0  0  0  0
    2.5857    2.4006    8.5094 H   0  0  0  0  0  0  0  0  0  0  0  0
    4.1803    1.2877    9.2462 C   0  0  0  0  0  0  0  0  0  0  0  0
    4.2412   -0.0715    9.4113 C   0  0  0  0  0  0  0  0  0  0  0  0
    5.4397   -0.7420    9.2895 C   0  0  0  0  0  0  0  0  0  0  0  0
    6.6093   -0.0850    9.0014 C   0  0  0  0  0  0  0  0  0  0  0  0
    6.5674    1.2918    8.8302 C   0  0  0  0  0  0  0  0  0  0  0  0
    5.3763    1.9706    8.9499 C   0  0  0  0  0  0  0  0  0  0  0  0
    5.4201    3.6875    8.6977 S   0  0  0  0  0  0  0  0  0  0  0  0
    4.3608    4.1953    7.7680 O   0  0  0  0  0  0  0  0  0  0  0  0
    5.1122    4.3657   10.0386 O   0  0  0  0  0  0  0  0  0  0  0  0
    7.0024    4.2364    8.1668 C   0  0  0  0  0  0  0  0  0  0  0  0
    7.0208    4.3138    6.6185 C   0  0  0  0  0  0  0  0  0  0  0  0
    7.4071    5.5620    8.7523 C   0  0  0  0  0  0  0  0  0  0  0  0
    3.1705    1.8177   16.4114 C   0  0  0  0  0  0  0  0  0  0  0  0
    3.9627    2.3980   17.3731 C   0  0  0  0  0  0  0  0  0  0  0  0
    4.4924    3.6781   17.2429 C   0  0  0  0  0  0  0  0  0  0  0  0
    4.2013    4.3749   16.1020 C   0  0  0  0  0  0  0  0  0  0  0  0
    3.3967    3.8179   15.0955 C   0  0  0  0  0  0  0  0  0  0  0  0
    2.8895    2.5519   15.2548 C   0  0  0  0  0  0  0  0  0  0  0  0
    5.2982    4.2771   18.2479 N   0  0  0  0  0  0  0  0  0  0  0  0
    6.1222    5.4489   17.9411 C   0  0  0  0  0  0  0  0  0  0  0  0
    6.5119    6.1428   19.2452 C   0  0  0  0  0  0  0  0  0  0  0  0
    5.2997    6.2623   20.1221 C   0  0  0  0  0  0  0  0  0  0  0  0
    4.9850    4.8704   20.6275 C   0  0  0  0  0  0  0  0  0  0  0  0
    5.3654    3.8134   19.6063 C   0  0  0  0  0  0  0  0  0  0  0  0
    5.5516    7.1038   21.2598 N   0  0  0  0  0  0  0  0  0  0  0  0
    5.5469    8.5144   20.8517 C   0  0  0  0  0  0  0  0  0  0  0  0
    5.7413    9.3202   22.1244 C   0  0  0  0  0  0  0  0  0  0  0  0
    6.9726    9.0546   22.7128 O   0  0  0  0  0  0  0  0  0  0  0  0
    6.9464    7.7192   23.0979 C   0  0  0  0  0  0  0  0  0  0  0  0
    6.8655    6.8836   21.8379 C   0  0  0  0  0  0  0  0  0  0  0  0
    2.5753   -0.0376   17.8371 C   0  0  0  0  0  0  0  0  0  0  0  0
    2.6461    0.5433   16.5470 O   0  0  0  0  0  0  0  0  0  0  0  0
 42 43  1  0  0  0
 43 24  1  0  0  0
 24 25  2  0  0  0
 25 26  1  0  0  0
 26 27  2  0  0  0
 27 28  1  0  0  0
 28 29  2  0  0  0
 29  1  1  0  0  0
  1  3  1  0  0  0
  3  4  2  0  0  0
  4  5  1  0  0  0
  5  6  2  0  0  0
  6  7  1  0  0  0
  6  8  1  0  0  0
  8 10  1  0  0  0
 10 12  1  0  0  0
 12 13  2  0  0  0
 13 14  1  0  0  0
 14 15  2  0  0  0
 15 16  1  0  0  0
 16 17  2  0  0  0
 17 18  1  0  0  0
 18 19  2  0  0  0
 18 20  2  0  0  0
 18 21  1  0  0  0
 21 22  1  0  0  0
 21 23  1  0  0  0
  8  9  2  0  0  0
 26 30  1  0  0  0
 30 31  1  0  0  0
 31 32  1  0  0  0
 32 33  1  0  0  0
 33 34  1  0  0  0
 34 35  1  0  0  0
 33 36  1  0  0  0
 36 37  1  0  0  0
 37 38  1  0  0  0
 38 39  1  0  0  0
 39 40  1  0  0  0
 40 41  1  0  0  0
 29 24  1  0  0  0
  9  3  1  0  0  0
 35 30  1  0  0  0
 41 36  1  0  0  0
 17 12  1  0  0  0
  1  2  1  0  0  0
 10 11  1  0  0  0
M  END
> <minimizedAffinity>
-7.63224

> <CNNscore>
0.0729080588

> <CNNaffinity>
6.6278815269

> <CNN_VS>
0.4832259715

> <CNNaffinity_variance>
0.0891730934

$$$$
[H]OC(=O)[C@@]([H])(N([H])C(=O)[C@@]([H])(N([H])C(=O)[C@@]([H])(N([H])[H])C([H])([H])c1c([H])c([H])c([H])c([H])c1[H])C([H])([H])C([H])(C([H])([H])[H])C([H])([H])[H])C([H])([H])C([H])(C([H])([H])[H])C([H])([H])[H]


 33 33  0  0  0  0  0  0  0  0999 V2000
    4.0103    5.5027   18.1741 C   0  0  0  0  0  0  0  0  0  0  0  0
    3.6284    3.3098   17.0377 N   0  0  0  0  0  0  0  0  0  0  0  0
    3.1196    4.5585   17.4266 C   0  0  0  0  0  0  0  0  0  0  0  0
    1.9235    4.8487   17.1343 O   0  0  0  0  0  0  0  0  0  0  0  0
    4.5911    2.9713   17.2267 H   0  0  0  0  0  0  0  0  0  0  0  0
    2.7831    2.3152   16.2820 C   0  0  0  0  0  0  0  0  0  0  0  0
    2.7725    1.1440   17.1496 C   0  0  0  0  0  0  0  0  0  0  0  0
    3.4739    1.0960   18.1868 O   0  0  0  0  0  0  0  0  0  0  0  0
    1.9980    0.0429   16.8884 O   0  0  0  0  0  0  0  0  0  0  0  0
    2.0466   -0.8349   17.3865 H   0  0  0  0  0  0  0  0  0  0  0  0
    3.4538    2.2496   14.9741 C   0  0  0  0  0  0  0  0  0  0  0  0
    1.3445    1.9240   13.5946 C   0  0  0  0  0  0  0  0  0  0  0  0
    2.7693    2.3838   13.6965 C   0  0  0  0  0  0  0  0  0  0  0  0
    2.9315    3.7497   13.0417 C   0  0  0  0  0  0  0  0  0  0  0  0
    4.4358    4.8129   19.3751 N   0  0  0  0  0  0  0  0  0  0  0  0
    4.6898    5.4929   20.5844 C   0  0  0  0  0  0  0  0  0  0  0  0
    4.5368    6.7389   20.6182 O   0  0  0  0  0  0  0  0  0  0  0  0
    4.5706    3.7716   19.3900 H   0  0  0  0  0  0  0  0  0  0  0  0
    5.1349    4.8154   21.8247 C   0  0  0  0  0  0  0  0  0  0  0  0
    5.2892    5.7929   22.9113 N   0  0  0  0  0  0  0  0  0  0  0  0
    4.8257    6.6864   22.7071 H   0  0  0  0  0  0  0  0  0  0  0  0
    6.3050    5.8741   23.1494 H   0  0  0  0  0  0  0  0  0  0  0  0
    4.1002    3.8267   22.3398 C   0  0  0  0  0  0  0  0  0  0  0  0
    4.3493    2.4466   21.9380 C   0  0  0  0  0  0  0  0  0  0  0  0
    5.5463    2.0122   21.4466 C   0  0  0  0  0  0  0  0  0  0  0  0
    5.7825    0.7041   21.0656 C   0  0  0  0  0  0  0  0  0  0  0  0
    4.7631   -0.2037   21.1869 C   0  0  0  0  0  0  0  0  0  0  0  0
    3.5324    0.1690   21.6748 C   0  0  0  0  0  0  0  0  0  0  0  0
    3.3394    1.4826   22.0430 C   0  0  0  0  0  0  0  0  0  0  0  0
    5.1588    5.8674   17.2727 C   0  0  0  0  0  0  0  0  0  0  0  0
    5.4776    7.3067   17.1530 C   0  0  0  0  0  0  0  0  0  0  0  0
    4.3063    8.2205   17.4281 C   0  0  0  0  0  0  0  0  0  0  0  0
    6.6841    7.7776   17.9095 C   0  0  0  0  0  0  0  0  0  0  0  0
 12 13  1  0  0  0
 13 14  1  0  0  0
 13 11  1  0  0  0
 11  6  1  0  0  0
  6  2  1  0  0  0
  2  3  1  0  0  0
  3  4  2  0  0  0
  3  1  1  0  0  0
  1 30  1  0  0  0
 30 31  1  0  0  0
 31 32  1  0  0  0
 31 33  1  0  0  0
  1 15  1  0  0  0
 15 16  1  0  0  0
 16 17  2  0  0  0
 16 19  1  0  0  0
 19 20  1  0  0  0
 19 23  1  0  0  0
 23 24  1  0  0  0
 24 25  2  0  0  0
 25 26  1  0  0  0
 26 27  2  0  0  0
 27 28  1  0  0  0
 28 29  2  0  0  0
  6  7  1  0  0  0
  7  8  2  0  0  0
  7  9  1  0  0  0
 29 24  1  0  0  0
  2  5  1  0  0  0
 15 18  1  0  0  0
 20 21  1  0  0  0
 20 22  1  0  0  0
  9 10  1  0  0  0
M  END
> <minimizedAffinity>
-7.45259

> <CNNscore>
0.4550677240

> <CNNaffinity>
6.1691541672

> <CNN_VS>
2.8073830605

> <CNNaffinity_variance>
0.0699656531

$$$$
[H]OC(=O)[C@@]([H])(N([H])C(=O)[C@@]([H])(N([H])C(=O)[C@@]([H])(N([H])[H])C([H])([H])c1c([H])c([H])c([H])c([H])c1[H])C([H])([H])C([H])(C([H])([H])[H])C([H])([H])[H])C([H])([H])C([H])(C([H])([H])[H])C([H])([H])[H]


 33 33  0  0  0  0  0  0  0  0999 V2000
    4.5242    2.9879   19.9166 C   0  0  0  0  0  0  0  0  0  0  0  0
    5.3686    5.0525   21.0438 N   0  0  0  0  0  0  0  0  0  0  0  0
    5.1980    4.3243   19.8564 C   0  0  0  0  0  0  0  0  0  0  0  0
    5.6189    4.8188   18.7707 O   0  0  0  0  0  0  0  0  0  0  0  0
    5.0633    4.7407   21.9855 H   0  0  0  0  0  0  0  0  0  0  0  0
    6.0379    6.4041   21.0500 C   0  0  0  0  0  0  0  0  0  0  0  0
    6.9440    6.3335   22.1895 C   0  0  0  0  0  0  0  0  0  0  0  0
    7.3549    7.3709   22.7596 O   0  0  0  0  0  0  0  0  0  0  0  0
    7.3882    5.1418   22.7025 O   0  0  0  0  0  0  0  0  0  0  0  0
    8.1065    5.0421   23.4061 H   0  0  0  0  0  0  0  0  0  0  0  0
    4.8949    7.3300   21.0815 C   0  0  0  0  0  0  0  0  0  0  0  0
    6.1605    9.2306   19.9660 C   0  0  0  0  0  0  0  0  0  0  0  0
    4.8616    8.6116   20.3922 C   0  0  0  0  0  0  0  0  0  0  0  0
    3.8449    8.6854   19.2602 C   0  0  0  0  0  0  0  0  0  0  0  0
    4.1607    2.6420   18.5574 N   0  0  0  0  0  0  0  0  0  0  0  0
    3.5175    1.4287   18.2352 C   0  0  0  0  0  0  0  0  0  0  0  0
    3.2489    0.6250   19.1620 O   0  0  0  0  0  0  0  0  0  0  0  0
    4.3631    3.2883   17.7549 H   0  0  0  0  0  0  0  0  0  0  0  0
    3.1427    1.0445   16.8541 C   0  0  0  0  0  0  0  0  0  0  0  0
    2.3888   -0.2171   16.8638 N   0  0  0  0  0  0  0  0  0  0  0  0
    2.0371   -0.4595   17.7977 H   0  0  0  0  0  0  0  0  0  0  0  0
    2.9703   -0.9603   16.4113 H   0  0  0  0  0  0  0  0  0  0  0  0
    2.1995    2.0523   16.2155 C   0  0  0  0  0  0  0  0  0  0  0  0
    2.6217    2.5030   14.8939 C   0  0  0  0  0  0  0  0  0  0  0  0
    3.5565    3.4778   14.6963 C   0  0  0  0  0  0  0  0  0  0  0  0
    3.9568    3.9052   13.4437 C   0  0  0  0  0  0  0  0  0  0  0  0
    3.3862    3.3208   12.3432 C   0  0  0  0  0  0  0  0  0  0  0  0
    2.4382    2.3330   12.4728 C   0  0  0  0  0  0  0  0  0  0  0  0
    2.0679    1.9367   13.7394 C   0  0  0  0  0  0  0  0  0  0  0  0
    5.4899    2.0098   20.5292 C   0  0  0  0  0  0  0  0  0  0  0  0
    5.1759    1.5330   21.8937 C   0  0  0  0  0  0  0  0  0  0  0  0
    6.1867    1.9476   22.9372 C   0  0  0  0  0  0  0  0  0  0  0  0
    3.7870    1.8146   22.3847 C   0  0  0  0  0  0  0  0  0  0  0  0
 12 13  1  0  0  0
 13 14  1  0  0  0
 13 11  1  0  0  0
 11  6  1  0  0  0
  6  2  1  0  0  0
  2  3  1  0  0  0
  3  4  2  0  0  0
  3  1  1  0  0  0
  1 30  1  0  0  0
 30 31  1  0  0  0
 31 32  1  0  0  0
 31 33  1  0  0  0
  1 15  1  0  0  0
 15 16  1  0  0  0
 16 17  2  0  0  0
 16 19  1  0  0  0
 19 20  1  0  0  0
 19 23  1  0  0  0
 23 24  1  0  0  0
 24 25  2  0  0  0
 25 26  1  0  0  0
 26 27  2  0  0  0
 27 28  1  0  0  0
 28 29  2  0  0  0
  6  7  1  0  0  0
  7  8  2  0  0  0
  7  9  1  0  0  0
 29 24  1  0  0  0
  2  5  1  0  0  0
 15 18  1  0  0  0
 20 21  1  0  0  0
 20 22  1  0  0  0
  9 10  1  0  0  0
M  END
> <minimizedAffinity>
-7.29375

> <CNNscore>
0.4098915756

> <CNNaffinity>
6.0112047195

> <CNN_VS>
2.4639422894

> <CNNaffinity_variance>
0.1510922462

$$$$
[H]OC(=O)[C@@]([H])(N([H])C(=O)[C@@]([H])(N([H])C(=O)[C@@]([H])(N([H])[H])C([H])([H])c1c([H])c([H])c([H])c([H])c1[H])C([H])([H])C([H])(C([H])([H])[H])C([H])([H])[H])C([H])([H])C([H])(C([H])([H])[H])C([H])([H])[H]


 33 33  0  0  0  0  0  0  0  0999 V2000
    4.3821    3.1806   17.3037 C   0  0  0  0  0  0  0  0  0  0  0  0
    4.1993    5.1340   18.8520 N   0  0  0  0  0  0  0  0  0  0  0  0
    4.9362    4.4508   17.8724 C   0  0  0  0  0  0  0  0  0  0  0  0
    6.0467    4.9283   17.4994 O   0  0  0  0  0  0  0  0  0  0  0  0
    3.2813    4.8308   19.2293 H   0  0  0  0  0  0  0  0  0  0  0  0
    4.7017    6.4182   19.4629 C   0  0  0  0  0  0  0  0  0  0  0  0
    4.9160    6.0720   20.8625 C   0  0  0  0  0  0  0  0  0  0  0  0
    5.9690    5.5071   21.2393 O   0  0  0  0  0  0  0  0  0  0  0  0
    3.9921    6.3478   21.8376 O   0  0  0  0  0  0  0  0  0  0  0  0
    4.0382    6.0215   22.7927 H   0  0  0  0  0  0  0  0  0  0  0  0
    3.6495    7.3809   19.1012 C   0  0  0  0  0  0  0  0  0  0  0  0
    4.6382    9.4600   20.1771 C   0  0  0  0  0  0  0  0  0  0  0  0
    3.8339    8.8246   19.0811 C   0  0  0  0  0  0  0  0  0  0  0  0
    4.2536    9.3817   17.7269 C   0  0  0  0  0  0  0  0  0  0  0  0
    3.7415    2.4781   18.3971 N   0  0  0  0  0  0  0  0  0  0  0  0
    3.5264    1.0844   18.3739 C   0  0  0  0  0  0  0  0  0  0  0  0
    3.9085    0.4328   17.3707 O   0  0  0  0  0  0  0  0  0  0  0  0
    3.4120    2.9852   19.2556 H   0  0  0  0  0  0  0  0  0  0  0  0
    2.8658    0.3413   19.4725 C   0  0  0  0  0  0  0  0  0  0  0  0
    2.1190   -0.8045   18.9348 N   0  0  0  0  0  0  0  0  0  0  0  0
    2.3920   -1.0370   17.9724 H   0  0  0  0  0  0  0  0  0  0  0  0
    1.0954   -0.6312   19.0670 H   0  0  0  0  0  0  0  0  0  0  0  0
    3.8717   -0.2715   20.4348 C   0  0  0  0  0  0  0  0  0  0  0  0
    4.4715    0.6889   21.3546 C   0  0  0  0  0  0  0  0  0  0  0  0
    3.7891    1.2690   22.3846 C   0  0  0  0  0  0  0  0  0  0  0  0
    4.3575    2.1794   23.2564 C   0  0  0  0  0  0  0  0  0  0  0  0
    5.6735    2.5176   23.0781 C   0  0  0  0  0  0  0  0  0  0  0  0
    6.4176    1.9694   22.0597 C   0  0  0  0  0  0  0  0  0  0  0  0
    5.8124    1.0661   21.2134 C   0  0  0  0  0  0  0  0  0  0  0  0
    3.4230    3.5457   16.2031 C   0  0  0  0  0  0  0  0  0  0  0  0
    3.7202    3.0073   14.8579 C   0  0  0  0  0  0  0  0  0  0  0  0
    2.7920    1.8980   14.4213 C   0  0  0  0  0  0  0  0  0  0  0  0
    3.8601    4.0205   13.7609 C   0  0  0  0  0  0  0  0  0  0  0  0
 12 13  1  0  0  0
 13 14  1  0  0  0
 13 11  1  0  0  0
 11  6  1  0  0  0
  6  2  1  0  0  0
  2  3  1  0  0  0
  3  4  2  0  0  0
  3  1  1  0  0  0
  1 30  1  0  0  0
 30 31  1  0  0  0
 31 32  1  0  0  0
 31 33  1  0  0  0
  1 15  1  0  0  0
 15 16  1  0  0  0
 16 17  2  0  0  0
 16 19  1  0  0  0
 19 20  1  0  0  0
 19 23  1  0  0  0
 23 24  1  0  0  0
 24 25  2  0  0  0
 25 26  1  0  0  0
 26 27  2  0  0  0
 27 28  1  0  0  0
 28 29  2  0  0  0
  6  7  1  0  0  0
  7  8  2  0  0  0
  7  9  1  0  0  0
 29 24  1  0  0  0
  2  5  1  0  0  0
 15 18  1  0  0  0
 20 21  1  0  0  0
 20 22  1  0  0  0
  9 10  1  0  0  0
M  END
> <minimizedAffinity>
-7.93760

> <CNNscore>
0.3707727492

> <CNNaffinity>
5.9325184822

> <CNN_VS>
2.1996161938

> <CNNaffinity_variance>
0.1829563081

$$$$
[H]OC(=O)[C@@]([H])(N([H])C(=O)[C@@]([H])(N([H])C(=O)[C@@]([H])(N([H])[H])C([H])([H])c1c([H])c([H])c([H])c([H])c1[H])C([H])([H])C([H])(C([H])([H])[H])C([H])([H])[H])C([H])([H])C([H])(C([H])([H])[H])C([H])([H])[H]


 33 33  0  0  0  0  0  0  0  0999 V2000
    5.7819    4.9444   21.7953 C   0  0  0  0  0  0  0  0  0  0  0  0
    6.2473    7.0995   22.9723 N   0  0  0  0  0  0  0  0  0  0  0  0
    6.6047    6.1838   21.9708 C   0  0  0  0  0  0  0  0  0  0  0  0
    7.6116    6.4326   21.2465 O   0  0  0  0  0  0  0  0  0  0  0  0
    5.4439    6.9931   23.6206 H   0  0  0  0  0  0  0  0  0  0  0  0
    7.0341    8.3662   23.1988 C   0  0  0  0  0  0  0  0  0  0  0  0
    7.4158    8.2870   24.6033 C   0  0  0  0  0  0  0  0  0  0  0  0
    8.5538    7.8915   24.9471 O   0  0  0  0  0  0  0  0  0  0  0  0
    6.5644    8.6435   25.6175 O   0  0  0  0  0  0  0  0  0  0  0  0
    6.7353    8.4922   26.6017 H   0  0  0  0  0  0  0  0  0  0  0  0
    6.0987    9.4110   22.7536 C   0  0  0  0  0  0  0  0  0  0  0  0
    7.1487    9.8372   20.4790 C   0  0  0  0  0  0  0  0  0  0  0  0
    5.9404    9.8307   21.3689 C   0  0  0  0  0  0  0  0  0  0  0  0
    4.7602    9.1871   20.6523 C   0  0  0  0  0  0  0  0  0  0  0  0
    5.6421    4.7346   20.3685 N   0  0  0  0  0  0  0  0  0  0  0  0
    4.4964    5.1449   19.6554 C   0  0  0  0  0  0  0  0  0  0  0  0
    3.5693    5.7149   20.2821 O   0  0  0  0  0  0  0  0  0  0  0  0
    6.3962    4.2665   19.8072 H   0  0  0  0  0  0  0  0  0  0  0  0
    4.3220    4.9351   18.1990 C   0  0  0  0  0  0  0  0  0  0  0  0
    4.8624    6.0795   17.4518 N   0  0  0  0  0  0  0  0  0  0  0  0
    5.4780    6.6694   18.0243 H   0  0  0  0  0  0  0  0  0  0  0  0
    4.0696    6.5899   16.9978 H   0  0  0  0  0  0  0  0  0  0  0  0
    5.1120    3.7375   17.6945 C   0  0  0  0  0  0  0  0  0  0  0  0
    4.2905    2.5691   17.3978 C   0  0  0  0  0  0  0  0  0  0  0  0
    4.0266    1.5863   18.3075 C   0  0  0  0  0  0  0  0  0  0  0  0
    3.2480    0.4787   18.0263 C   0  0  0  0  0  0  0  0  0  0  0  0
    2.7132    0.3605   16.7701 C   0  0  0  0  0  0  0  0  0  0  0  0
    2.9406    1.3156   15.8070 C   0  0  0  0  0  0  0  0  0  0  0  0
    3.7223    2.4036   16.1289 C   0  0  0  0  0  0  0  0  0  0  0  0
    6.4961    3.8132   22.4842 C   0  0  0  0  0  0  0  0  0  0  0  0
    5.7638    2.5325   22.5905 C   0  0  0  0  0  0  0  0  0  0  0  0
    4.2682    2.6902   22.7357 C   0  0  0  0  0  0  0  0  0  0  0  0
    6.0718    1.5100   21.5373 C   0  0  0  0  0  0  0  0  0  0  0  0
 12 13  1  0  0  0
 13 14  1  0  0  0
 13 11  1  0  0  0
 11  6  1  0  0  0
  6  2  1  0  0  0
  2  3  1  0  0  0
  3  4  2  0  0  0
  3  1  1  0  0  0
  1 30  1  0  0  0
 30 31  1  0  0  0
 31 32  1  0  0  0
 31 33  1  0  0  0
  1 15  1  0  0  0
 15 16  1  0  0  0
 16 17  2  0  0  0
 16 19  1  0  0  0
 19 20  1  0  0  0
 19 23  1  0  0  0
 23 24  1  0  0  0
 24 25  2  0  0  0
 25 26  1  0  0  0
 26 27  2  0  0  0
 27 28  1  0  0  0
 28 29  2  0  0  0
  6  7  1  0  0  0
  7  8  2  0  0  0
  7  9  1  0  0  0
 29 24  1  0  0  0
  2  5  1  0  0  0
 15 18  1  0  0  0
 20 21  1  0  0  0
 20 22  1  0  0  0
  9 10  1  0  0  0
M  END
> <minimizedAffinity>
-8.17512

> <CNNscore>
0.3514122665

> <CNNaffinity>
5.7292094231

> <CNN_VS>
2.0133144855

> <CNNaffinity_variance>
0.3382129073

$$$$
[H]OC(=O)[C@@]([H])(N([H])C(=O)[C@@]([H])(N([H])C(=O)[C@@]([H])(N([H])[H])C([H])([H])c1c([H])c([H])c([H])c([H])c1[H])C([H])([H])C([H])(C([H])([H])[H])C([H])([H])[H])C([H])([H])C([H])(C([H])([H])[H])C([H])([H])[H]


 33 33  0  0  0  0  0  0  0  0999 V2000
    3.8672    6.4704   19.0504 C   0  0  0  0  0  0  0  0  0  0  0  0
    3.2433    5.2024   16.9891 N   0  0  0  0  0  0  0  0  0  0  0  0
    4.1208    6.0958   17.6225 C   0  0  0  0  0  0  0  0  0  0  0  0
    5.0996    6.5582   16.9678 O   0  0  0  0  0  0  0  0  0  0  0  0
    2.4117    4.7666   17.4313 H   0  0  0  0  0  0  0  0  0  0  0  0
    3.4444    4.7848   15.5538 C   0  0  0  0  0  0  0  0  0  0  0  0
    2.1236    4.9494   14.9599 C   0  0  0  0  0  0  0  0  0  0  0  0
    1.7258    4.1986   14.0391 O   0  0  0  0  0  0  0  0  0  0  0  0
    1.2470    5.9191   15.3745 O   0  0  0  0  0  0  0  0  0  0  0  0
    0.3766    6.1517   14.9170 H   0  0  0  0  0  0  0  0  0  0  0  0
    4.0230    3.4386   15.6874 C   0  0  0  0  0  0  0  0  0  0  0  0
    2.8695    1.1942   15.9875 C   0  0  0  0  0  0  0  0  0  0  0  0
    3.5095    2.4134   16.5840 C   0  0  0  0  0  0  0  0  0  0  0  0
    4.4740    2.0142   17.6935 C   0  0  0  0  0  0  0  0  0  0  0  0
    4.9589    5.9187   19.8270 N   0  0  0  0  0  0  0  0  0  0  0  0
    4.7774    5.4217   21.1345 C   0  0  0  0  0  0  0  0  0  0  0  0
    3.6274    5.4570   21.6378 O   0  0  0  0  0  0  0  0  0  0  0  0
    5.9341    5.8665   19.4410 H   0  0  0  0  0  0  0  0  0  0  0  0
    5.8763    4.8610   21.9552 C   0  0  0  0  0  0  0  0  0  0  0  0
    6.4506    5.9034   22.8173 N   0  0  0  0  0  0  0  0  0  0  0  0
    5.8450    6.7292   22.8950 H   0  0  0  0  0  0  0  0  0  0  0  0
    7.4253    6.1074   22.4954 H   0  0  0  0  0  0  0  0  0  0  0  0
    5.3833    3.7923   22.9186 C   0  0  0  0  0  0  0  0  0  0  0  0
    5.0609    2.5218   22.2785 C   0  0  0  0  0  0  0  0  0  0  0  0
    5.9642    1.7924   21.5607 C   0  0  0  0  0  0  0  0  0  0  0  0
    5.6588    0.5881   20.9537 C   0  0  0  0  0  0  0  0  0  0  0  0
    4.3840    0.1008   21.0784 C   0  0  0  0  0  0  0  0  0  0  0  0
    3.4261    0.7866   21.7880 C   0  0  0  0  0  0  0  0  0  0  0  0
    3.7725    1.9830   22.3772 C   0  0  0  0  0  0  0  0  0  0  0  0
    3.7952    7.9714   19.1295 C   0  0  0  0  0  0  0  0  0  0  0  0
    4.9805    8.6649   19.6789 C   0  0  0  0  0  0  0  0  0  0  0  0
    5.5198    9.7594   18.7880 C   0  0  0  0  0  0  0  0  0  0  0  0
    4.8549    9.1652   21.0873 C   0  0  0  0  0  0  0  0  0  0  0  0
 12 13  1  0  0  0
 13 14  1  0  0  0
 13 11  1  0  0  0
 11  6  1  0  0  0
  6  2  1  0  0  0
  2  3  1  0  0  0
  3  4  2  0  0  0
  3  1  1  0  0  0
  1 30  1  0  0  0
 30 31  1  0  0  0
 31 32  1  0  0  0
 31 33  1  0  0  0
  1 15  1  0  0  0
 15 16  1  0  0  0
 16 17  2  0  0  0
 16 19  1  0  0  0
 19 20  1  0  0  0
 19 23  1  0  0  0
 23 24  1  0  0  0
 24 25  2  0  0  0
 25 26  1  0  0  0
 26 27  2  0  0  0
 27 28  1  0  0  0
 28 29  2  0  0  0
  6  7  1  0  0  0
  7  8  2  0  0  0
  7  9  1  0  0  0
 29 24  1  0  0  0
  2  5  1  0  0  0
 15 18  1  0  0  0
 20 21  1  0  0  0
 20 22  1  0  0  0
  9 10  1  0  0  0
M  END
> <minimizedAffinity>
-7.55877

> <CNNscore>
0.3008318543

> <CNNaffinity>
5.8797178268

> <CNN_VS>
1.7688064575

> <CNNaffinity_variance>
0.4239688814

$$$$
[H]OC(=O)[C@@]([H])(N([H])C(=O)[C@@]([H])(N([H])C(=O)[C@@]([H])(N([H])[H])C([H])([H])c1c([H])c([H])c([H])c([H])c1[H])C([H])([H])C([H])(C([H])([H])[H])C([H])([H])[H])C([H])([H])C([H])(C([H])([H])[H])C([H])([H])[H]


 33 33  0  0  0  0  0  0  0  0999 V2000
    4.2999    4.6924   15.9576 C   0  0  0  0  0  0  0  0  0  0  0  0
    4.1051    5.9368   13.7990 N   0  0  0  0  0  0  0  0  0  0  0  0
    3.4645    5.3269   14.8885 C   0  0  0  0  0  0  0  0  0  0  0  0
    2.2002    5.3312   14.9344 O   0  0  0  0  0  0  0  0  0  0  0  0
    5.1325    5.9888   13.6622 H   0  0  0  0  0  0  0  0  0  0  0  0
    3.3208    6.5938   12.6907 C   0  0  0  0  0  0  0  0  0  0  0  0
    3.6757    5.8155   11.5106 C   0  0  0  0  0  0  0  0  0  0  0  0
    4.1051    6.3681   10.4714 O   0  0  0  0  0  0  0  0  0  0  0  0
    3.5687    4.4488   11.4721 O   0  0  0  0  0  0  0  0  0  0  0  0
    3.6837    3.8786   10.6460 H   0  0  0  0  0  0  0  0  0  0  0  0
    3.7382    8.0011   12.7906 C   0  0  0  0  0  0  0  0  0  0  0  0
    6.1880    8.6202   12.5197 C   0  0  0  0  0  0  0  0  0  0  0  0
    4.9847    8.4431   13.3986 C   0  0  0  0  0  0  0  0  0  0  0  0
    4.8345    9.6354   14.3348 C   0  0  0  0  0  0  0  0  0  0  0  0
    3.8318    5.2217   17.2225 N   0  0  0  0  0  0  0  0  0  0  0  0
    4.6966    5.8508   18.1422 C   0  0  0  0  0  0  0  0  0  0  0  0
    5.9130    5.9573   17.8489 O   0  0  0  0  0  0  0  0  0  0  0  0
    2.8219    5.1573   17.5031 H   0  0  0  0  0  0  0  0  0  0  0  0
    4.2480    6.3926   19.4463 C   0  0  0  0  0  0  0  0  0  0  0  0
    2.9645    5.7903   19.8332 N   0  0  0  0  0  0  0  0  0  0  0  0
    2.7470    4.9441   19.2934 H   0  0  0  0  0  0  0  0  0  0  0  0
    2.2233    6.5285   19.8026 H   0  0  0  0  0  0  0  0  0  0  0  0
    5.2002    6.0292   20.5752 C   0  0  0  0  0  0  0  0  0  0  0  0
    4.7480    4.9092   21.3933 C   0  0  0  0  0  0  0  0  0  0  0  0
    4.0437    5.0625   22.5524 C   0  0  0  0  0  0  0  0  0  0  0  0
    3.6151    4.0010   23.3280 C   0  0  0  0  0  0  0  0  0  0  0  0
    3.9121    2.7293   22.9127 C   0  0  0  0  0  0  0  0  0  0  0  0
    4.6188    2.5056   21.7542 C   0  0  0  0  0  0  0  0  0  0  0  0
    5.0270    3.5916   21.0109 C   0  0  0  0  0  0  0  0  0  0  0  0
    4.1326    3.2007   15.8516 C   0  0  0  0  0  0  0  0  0  0  0  0
    3.5058    2.5193   17.0051 C   0  0  0  0  0  0  0  0  0  0  0  0
    2.3561    1.6126   16.6326 C   0  0  0  0  0  0  0  0  0  0  0  0
    4.4417    1.8052   17.9345 C   0  0  0  0  0  0  0  0  0  0  0  0
 12 13  1  0  0  0
 13 14  1  0  0  0
 13 11  1  0  0  0
 11  6  1  0  0  0
  6  2  1  0  0  0
  2  3  1  0  0  0
  3  4  2  0  0  0
  3  1  1  0  0  0
  1 30  1  0  0  0
 30 31  1  0  0  0
 31 32  1  0  0  0
 31 33  1  0  0  0
  1 15  1  0  0  0
 15 16  1  0  0  0
 16 17  2  0  0  0
 16 19  1  0  0  0
 19 20  1  0  0  0
 19 23  1  0  0  0
 23 24  1  0  0  0
 24 25  2  0  0  0
 25 26  1  0  0  0
 26 27  2  0  0  0
 27 28  1  0  0  0
 28 29  2  0  0  0
  6  7  1  0  0  0
  7  8  2  0  0  0
  7  9  1  0  0  0
 29 24  1  0  0  0
  2  5  1  0  0  0
 15 18  1  0  0  0
 20 21  1  0  0  0
 20 22  1  0  0  0
  9 10  1  0  0  0
M  END
> <minimizedAffinity>
-6.14738

> <CNNscore>
0.2841674685

> <CNNaffinity>
5.3241281509

> <CNN_VS>
1.5129439831

> <CNNaffinity_variance>
0.4666363597

$$$$
[H]OC(=O)[C@@]([H])(N([H])C(=O)[C@@]([H])(N([H])C(=O)[C@@]([H])(N([H])[H])C([H])([H])c1c([H])c([H])c([H])c([H])c1[H])C([H])([H])C([H])(C([H])([H])[H])C([H])([H])[H])C([H])([H])C([H])(C([H])([H])[H])C([H])([H])[H]


 33 33  0  0  0  0  0  0  0  0999 V2000
    3.5944    4.9245   16.9569 C   0  0  0  0  0  0  0  0  0  0  0  0
    4.1755    7.2959   16.4229 N   0  0  0  0  0  0  0  0  0  0  0  0
    3.3803    6.1712   16.1546 C   0  0  0  0  0  0  0  0  0  0  0  0
    2.5065    6.2443   15.2427 O   0  0  0  0  0  0  0  0  0  0  0  0
    4.9192    7.3437   17.1452 H   0  0  0  0  0  0  0  0  0  0  0  0
    4.0085    8.5812   15.6515 C   0  0  0  0  0  0  0  0  0  0  0  0
    5.1943    8.6306   14.8055 C   0  0  0  0  0  0  0  0  0  0  0  0
    5.1649    9.1687   13.6744 O   0  0  0  0  0  0  0  0  0  0  0  0
    6.3986    8.1042   15.1967 O   0  0  0  0  0  0  0  0  0  0  0  0
    7.2108    8.0042   14.6039 H   0  0  0  0  0  0  0  0  0  0  0  0
    3.8306    9.5776   16.7194 C   0  0  0  0  0  0  0  0  0  0  0  0
    5.6314    9.8278   18.4948 C   0  0  0  0  0  0  0  0  0  0  0  0
    4.2543    9.3829   18.0982 C   0  0  0  0  0  0  0  0  0  0  0  0
    3.2340    9.8356   19.1349 C   0  0  0  0  0  0  0  0  0  0  0  0
    3.6620    5.3287   18.3466 N   0  0  0  0  0  0  0  0  0  0  0  0
    4.8870    5.4723   19.0307 C   0  0  0  0  0  0  0  0  0  0  0  0
    5.9541    5.2448   18.4089 O   0  0  0  0  0  0  0  0  0  0  0  0
    2.7935    5.5330   18.9004 H   0  0  0  0  0  0  0  0  0  0  0  0
    4.9861    5.8747   20.4533 C   0  0  0  0  0  0  0  0  0  0  0  0
    3.6490    5.9304   21.0606 N   0  0  0  0  0  0  0  0  0  0  0  0
    2.9398    5.4442   20.4990 H   0  0  0  0  0  0  0  0  0  0  0  0
    3.4207    6.9277   21.2812 H   0  0  0  0  0  0  0  0  0  0  0  0
    5.7453    4.8529   21.2857 C   0  0  0  0  0  0  0  0  0  0  0  0
    5.0489    3.5804   21.4398 C   0  0  0  0  0  0  0  0  0  0  0  0
    5.0866    2.5860   20.5055 C   0  0  0  0  0  0  0  0  0  0  0  0
    4.4265    1.3798   20.6514 C   0  0  0  0  0  0  0  0  0  0  0  0
    3.6965    1.1707   21.7922 C   0  0  0  0  0  0  0  0  0  0  0  0
    3.6172    2.1319   22.7726 C   0  0  0  0  0  0  0  0  0  0  0  0
    4.2903    3.3198   22.5873 C   0  0  0  0  0  0  0  0  0  0  0  0
    2.4484    3.9906   16.6759 C   0  0  0  0  0  0  0  0  0  0  0  0
    2.7955    2.6560   16.1410 C   0  0  0  0  0  0  0  0  0  0  0  0
    4.2808    2.4179   15.9998 C   0  0  0  0  0  0  0  0  0  0  0  0
    2.1513    1.4864   16.8242 C   0  0  0  0  0  0  0  0  0  0  0  0
 12 13  1  0  0  0
 13 14  1  0  0  0
 13 11  1  0  0  0
 11  6  1  0  0  0
  6  2  1  0  0  0
  2  3  1  0  0  0
  3  4  2  0  0  0
  3  1  1  0  0  0
  1 30  1  0  0  0
 30 31  1  0  0  0
 31 32  1  0  0  0
 31 33  1  0  0  0
  1 15  1  0  0  0
 15 16  1  0  0  0
 16 17  2  0  0  0
 16 19  1  0  0  0
 19 20  1  0  0  0
 19 23  1  0  0  0
 23 24  1  0  0  0
 24 25  2  0  0  0
 25 26  1  0  0  0
 26 27  2  0  0  0
 27 28  1  0  0  0
 28 29  2  0  0  0
  6  7  1  0  0  0
  7  8  2  0  0  0
  7  9  1  0  0  0
 29 24  1  0  0  0
  2  5  1  0  0  0
 15 18  1  0  0  0
 20 21  1  0  0  0
 20 22  1  0  0  0
  9 10  1  0  0  0
M  END
> <minimizedAffinity>
-6.17204

> <CNNscore>
0.2806955576

> <CNNaffinity>
5.7883796692

> <CNN_VS>
1.6247724295

> <CNNaffinity_variance>
0.2095496953

$$$$
[H]OC(=O)[C@@]([H])(N([H])C(=O)[C@@]([H])(N([H])C(=O)[C@@]([H])(N([H])[H])C([H])([H])c1c([H])c([H])c([H])c([H])c1[H])C([H])([H])C([H])(C([H])([H])[H])C([H])([H])[H])C([H])([H])C([H])(C([H])([H])[H])C([H])([H])[H]


 33 33  0  0  0  0  0  0  0  0999 V2000
    3.9989    6.5453   17.2100 C   0  0  0  0  0  0  0  0  0  0  0  0
    4.2080    4.5758   15.6857 N   0  0  0  0  0  0  0  0  0  0  0  0
    3.3884    5.3819   16.4905 C   0  0  0  0  0  0  0  0  0  0  0  0
    2.1584    5.1013   16.5844 O   0  0  0  0  0  0  0  0  0  0  0  0
    5.2261    4.7152   15.5403 H   0  0  0  0  0  0  0  0  0  0  0  0
    3.6541    3.3908   14.9347 C   0  0  0  0  0  0  0  0  0  0  0  0
    2.8571    3.9973   13.8757 C   0  0  0  0  0  0  0  0  0  0  0  0
    1.6601    3.6741   13.6955 O   0  0  0  0  0  0  0  0  0  0  0  0
    3.3629    4.9509   13.0298 O   0  0  0  0  0  0  0  0  0  0  0  0
    2.8941    5.3098   12.2098 H   0  0  0  0  0  0  0  0  0  0  0  0
    2.9911    2.6172   15.9962 C   0  0  0  0  0  0  0  0  0  0  0  0
    4.3134    1.8174   18.0136 C   0  0  0  0  0  0  0  0  0  0  0  0
    3.6156    1.5190   16.7191 C   0  0  0  0  0  0  0  0  0  0  0  0
    2.7324    0.2866   16.8671 C   0  0  0  0  0  0  0  0  0  0  0  0
    4.3606    6.0756   18.5320 N   0  0  0  0  0  0  0  0  0  0  0  0
    4.3538    6.9220   19.6602 C   0  0  0  0  0  0  0  0  0  0  0  0
    4.0180    8.1227   19.5101 O   0  0  0  0  0  0  0  0  0  0  0  0
    4.6424    5.0781   18.7008 H   0  0  0  0  0  0  0  0  0  0  0  0
    4.7278    6.4719   21.0215 C   0  0  0  0  0  0  0  0  0  0  0  0
    4.5569    7.5684   21.9849 N   0  0  0  0  0  0  0  0  0  0  0  0
    3.9811    8.3336   21.6139 H   0  0  0  0  0  0  0  0  0  0  0  0
    5.4997    7.8620   22.3317 H   0  0  0  0  0  0  0  0  0  0  0  0
    3.8151    5.3664   21.5298 C   0  0  0  0  0  0  0  0  0  0  0  0
    4.5260    4.2319   22.1092 C   0  0  0  0  0  0  0  0  0  0  0  0
    5.6090    3.6450   21.5212 C   0  0  0  0  0  0  0  0  0  0  0  0
    6.2828    2.5695   22.0702 C   0  0  0  0  0  0  0  0  0  0  0  0
    5.8415    2.0661   23.2660 C   0  0  0  0  0  0  0  0  0  0  0  0
    4.7559    2.6114   23.9106 C   0  0  0  0  0  0  0  0  0  0  0  0
    4.1131    3.6824   23.3289 C   0  0  0  0  0  0  0  0  0  0  0  0
    5.1859    7.0122   16.4116 C   0  0  0  0  0  0  0  0  0  0  0  0
    5.2471    8.4559   16.0955 C   0  0  0  0  0  0  0  0  0  0  0  0
    3.8949    9.1249   16.0147 C   0  0  0  0  0  0  0  0  0  0  0  0
    6.1749    9.2753   16.9425 C   0  0  0  0  0  0  0  0  0  0  0  0
 12 13  1  0  0  0
 13 14  1  0  0  0
 13 11  1  0  0  0
 11  6  1  0  0  0
  6  2  1  0  0  0
  2  3  1  0  0  0
  3  4  2  0  0  0
  3  1  1  0  0  0
  1 30  1  0  0  0
 30 31  1  0  0  0
 31 32  1  0  0  0
 31 33  1  0  0  0
  1 15  1  0  0  0
 15 16  1  0  0  0
 16 17  2  0  0  0
 16 19  1  0  0  0
 19 20  1  0  0  0
 19 23  1  0  0  0
 23 24  1  0  0  0
 24 25  2  0  0  0
 25 26  1  0  0  0
 26 27  2  0  0  0
 27 28  1  0  0  0
 28 29  2  0  0  0
  6  7  1  0  0  0
  7  8  2  0  0  0
  7  9  1  0  0  0
 29 24  1  0  0  0
  2  5  1  0  0  0
 15 18  1  0  0  0
 20 21  1  0  0  0
 20 22  1  0  0  0
  9 10  1  0  0  0
M  END
> <minimizedAffinity>
-7.25739

> <CNNscore>
0.2711389363

> <CNNaffinity>
5.7567234039

> <CNN_VS>
1.5608718395

> <CNNaffinity_variance>
0.3734171391

$$$$
[H]OC(=O)[C@@]([H])(N([H])C(=O)[C@@]([H])(N([H])C(=O)[C@@]([H])(N([H])[H])C([H])([H])c1c([H])c([H])c([H])c([H])c1[H])C([H])([H])C([H])(C([H])([H])[H])C([H])([H])[H])C([H])([H])C([H])(C([H])([H])[H])C([H])([H])[H]


 33 33  0  0  0  0  0  0  0  0999 V2000
    5.1450    3.4347   19.9998 C   0  0  0  0  0  0  0  0  0  0  0  0
    3.7354    4.1369   18.0591 N   0  0  0  0  0  0  0  0  0  0  0  0
    4.8450    3.4199   18.5322 C   0  0  0  0  0  0  0  0  0  0  0  0
    5.5590    2.7829   17.7046 O   0  0  0  0  0  0  0  0  0  0  0  0
    3.0867    4.6922   18.6488 H   0  0  0  0  0  0  0  0  0  0  0  0
    3.3794    4.1609   16.5936 C   0  0  0  0  0  0  0  0  0  0  0  0
    2.8725    5.5115   16.3853 C   0  0  0  0  0  0  0  0  0  0  0  0
    3.5956    6.5156   16.5820 O   0  0  0  0  0  0  0  0  0  0  0  0
    1.5924    5.7586   15.9599 O   0  0  0  0  0  0  0  0  0  0  0  0
    1.1580    6.6699   15.9187 H   0  0  0  0  0  0  0  0  0  0  0  0
    2.4705    3.0112   16.4634 C   0  0  0  0  0  0  0  0  0  0  0  0
    2.6854    0.4794   16.5107 C   0  0  0  0  0  0  0  0  0  0  0  0
    2.8070    1.7776   15.7678 C   0  0  0  0  0  0  0  0  0  0  0  0
    2.1869    1.6531   14.3820 C   0  0  0  0  0  0  0  0  0  0  0  0
    5.0440    4.8137   20.4326 N   0  0  0  0  0  0  0  0  0  0  0  0
    5.8738    5.3500   21.4392 C   0  0  0  0  0  0  0  0  0  0  0  0
    6.7312    4.6040   21.9734 O   0  0  0  0  0  0  0  0  0  0  0  0
    4.3439    5.4713   20.0080 H   0  0  0  0  0  0  0  0  0  0  0  0
    5.7867    6.7528   21.9085 C   0  0  0  0  0  0  0  0  0  0  0  0
    6.3862    6.8807   23.2442 N   0  0  0  0  0  0  0  0  0  0  0  0
    6.9727    6.0750   23.4923 H   0  0  0  0  0  0  0  0  0  0  0  0
    5.6292    7.0967   23.9338 H   0  0  0  0  0  0  0  0  0  0  0  0
    6.5914    7.7004   21.0324 C   0  0  0  0  0  0  0  0  0  0  0  0
    5.7977    8.3874   20.0193 C   0  0  0  0  0  0  0  0  0  0  0  0
    4.5106    8.7937   20.2222 C   0  0  0  0  0  0  0  0  0  0  0  0
    3.7581    9.4447   19.2620 C   0  0  0  0  0  0  0  0  0  0  0  0
    4.3331    9.6953   18.0435 C   0  0  0  0  0  0  0  0  0  0  0  0
    5.6261    9.3119   17.7743 C   0  0  0  0  0  0  0  0  0  0  0  0
    6.3408    8.6657   18.7592 C   0  0  0  0  0  0  0  0  0  0  0  0
    4.1525    2.5341   20.6842 C   0  0  0  0  0  0  0  0  0  0  0  0
    4.7046    1.3762   21.4205 C   0  0  0  0  0  0  0  0  0  0  0  0
    4.0123    0.0681   21.1164 C   0  0  0  0  0  0  0  0  0  0  0  0
    6.1920    1.1986   21.3461 C   0  0  0  0  0  0  0  0  0  0  0  0
 12 13  1  0  0  0
 13 14  1  0  0  0
 13 11  1  0  0  0
 11  6  1  0  0  0
  6  2  1  0  0  0
  2  3  1  0  0  0
  3  4  2  0  0  0
  3  1  1  0  0  0
  1 30  1  0  0  0
 30 31  1  0  0  0
 31 32  1  0  0  0
 31 33  1  0  0  0
  1 15  1  0  0  0
 15 16  1  0  0  0
 16 17  2  0  0  0
 16 19  1  0  0  0
 19 20  1  0  0  0
 19 23  1  0  0  0
 23 24  1  0  0  0
 24 25  2  0  0  0
 25 26  1  0  0  0
 26 27  2  0  0  0
 27 28  1  0  0  0
 28 29  2  0  0  0
  6  7  1  0  0  0
  7  8  2  0  0  0
  7  9  1  0  0  0
 29 24  1  0  0  0
  2  5  1  0  0  0
 15 18  1  0  0  0
 20 21  1  0  0  0
 20 22  1  0  0  0
  9 10  1  0  0  0
M  END
> <minimizedAffinity>
-7.11989

> <CNNscore>
0.2664517164

> <CNNaffinity>
5.7794942856

> <CNN_VS>
1.5399562120

> <CNNaffinity_variance>
0.1753515303

$$$$
[H]c1c([H])c([H])c2c(c1[H])c1c3c(c4c5c([H])c([H])c([H])c([H])c5n5c4c1n2[C@@]1(C([H])([H])[H])O[C@]5([H])C([H])([H])[C@@]([H])(N([H])C([H])([H])[H])[C@@]1([H])OC([H])([H])[H])C(=O)N([H])C3([H])[H]


 37 44  0  0  0  0  0  0  0  0999 V2000
    4.1986    7.1222   18.4451 C   0  0  0  0  0  0  0  0  0  0  0  0
    4.2849    6.5614   17.0955 C   0  0  0  0  0  0  0  0  0  0  0  0
    5.3594    5.5583   16.9482 C   0  0  0  0  0  0  0  0  0  0  0  0
    6.3117    5.4279   17.8319 O   0  0  0  0  0  0  0  0  0  0  0  0
    6.1097    5.6147   19.1968 C   0  0  0  0  0  0  0  0  0  0  0  0
    7.5516    5.8445   19.6684 C   0  0  0  0  0  0  0  0  0  0  0  0
    5.3014    6.8078   19.4165 C   0  0  0  0  0  0  0  0  0  0  0  0
    5.5583    4.3633   19.7457 N   0  0  0  0  0  0  0  0  0  0  0  0
    5.6549    3.9070   20.9931 C   0  0  0  0  0  0  0  0  0  0  0  0
    6.2207    4.4181   22.1279 C   0  0  0  0  0  0  0  0  0  0  0  0
    6.1831    3.7382   23.3246 C   0  0  0  0  0  0  0  0  0  0  0  0
    5.5610    2.4901   23.4289 C   0  0  0  0  0  0  0  0  0  0  0  0
    4.9966    1.9781   22.3034 C   0  0  0  0  0  0  0  0  0  0  0  0
    5.0404    2.6639   21.1186 C   0  0  0  0  0  0  0  0  0  0  0  0
    4.5457    2.3579   19.8783 C   0  0  0  0  0  0  0  0  0  0  0  0
    3.8397    1.2650   19.3708 C   0  0  0  0  0  0  0  0  0  0  0  0
    3.3821    0.0304   20.0485 C   0  0  0  0  0  0  0  0  0  0  0  0
    2.7072   -0.7581   19.0712 N   0  0  0  0  0  0  0  0  0  0  0  0
    2.7386   -0.0501   17.8276 C   0  0  0  0  0  0  0  0  0  0  0  0
    2.2194   -0.5215   16.8140 O   0  0  0  0  0  0  0  0  0  0  0  0
    3.4446    1.2002   18.0355 C   0  0  0  0  0  0  0  0  0  0  0  0
    3.7818    2.2675   17.2340 C   0  0  0  0  0  0  0  0  0  0  0  0
    3.5699    2.5822   15.9039 C   0  0  0  0  0  0  0  0  0  0  0  0
    2.9445    1.9226   14.8833 C   0  0  0  0  0  0  0  0  0  0  0  0
    2.8938    2.5081   13.6334 C   0  0  0  0  0  0  0  0  0  0  0  0
    3.4613    3.7363   13.4091 C   0  0  0  0  0  0  0  0  0  0  0  0
    4.0949    4.4127   14.4283 C   0  0  0  0  0  0  0  0  0  0  0  0
    4.1399    3.8250   15.6616 C   0  0  0  0  0  0  0  0  0  0  0  0
    4.6777    4.2588   16.7823 N   0  0  0  0  0  0  0  0  0  0  0  0
    4.4927    3.3629   17.7543 C   0  0  0  0  0  0  0  0  0  0  0  0
    4.8780    3.4072   19.0833 C   0  0  0  0  0  0  0  0  0  0  0  0
    2.2721   -1.6920   19.2582 H   0  0  0  0  0  0  0  0  0  0  0  0
    2.3815    5.5603   18.3075 C   0  0  0  0  0  0  0  0  0  0  0  0
    2.8853    6.7293   19.0046 N   0  0  0  0  0  0  0  0  0  0  0  0
    2.9754    6.4465   20.0040 H   0  0  0  0  0  0  0  0  0  0  0  0
    4.6931    6.9206   20.6645 O   0  0  0  0  0  0  0  0  0  0  0  0
    5.1365    8.0180   21.3923 C   0  0  0  0  0  0  0  0  0  0  0  0
 33 34  1  0  0  0
 34  1  1  0  0  0
  1  2  1  0  0  0
  2  3  1  0  0  0
  3  4  1  0  0  0
  4  5  1  0  0  0
  5  6  1  0  0  0
  5  7  1  0  0  0
  7 36  1  0  0  0
 36 37  1  0  0  0
  5  8  1  0  0  0
  8  9  1  0  0  0
  9 10  2  0  0  0
 10 11  1  0  0  0
 11 12  2  0  0  0
 12 13  1  0  0  0
 13 14  2  0  0  0
 14 15  1  0  0  0
 15 16  2  0  0  0
 16 17  1  0  0  0
 17 18  1  0  0  0
 18 19  1  0  0  0
 19 20  2  0  0  0
 19 21  1  0  0  0
 21 22  2  0  0  0
 22 23  1  0  0  0
 23 24  2  0  0  0
 24 25  1  0  0  0
 25 26  2  0  0  0
 26 27  1  0  0  0
 27 28  2  0  0  0
 28 29  1  0  0  0
 29 30  1  0  0  0
 30 31  2  0  0  0
  7  1  1  0  0  0
 31  8  1  0  0  0
 29  3  1  0  0  0
 14  9  1  0  0  0
 31 15  1  0  0  0
 21 16  1  0  0  0
 30 22  1  0  0  0
 28 23  1  0  0  0
 34 35  1  0  0  0
 18 32  1  0  0  0
M  END
> <minimizedAffinity>
-10.62040

> <CNNscore>
0.6135611534

> <CNNaffinity>
6.8996801376

> <CNN_VS>
4.2333755493

> <CNNaffinity_variance>
0.1078166366

$$$$
[H]c1c([H])c([H])c2c(c1[H])c1c3c(c4c5c([H])c([H])c([H])c([H])c5n5c4c1n2[C@@]1(C([H])([H])[H])O[C@]5([H])C([H])([H])[C@@]([H])(N([H])C([H])([H])[H])[C@@]1([H])OC([H])([H])[H])C(=O)N([H])C3([H])[H]


 37 44  0  0  0  0  0  0  0  0999 V2000
    0.5984    4.1003   10.2418 C   0  0  0  0  0  0  0  0  0  0  0  0
   -0.3884    3.2228    9.6096 C   0  0  0  0  0  0  0  0  0  0  0  0
    0.0420    2.7160    8.2903 C   0  0  0  0  0  0  0  0  0  0  0  0
    1.0417    3.2442    7.6375 O   0  0  0  0  0  0  0  0  0  0  0  0
    2.1721    3.7571    8.2681 C   0  0  0  0  0  0  0  0  0  0  0  0
    2.7328    4.6565    7.1584 C   0  0  0  0  0  0  0  0  0  0  0  0
    1.7737    4.5537    9.4222 C   0  0  0  0  0  0  0  0  0  0  0  0
    3.0778    2.6308    8.5550 N   0  0  0  0  0  0  0  0  0  0  0  0
    4.4024    2.6622    8.6887 C   0  0  0  0  0  0  0  0  0  0  0  0
    5.3158    3.6788    8.6506 C   0  0  0  0  0  0  0  0  0  0  0  0
    6.6621    3.4487    8.8254 C   0  0  0  0  0  0  0  0  0  0  0  0
    7.1529    2.1588    9.0504 C   0  0  0  0  0  0  0  0  0  0  0  0
    6.2484    1.1450    9.0895 C   0  0  0  0  0  0  0  0  0  0  0  0
    4.9116    1.3862    8.9143 C   0  0  0  0  0  0  0  0  0  0  0  0
    3.8327    0.5421    8.9184 C   0  0  0  0  0  0  0  0  0  0  0  0
    3.6952   -0.8370    9.0907 C   0  0  0  0  0  0  0  0  0  0  0  0
    4.7254   -1.8725    9.3342 C   0  0  0  0  0  0  0  0  0  0  0  0
    4.0472   -3.1225    9.4342 N   0  0  0  0  0  0  0  0  0  0  0  0
    2.6465   -2.8852    9.2600 C   0  0  0  0  0  0  0  0  0  0  0  0
    1.8342   -3.8113    9.3021 O   0  0  0  0  0  0  0  0  0  0  0  0
    2.4505   -1.4632    9.0487 C   0  0  0  0  0  0  0  0  0  0  0  0
    1.3556   -0.6580    8.8296 C   0  0  0  0  0  0  0  0  0  0  0  0
   -0.0059   -0.8827    8.7352 C   0  0  0  0  0  0  0  0  0  0  0  0
   -0.7666   -2.0151    8.8160 C   0  0  0  0  0  0  0  0  0  0  0  0
   -2.1374   -1.9177    8.6784 C   0  0  0  0  0  0  0  0  0  0  0  0
   -2.7375   -0.7035    8.4628 C   0  0  0  0  0  0  0  0  0  0  0  0
   -1.9835    0.4464    8.3790 C   0  0  0  0  0  0  0  0  0  0  0  0
   -0.6277    0.3396    8.5165 C   0  0  0  0  0  0  0  0  0  0  0  0
    0.2992    1.2738    8.4769 N   0  0  0  0  0  0  0  0  0  0  0  0
    1.5044    0.7292    8.6572 C   0  0  0  0  0  0  0  0  0  0  0  0
    2.7500    1.3319    8.7003 C   0  0  0  0  0  0  0  0  0  0  0  0
    4.5178   -4.0420    9.6060 H   0  0  0  0  0  0  0  0  0  0  0  0
    0.2854    3.9112   12.6137 C   0  0  0  0  0  0  0  0  0  0  0  0
    1.0558    3.4318   11.4811 N   0  0  0  0  0  0  0  0  0  0  0  0
    0.8840    2.4045   11.4358 H   0  0  0  0  0  0  0  0  0  0  0  0
    2.7643    4.8102   10.3673 O   0  0  0  0  0  0  0  0  0  0  0  0
    3.0704    6.1602   10.4865 C   0  0  0  0  0  0  0  0  0  0  0  0
 33 34  1  0  0  0
 34  1  1  0  0  0
  1  2  1  0  0  0
  2  3  1  0  0  0
  3  4  1  0  0  0
  4  5  1  0  0  0
  5  6  1  0  0  0
  5  7  1  0  0  0
  7 36  1  0  0  0
 36 37  1  0  0  0
  5  8  1  0  0  0
  8  9  1  0  0  0
  9 10  2  0  0  0
 10 11  1  0  0  0
 11 12  2  0  0  0
 12 13  1  0  0  0
 13 14  2  0  0  0
 14 15  1  0  0  0
 15 16  2  0  0  0
 16 17  1  0  0  0
 17 18  1  0  0  0
 18 19  1  0  0  0
 19 20  2  0  0  0
 19 21  1  0  0  0
 21 22  2  0  0  0
 22 23  1  0  0  0
 23 24  2  0  0  0
 24 25  1  0  0  0
 25 26  2  0  0  0
 26 27  1  0  0  0
 27 28  2  0  0  0
 28 29  1  0  0  0
 29 30  1  0  0  0
 30 31  2  0  0  0
  7  1  1  0  0  0
 31  8  1  0  0  0
 29  3  1  0  0  0
 14  9  1  0  0  0
 31 15  1  0  0  0
 21 16  1  0  0  0
 30 22  1  0  0  0
 28 23  1  0  0  0
 34 35  1  0  0  0
 18 32  1  0  0  0
M  END
> <minimizedAffinity>
-5.45439

> <CNNscore>
0.4334064722

> <CNNaffinity>
5.5327877998

> <CNN_VS>
2.3979461193

> <CNNaffinity_variance>
0.1530628502

$$$$
[H]c1c([H])c([H])c2c(c1[H])c1c3c(c4c5c([H])c([H])c([H])c([H])c5n5c4c1n2[C@@]1(C([H])([H])[H])O[C@]5([H])C([H])([H])[C@@]([H])(N([H])C([H])([H])[H])[C@@]1([H])OC([H])([H])[H])C(=O)N([H])C3([H])[H]


 37 44  0  0  0  0  0  0  0  0999 V2000
    6.9276    3.3657    4.4415 C   0  0  0  0  0  0  0  0  0  0  0  0
    6.8621    2.4028    5.5424 C   0  0  0  0  0  0  0  0  0  0  0  0
    7.3120    2.9617    6.8338 C   0  0  0  0  0  0  0  0  0  0  0  0
    7.9820    4.0798    6.9093 O   0  0  0  0  0  0  0  0  0  0  0  0
    7.7617    5.1546    6.0521 C   0  0  0  0  0  0  0  0  0  0  0  0
    9.0740    5.9305    6.2266 C   0  0  0  0  0  0  0  0  0  0  0  0
    7.6284    4.6731    4.6826 C   0  0  0  0  0  0  0  0  0  0  0  0
    6.6136    5.9177    6.5724 N   0  0  0  0  0  0  0  0  0  0  0  0
    6.3467    7.2107    6.3983 C   0  0  0  0  0  0  0  0  0  0  0  0
    6.9732    8.2019    5.6954 C   0  0  0  0  0  0  0  0  0  0  0  0
    6.4853    9.4893    5.6686 C   0  0  0  0  0  0  0  0  0  0  0  0
    5.3225    9.8374    6.3629 C   0  0  0  0  0  0  0  0  0  0  0  0
    4.6959    8.8550    7.0628 C   0  0  0  0  0  0  0  0  0  0  0  0
    5.1907    7.5780    7.0820 C   0  0  0  0  0  0  0  0  0  0  0  0
    4.7374    6.4421    7.6990 C   0  0  0  0  0  0  0  0  0  0  0  0
    3.6400    6.1694    8.5187 C   0  0  0  0  0  0  0  0  0  0  0  0
    2.5683    7.0688    9.0038 C   0  0  0  0  0  0  0  0  0  0  0  0
    1.6950    6.2823    9.8108 N   0  0  0  0  0  0  0  0  0  0  0  0
    2.1961    4.9417    9.8345 C   0  0  0  0  0  0  0  0  0  0  0  0
    1.6173    4.0573   10.4686 O   0  0  0  0  0  0  0  0  0  0  0  0
    3.4012    4.8938    9.0279 C   0  0  0  0  0  0  0  0  0  0  0  0
    4.2989    3.9083    8.6847 C   0  0  0  0  0  0  0  0  0  0  0  0
    4.4047    2.5576    8.9634 C   0  0  0  0  0  0  0  0  0  0  0  0
    3.6421    1.7020    9.7077 C   0  0  0  0  0  0  0  0  0  0  0  0
    4.0125    0.3745    9.7988 C   0  0  0  0  0  0  0  0  0  0  0  0
    5.1305   -0.0890    9.1537 C   0  0  0  0  0  0  0  0  0  0  0  0
    5.9086    0.7619    8.3999 C   0  0  0  0  0  0  0  0  0  0  0  0
    5.5338    2.0738    8.3159 C   0  0  0  0  0  0  0  0  0  0  0  0
    6.0995    3.0717    7.6697 N   0  0  0  0  0  0  0  0  0  0  0  0
    5.4005    4.1930    7.8591 C   0  0  0  0  0  0  0  0  0  0  0  0
    5.6215    5.4672    7.3652 C   0  0  0  0  0  0  0  0  0  0  0  0
    0.8402    6.6481   10.2924 H   0  0  0  0  0  0  0  0  0  0  0  0
    4.7067    2.4638    4.3241 C   0  0  0  0  0  0  0  0  0  0  0  0
    5.5424    3.5970    3.9726 N   0  0  0  0  0  0  0  0  0  0  0  0
    5.1193    4.4206    4.4516 H   0  0  0  0  0  0  0  0  0  0  0  0
    7.0322    5.5468    3.7761 O   0  0  0  0  0  0  0  0  0  0  0  0
    7.9022    5.9850    2.7853 C   0  0  0  0  0  0  0  0  0  0  0  0
 33 34  1  0  0  0
 34  1  1  0  0  0
  1  2  1  0  0  0
  2  3  1  0  0  0
  3  4  1  0  0  0
  4  5  1  0  0  0
  5  6  1  0  0  0
  5  7  1  0  0  0
  7 36  1  0  0  0
 36 37  1  0  0  0
  5  8  1  0  0  0
  8  9  1  0  0  0
  9 10  2  0  0  0
 10 11  1  0  0  0
 11 12  2  0  0  0
 12 13  1  0  0  0
 13 14  2  0  0  0
 14 15  1  0  0  0
 15 16  2  0  0  0
 16 17  1  0  0  0
 17 18  1  0  0  0
 18 19  1  0  0  0
 19 20  2  0  0  0
 19 21  1  0  0  0
 21 22  2  0  0  0
 22 23  1  0  0  0
 23 24  2  0  0  0
 24 25  1  0  0  0
 25 26  2  0  0  0
 26 27  1  0  0  0
 27 28  2  0  0  0
 28 29  1  0  0  0
 29 30  1  0  0  0
 30 31  2  0  0  0
  7  1  1  0  0  0
 31  8  1  0  0  0
 29  3  1  0  0  0
 14  9  1  0  0  0
 31 15  1  0  0  0
 21 16  1  0  0  0
 30 22  1  0  0  0
 28 23  1  0  0  0
 34 35  1  0  0  0
 18 32  1  0  0  0
M  END
> <minimizedAffinity>
-5.24709

> <CNNscore>
0.3784725964

> <CNNaffinity>
5.2683386803

> <CNN_VS>
1.9939218760

> <CNNaffinity_variance>
0.2094849646

$$$$
[H]c1c([H])c([H])c2c(c1[H])c1c3c(c4c5c([H])c([H])c([H])c([H])c5n5c4c1n2[C@@]1(C([H])([H])[H])O[C@]5([H])C([H])([H])[C@@]([H])(N([H])C([H])([H])[H])[C@@]1([H])OC([H])([H])[H])C(=O)N([H])C3([H])[H]


 37 44  0  0  0  0  0  0  0  0999 V2000
    0.4653    2.6471    8.0241 C   0  0  0  0  0  0  0  0  0  0  0  0
   -0.1541    3.1125    9.2663 C   0  0  0  0  0  0  0  0  0  0  0  0
    0.5457    2.6415   10.4792 C   0  0  0  0  0  0  0  0  0  0  0  0
    1.4188    1.6714   10.4429 O   0  0  0  0  0  0  0  0  0  0  0  0
    2.2791    1.4660    9.3676 C   0  0  0  0  0  0  0  0  0  0  0  0
    2.6785    0.0026    9.5991 C   0  0  0  0  0  0  0  0  0  0  0  0
    1.5451    1.6059    8.1158 C   0  0  0  0  0  0  0  0  0  0  0  0
    3.4311    2.3695    9.5336 N   0  0  0  0  0  0  0  0  0  0  0  0
    4.6685    2.2082    9.0685 C   0  0  0  0  0  0  0  0  0  0  0  0
    5.2522    1.2420    8.2972 C   0  0  0  0  0  0  0  0  0  0  0  0
    6.5803    1.3060    7.9395 C   0  0  0  0  0  0  0  0  0  0  0  0
    7.3909    2.3680    8.3525 C   0  0  0  0  0  0  0  0  0  0  0  0
    6.8148    3.3312    9.1191 C   0  0  0  0  0  0  0  0  0  0  0  0
    5.4926    3.2567    9.4686 C   0  0  0  0  0  0  0  0  0  0  0  0
    4.7059    4.0950   10.2135 C   0  0  0  0  0  0  0  0  0  0  0  0
    4.9496    5.2979   10.8800 C   0  0  0  0  0  0  0  0  0  0  0  0
    6.1991    6.0838   10.9976 C   0  0  0  0  0  0  0  0  0  0  0  0
    5.8992    7.2310   11.7891 N   0  0  0  0  0  0  0  0  0  0  0  0
    4.5171    7.1706   12.1564 C   0  0  0  0  0  0  0  0  0  0  0  0
    4.0035    8.0521   12.8480 O   0  0  0  0  0  0  0  0  0  0  0  0
    3.9479    5.9655   11.5830 C   0  0  0  0  0  0  0  0  0  0  0  0
    2.6999    5.3846   11.5908 C   0  0  0  0  0  0  0  0  0  0  0  0
    1.4782    5.7264   12.1420 C   0  0  0  0  0  0  0  0  0  0  0  0
    1.0683    6.7839   12.9045 C   0  0  0  0  0  0  0  0  0  0  0  0
   -0.2494    6.8497   13.3130 C   0  0  0  0  0  0  0  0  0  0  0  0
   -1.1435    5.8705   12.9628 C   0  0  0  0  0  0  0  0  0  0  0  0
   -0.7446    4.7988   12.1947 C   0  0  0  0  0  0  0  0  0  0  0  0
    0.5615    4.7426   11.7953 C   0  0  0  0  0  0  0  0  0  0  0  0
    1.1816    3.8375   11.0677 N   0  0  0  0  0  0  0  0  0  0  0  0
    2.4647    4.1735   10.9169 C   0  0  0  0  0  0  0  0  0  0  0  0
    3.4738    3.5247   10.2260 C   0  0  0  0  0  0  0  0  0  0  0  0
    6.5907    7.9751   12.0433 H   0  0  0  0  0  0  0  0  0  0  0  0
    0.2160    5.0154    7.7258 C   0  0  0  0  0  0  0  0  0  0  0  0
    0.9549    3.8415    7.2989 N   0  0  0  0  0  0  0  0  0  0  0  0
    1.9528    4.0349    7.5302 H   0  0  0  0  0  0  0  0  0  0  0  0
    2.3108    1.8133    6.9708 O   0  0  0  0  0  0  0  0  0  0  0  0
    2.2219    0.7706    6.0568 C   0  0  0  0  0  0  0  0  0  0  0  0
 33 34  1  0  0  0
 34  1  1  0  0  0
  1  2  1  0  0  0
  2  3  1  0  0  0
  3  4  1  0  0  0
  4  5  1  0  0  0
  5  6  1  0  0  0
  5  7  1  0  0  0
  7 36  1  0  0  0
 36 37  1  0  0  0
  5  8  1  0  0  0
  8  9  1  0  0  0
  9 10  2  0  0  0
 10 11  1  0  0  0
 11 12  2  0  0  0
 12 13  1  0  0  0
 13 14  2  0  0  0
 14 15  1  0  0  0
 15 16  2  0  0  0
 16 17  1  0  0  0
 17 18  1  0  0  0
 18 19  1  0  0  0
 19 20  2  0  0  0
 19 21  1  0  0  0
 21 22  2  0  0  0
 22 23  1  0  0  0
 23 24  2  0  0  0
 24 25  1  0  0  0
 25 26  2  0  0  0
 26 27  1  0  0  0
 27 28  2  0  0  0
 28 29  1  0  0  0
 29 30  1  0  0  0
 30 31  2  0  0  0
  7  1  1  0  0  0
 31  8  1  0  0  0
 29  3  1  0  0  0
 14  9  1  0  0  0
 31 15  1  0  0  0
 21 16  1  0  0  0
 30 22  1  0  0  0
 28 23  1  0  0  0
 34 35  1  0  0  0
 18 32  1  0  0  0
M  END
> <minimizedAffinity>
-6.21953

> <CNNscore>
0.3624206185

> <CNNaffinity>
5.5465536118

> <CNN_VS>
2.0101854801

> <CNNaffinity_variance>
0.1277882755

$$$$
[H]c1c([H])c([H])c2c(c1[H])c1c3c(c4c5c([H])c([H])c([H])c([H])c5n5c4c1n2[C@@]1(C([H])([H])[H])O[C@]5([H])C([H])([H])[C@@]([H])(N([H])C([H])([H])[H])[C@@]1([H])OC([H])([H])[H])C(=O)N([H])C3([H])[H]


 37 44  0  0  0  0  0  0  0  0999 V2000
    4.4071    1.3219    7.1454 C   0  0  0  0  0  0  0  0  0  0  0  0
    3.9045    1.2199    8.5167 C   0  0  0  0  0  0  0  0  0  0  0  0
    4.7048    1.9908    9.4901 C   0  0  0  0  0  0  0  0  0  0  0  0
    5.8948    2.4455    9.2037 O   0  0  0  0  0  0  0  0  0  0  0  0
    6.2488    2.8953    7.9345 C   0  0  0  0  0  0  0  0  0  0  0  0
    7.7787    2.8172    8.0220 C   0  0  0  0  0  0  0  0  0  0  0  0
    5.7445    1.9713    6.9259 C   0  0  0  0  0  0  0  0  0  0  0  0
    5.7889    4.2893    7.8063 N   0  0  0  0  0  0  0  0  0  0  0  0
    6.2894    5.2453    7.0258 C   0  0  0  0  0  0  0  0  0  0  0  0
    7.3025    5.2594    6.1080 C   0  0  0  0  0  0  0  0  0  0  0  0
    7.6320    6.4005    5.4114 C   0  0  0  0  0  0  0  0  0  0  0  0
    6.9398    7.5984    5.6153 C   0  0  0  0  0  0  0  0  0  0  0  0
    5.9314    7.5891    6.5266 C   0  0  0  0  0  0  0  0  0  0  0  0
    5.6128    6.4476    7.2134 C   0  0  0  0  0  0  0  0  0  0  0  0
    4.6516    6.1992    8.1573 C   0  0  0  0  0  0  0  0  0  0  0  0
    3.6716    6.9917    8.7590 C   0  0  0  0  0  0  0  0  0  0  0  0
    3.3485    8.4226    8.5560 C   0  0  0  0  0  0  0  0  0  0  0  0
    2.2590    8.7327    9.4215 N   0  0  0  0  0  0  0  0  0  0  0  0
    1.9097    7.5460   10.1417 C   0  0  0  0  0  0  0  0  0  0  0  0
    0.9902    7.5474   10.9625 O   0  0  0  0  0  0  0  0  0  0  0  0
    2.7969    6.4798    9.7162 C   0  0  0  0  0  0  0  0  0  0  0  0
    2.9413    5.1506   10.0439 C   0  0  0  0  0  0  0  0  0  0  0  0
    2.2856    4.2911   10.9067 C   0  0  0  0  0  0  0  0  0  0  0  0
    1.2418    4.4638   11.7718 C   0  0  0  0  0  0  0  0  0  0  0  0
    0.7991    3.3886   12.5171 C   0  0  0  0  0  0  0  0  0  0  0  0
    1.3933    2.1584   12.3976 C   0  0  0  0  0  0  0  0  0  0  0  0
    2.4463    1.9695   11.5298 C   0  0  0  0  0  0  0  0  0  0  0  0
    2.8772    3.0397   10.7966 C   0  0  0  0  0  0  0  0  0  0  0  0
    3.8494    3.1182    9.9122 N   0  0  0  0  0  0  0  0  0  0  0  0
    3.9310    4.3613    9.4326 C   0  0  0  0  0  0  0  0  0  0  0  0
    4.7917    4.8892    8.4855 C   0  0  0  0  0  0  0  0  0  0  0  0
    1.8100    9.6756    9.4976 H   0  0  0  0  0  0  0  0  0  0  0  0
    2.0671    1.8249    6.9699 C   0  0  0  0  0  0  0  0  0  0  0  0
    3.3634    1.9959    6.3403 N   0  0  0  0  0  0  0  0  0  0  0  0
    3.5273    3.0248    6.3037 H   0  0  0  0  0  0  0  0  0  0  0  0
    5.6723    2.4586    5.6229 O   0  0  0  0  0  0  0  0  0  0  0  0
    6.5369    1.8121    4.7483 C   0  0  0  0  0  0  0  0  0  0  0  0
 33 34  1  0  0  0
 34  1  1  0  0  0
  1  2  1  0  0  0
  2  3  1  0  0  0
  3  4  1  0  0  0
  4  5  1  0  0  0
  5  6  1  0  0  0
  5  7  1  0  0  0
  7 36  1  0  0  0
 36 37  1  0  0  0
  5  8  1  0  0  0
  8  9  1  0  0  0
  9 10  2  0  0  0
 10 11  1  0  0  0
 11 12  2  0  0  0
 12 13  1  0  0  0
 13 14  2  0  0  0
 14 15  1  0  0  0
 15 16  2  0  0  0
 16 17  1  0  0  0
 17 18  1  0  0  0
 18 19  1  0  0  0
 19 20  2  0  0  0
 19 21  1  0  0  0
 21 22  2  0  0  0
 22 23  1  0  0  0
 23 24  2  0  0  0
 24 25  1  0  0  0
 25 26  2  0  0  0
 26 27  1  0  0  0
 27 28  2  0  0  0
 28 29  1  0  0  0
 29 30  1  0  0  0
 30 31  2  0  0  0
  7  1  1  0  0  0
 31  8  1  0  0  0
 29  3  1  0  0  0
 14  9  1  0  0  0
 31 15  1  0  0  0
 21 16  1  0  0  0
 30 22  1  0  0  0
 28 23  1  0  0  0
 34 35  1  0  0  0
 18 32  1  0  0  0
M  END
> <minimizedAffinity>
-5.45723

> <CNNscore>
0.3135559559

> <CNNaffinity>
5.3707551956

> <CNN_VS>
1.6840323210

> <CNNaffinity_variance>
0.3828890920

$$$$
[H]c1c([H])c([H])c2c(c1[H])c1c3c(c4c5c([H])c([H])c([H])c([H])c5n5c4c1n2[C@@]1(C([H])([H])[H])O[C@]5([H])C([H])([H])[C@@]([H])(N([H])C([H])([H])[H])[C@@]1([H])OC([H])([H])[H])C(=O)N([H])C3([H])[H]


 37 44  0  0  0  0  0  0  0  0999 V2000
    7.7472    3.0128    7.3060 C   0  0  0  0  0  0  0  0  0  0  0  0
    7.5991    3.9401    6.1828 C   0  0  0  0  0  0  0  0  0  0  0  0
    6.2330    3.9619    5.6206 C   0  0  0  0  0  0  0  0  0  0  0  0
    5.3564    3.0335    5.8934 O   0  0  0  0  0  0  0  0  0  0  0  0
    5.2793    2.4049    7.1333 C   0  0  0  0  0  0  0  0  0  0  0  0
    4.4975    1.1381    6.7612 C   0  0  0  0  0  0  0  0  0  0  0  0
    6.6187    2.0639    7.5969 C   0  0  0  0  0  0  0  0  0  0  0  0
    4.4978    3.2737    8.0309 N   0  0  0  0  0  0  0  0  0  0  0  0
    3.7787    2.9143    9.0925 C   0  0  0  0  0  0  0  0  0  0  0  0
    3.5610    1.7102    9.7024 C   0  0  0  0  0  0  0  0  0  0  0  0
    2.7600    1.5979   10.8167 C   0  0  0  0  0  0  0  0  0  0  0  0
    2.1330    2.7170   11.3734 C   0  0  0  0  0  0  0  0  0  0  0  0
    2.3468    3.9164   10.7706 C   0  0  0  0  0  0  0  0  0  0  0  0
    3.1458    4.0157    9.6626 C   0  0  0  0  0  0  0  0  0  0  0  0
    3.5066    5.0966    8.9023 C   0  0  0  0  0  0  0  0  0  0  0  0
    3.2006    6.4578    8.9652 C   0  0  0  0  0  0  0  0  0  0  0  0
    2.3453    7.1972    9.9215 C   0  0  0  0  0  0  0  0  0  0  0  0
    2.3731    8.5689    9.5342 N   0  0  0  0  0  0  0  0  0  0  0  0
    3.2112    8.6896    8.3800 C   0  0  0  0  0  0  0  0  0  0  0  0
    3.4022    9.7829    7.8441 O   0  0  0  0  0  0  0  0  0  0  0  0
    3.7133    7.3704    8.0445 C   0  0  0  0  0  0  0  0  0  0  0  0
    4.5404    6.8686    7.0651 C   0  0  0  0  0  0  0  0  0  0  0  0
    5.2380    7.4274    6.0096 C   0  0  0  0  0  0  0  0  0  0  0  0
    5.3474    8.7078    5.5447 C   0  0  0  0  0  0  0  0  0  0  0  0
    6.1402    8.9592    4.4421 C   0  0  0  0  0  0  0  0  0  0  0  0
    6.8137    7.9428    3.8142 C   0  0  0  0  0  0  0  0  0  0  0  0
    6.7129    6.6473    4.2716 C   0  0  0  0  0  0  0  0  0  0  0  0
    5.9258    6.4086    5.3635 C   0  0  0  0  0  0  0  0  0  0  0  0
    5.6682    5.2769    5.9849 N   0  0  0  0  0  0  0  0  0  0  0  0
    4.8423    5.4967    7.0102 C   0  0  0  0  0  0  0  0  0  0  0  0
    4.3210    4.6060    7.9330 C   0  0  0  0  0  0  0  0  0  0  0  0
    1.8591    9.3364   10.0273 H   0  0  0  0  0  0  0  0  0  0  0  0
    8.6134    5.1036    8.1048 C   0  0  0  0  0  0  0  0  0  0  0  0
    8.0714    3.8183    8.5053 N   0  0  0  0  0  0  0  0  0  0  0  0
    7.2115    4.0319    9.0545 H   0  0  0  0  0  0  0  0  0  0  0  0
    6.7507    1.7905    8.9564 O   0  0  0  0  0  0  0  0  0  0  0  0
    6.9544    0.4428    9.2262 C   0  0  0  0  0  0  0  0  0  0  0  0
 33 34  1  0  0  0
 34  1  1  0  0  0
  1  2  1  0  0  0
  2  3  1  0  0  0
  3  4  1  0  0  0
  4  5  1  0  0  0
  5  6  1  0  0  0
  5  7  1  0  0  0
  7 36  1  0  0  0
 36 37  1  0  0  0
  5  8  1  0  0  0
  8  9  1  0  0  0
  9 10  2  0  0  0
 10 11  1  0  0  0
 11 12  2  0  0  0
 12 13  1  0  0  0
 13 14  2  0  0  0
 14 15  1  0  0  0
 15 16  2  0  0  0
 16 17  1  0  0  0
 17 18  1  0  0  0
 18 19  1  0  0  0
 19 20  2  0  0  0
 19 21  1  0  0  0
 21 22  2  0  0  0
 22 23  1  0  0  0
 23 24  2  0  0  0
 24 25  1  0  0  0
 25 26  2  0  0  0
 26 27  1  0  0  0
 27 28  2  0  0  0
 28 29  1  0  0  0
 29 30  1  0  0  0
 30 31  2  0  0  0
  7  1  1  0  0  0
 31  8  1  0  0  0
 29  3  1  0  0  0
 14  9  1  0  0  0
 31 15  1  0  0  0
 21 16  1  0  0  0
 30 22  1  0  0  0
 28 23  1  0  0  0
 34 35  1  0  0  0
 18 32  1  0  0  0
M  END
> <minimizedAffinity>
-5.58311

> <CNNscore>
0.3124914467

> <CNNaffinity>
5.3471231461

> <CNN_VS>
1.6709302664

> <CNNaffinity_variance>
0.1586709321

$$$$
[H]c1c([H])c([H])c2c(c1[H])c1c3c(c4c5c([H])c([H])c([H])c([H])c5n5c4c1n2[C@@]1(C([H])([H])[H])O[C@]5([H])C([H])([H])[C@@]([H])(N([H])C([H])([H])[H])[C@@]1([H])OC([H])([H])[H])C(=O)N([H])C3([H])[H]


 37 44  0  0  0  0  0  0  0  0999 V2000
    1.9475    4.5503   11.9432 C   0  0  0  0  0  0  0  0  0  0  0  0
    2.1800    3.1889   11.4575 C   0  0  0  0  0  0  0  0  0  0  0  0
    1.9906    3.0497    9.9989 C   0  0  0  0  0  0  0  0  0  0  0  0
    1.3826    3.9612    9.2888 O   0  0  0  0  0  0  0  0  0  0  0  0
    1.4788    5.3232    9.5614 C   0  0  0  0  0  0  0  0  0  0  0  0
    0.2463    5.8500    8.8145 C   0  0  0  0  0  0  0  0  0  0  0  0
    1.3456    5.5492   10.9954 C   0  0  0  0  0  0  0  0  0  0  0  0
    2.7268    5.8170    8.9532 N   0  0  0  0  0  0  0  0  0  0  0  0
    3.0001    7.0534    8.5407 C   0  0  0  0  0  0  0  0  0  0  0  0
    2.2894    8.2209    8.5708 C   0  0  0  0  0  0  0  0  0  0  0  0
    2.8064    9.3958    8.0725 C   0  0  0  0  0  0  0  0  0  0  0  0
    4.0868    9.4432    7.5122 C   0  0  0  0  0  0  0  0  0  0  0  0
    4.7973    8.2849    7.4805 C   0  0  0  0  0  0  0  0  0  0  0  0
    4.2724    7.1223    7.9794 C   0  0  0  0  0  0  0  0  0  0  0  0
    4.7926    5.8577    8.0613 C   0  0  0  0  0  0  0  0  0  0  0  0
    6.0109    5.2954    7.6740 C   0  0  0  0  0  0  0  0  0  0  0  0
    7.1819    5.9216    7.0186 C   0  0  0  0  0  0  0  0  0  0  0  0
    8.1608    4.8997    6.8453 N   0  0  0  0  0  0  0  0  0  0  0  0
    7.6285    3.6787    7.3692 C   0  0  0  0  0  0  0  0  0  0  0  0
    8.2833    2.6349    7.3398 O   0  0  0  0  0  0  0  0  0  0  0  0
    6.2961    3.9461    7.8774 C   0  0  0  0  0  0  0  0  0  0  0  0
    5.3191    3.1874    8.4814 C   0  0  0  0  0  0  0  0  0  0  0  0
    5.2212    1.8604    8.8590 C   0  0  0  0  0  0  0  0  0  0  0  0
    6.0776    0.8007    8.7531 C   0  0  0  0  0  0  0  0  0  0  0  0
    5.6865   -0.4329    9.2354 C   0  0  0  0  0  0  0  0  0  0  0  0
    4.4554   -0.6026    9.8155 C   0  0  0  0  0  0  0  0  0  0  0  0
    3.5818    0.4564    9.9291 C   0  0  0  0  0  0  0  0  0  0  0  0
    3.9781    1.6733    9.4487 C   0  0  0  0  0  0  0  0  0  0  0  0
    3.3376    2.8236    9.4373 N   0  0  0  0  0  0  0  0  0  0  0  0
    4.0959    3.7627    8.8675 C   0  0  0  0  0  0  0  0  0  0  0  0
    3.8310    5.1048    8.6546 C   0  0  0  0  0  0  0  0  0  0  0  0
    9.1004    5.0450    6.4065 H   0  0  0  0  0  0  0  0  0  0  0  0
    3.8962    4.0045   13.2334 C   0  0  0  0  0  0  0  0  0  0  0  0
    3.2315    5.0533   12.4823 N   0  0  0  0  0  0  0  0  0  0  0  0
    3.8853    5.3079   11.7113 H   0  0  0  0  0  0  0  0  0  0  0  0
    1.7957    6.7786   11.4713 O   0  0  0  0  0  0  0  0  0  0  0  0
    0.7959    7.5308   12.0755 C   0  0  0  0  0  0  0  0  0  0  0  0
 33 34  1  0  0  0
 34  1  1  0  0  0
  1  2  1  0  0  0
  2  3  1  0  0  0
  3  4  1  0  0  0
  4  5  1  0  0  0
  5  6  1  0  0  0
  5  7  1  0  0  0
  7 36  1  0  0  0
 36 37  1  0  0  0
  5  8  1  0  0  0
  8  9  1  0  0  0
  9 10  2  0  0  0
 10 11  1  0  0  0
 11 12  2  0  0  0
 12 13  1  0  0  0
 13 14  2  0  0  0
 14 15  1  0  0  0
 15 16  2  0  0  0
 16 17  1  0  0  0
 17 18  1  0  0  0
 18 19  1  0  0  0
 19 20  2  0  0  0
 19 21  1  0  0  0
 21 22  2  0  0  0
 22 23  1  0  0  0
 23 24  2  0  0  0
 24 25  1  0  0  0
 25 26  2  0  0  0
 26 27  1  0  0  0
 27 28  2  0  0  0
 28 29  1  0  0  0
 29 30  1  0  0  0
 30 31  2  0  0  0
  7  1  1  0  0  0
 31  8  1  0  0  0
 29  3  1  0  0  0
 14  9  1  0  0  0
 31 15  1  0  0  0
 21 16  1  0  0  0
 30 22  1  0  0  0
 28 23  1  0  0  0
 34 35  1  0  0  0
 18 32  1  0  0  0
M  END
> <minimizedAffinity>
-6.26320

> <CNNscore>
0.3098972738

> <CNNaffinity>
5.4715065956

> <CNN_VS>
1.6956049204

> <CNNaffinity_variance>
0.0950703770

$$$$
[H]c1c([H])c([H])c2c(c1[H])c1c3c(c4c5c([H])c([H])c([H])c([H])c5n5c4c1n2[C@@]1(C([H])([H])[H])O[C@]5([H])C([H])([H])[C@@]([H])(N([H])C([H])([H])[H])[C@@]1([H])OC([H])([H])[H])C(=O)N([H])C3([H])[H]


 37 44  0  0  0  0  0  0  0  0999 V2000
    2.7923    1.5015    7.4158 C   0  0  0  0  0  0  0  0  0  0  0  0
    2.2108    1.5467    8.7586 C   0  0  0  0  0  0  0  0  0  0  0  0
    3.1988    1.3067    9.8304 C   0  0  0  0  0  0  0  0  0  0  0  0
    4.3785    0.8036    9.5857 O   0  0  0  0  0  0  0  0  0  0  0  0
    5.0937    1.0794    8.4234 C   0  0  0  0  0  0  0  0  0  0  0  0
    6.0836   -0.0930    8.4141 C   0  0  0  0  0  0  0  0  0  0  0  0
    4.2049    1.0099    7.2699 C   0  0  0  0  0  0  0  0  0  0  0  0
    5.7866    2.3655    8.6155 N   0  0  0  0  0  0  0  0  0  0  0  0
    6.9065    2.7848    8.0295 C   0  0  0  0  0  0  0  0  0  0  0  0
    7.7241    2.2299    7.0846 C   0  0  0  0  0  0  0  0  0  0  0  0
    8.8484    2.8809    6.6282 C   0  0  0  0  0  0  0  0  0  0  0  0
    9.2017    4.1433    7.1151 C   0  0  0  0  0  0  0  0  0  0  0  0
    8.3916    4.6990    8.0543 C   0  0  0  0  0  0  0  0  0  0  0  0
    7.2758    4.0418    8.5006 C   0  0  0  0  0  0  0  0  0  0  0  0
    6.3236    4.3980    9.4188 C   0  0  0  0  0  0  0  0  0  0  0  0
    6.1420    5.5251   10.2233 C   0  0  0  0  0  0  0  0  0  0  0  0
    6.9644    6.7506   10.3432 C   0  0  0  0  0  0  0  0  0  0  0  0
    6.3317    7.5866   11.3092 N   0  0  0  0  0  0  0  0  0  0  0  0
    5.1585    6.9152   11.7801 C   0  0  0  0  0  0  0  0  0  0  0  0
    4.4280    7.4305   12.6287 O   0  0  0  0  0  0  0  0  0  0  0  0
    5.0600    5.6403   11.0946 C   0  0  0  0  0  0  0  0  0  0  0  0
    4.1720    4.5888   11.1270 C   0  0  0  0  0  0  0  0  0  0  0  0
    3.0041    4.3312   11.8218 C   0  0  0  0  0  0  0  0  0  0  0  0
    2.3049    5.0425   12.7560 C   0  0  0  0  0  0  0  0  0  0  0  0
    1.1438    4.5084   13.2797 C   0  0  0  0  0  0  0  0  0  0  0  0
    0.6897    3.2797   12.8734 C   0  0  0  0  0  0  0  0  0  0  0  0
    1.3841    2.5515   11.9326 C   0  0  0  0  0  0  0  0  0  0  0  0
    2.5320    3.0885   11.4203 C   0  0  0  0  0  0  0  0  0  0  0  0
    3.3634    2.6002   10.5238 N   0  0  0  0  0  0  0  0  0  0  0  0
    4.3637    3.4586   10.3134 C   0  0  0  0  0  0  0  0  0  0  0  0
    5.4464    3.3624    9.4560 C   0  0  0  0  0  0  0  0  0  0  0  0
    6.6860    8.5265   11.6052 H   0  0  0  0  0  0  0  0  0  0  0  0
    1.5652    3.5631    7.4790 C   0  0  0  0  0  0  0  0  0  0  0  0
    2.6480    2.8515    6.8252 N   0  0  0  0  0  0  0  0  0  0  0  0
    3.5036    3.4239    6.9899 H   0  0  0  0  0  0  0  0  0  0  0  0
    4.6566    1.6245    6.1043 O   0  0  0  0  0  0  0  0  0  0  0  0
    4.8990    0.7275    5.0713 C   0  0  0  0  0  0  0  0  0  0  0  0
 33 34  1  0  0  0
 34  1  1  0  0  0
  1  2  1  0  0  0
  2  3  1  0  0  0
  3  4  1  0  0  0
  4  5  1  0  0  0
  5  6  1  0  0  0
  5  7  1  0  0  0
  7 36  1  0  0  0
 36 37  1  0  0  0
  5  8  1  0  0  0
  8  9  1  0  0  0
  9 10  2  0  0  0
 10 11  1  0  0  0
 11 12  2  0  0  0
 12 13  1  0  0  0
 13 14  2  0  0  0
 14 15  1  0  0  0
 15 16  2  0  0  0
 16 17  1  0  0  0
 17 18  1  0  0  0
 18 19  1  0  0  0
 19 20  2  0  0  0
 19 21  1  0  0  0
 21 22  2  0  0  0
 22 23  1  0  0  0
 23 24  2  0  0  0
 24 25  1  0  0  0
 25 26  2  0  0  0
 26 27  1  0  0  0
 27 28  2  0  0  0
 28 29  1  0  0  0
 29 30  1  0  0  0
 30 31  2  0  0  0
  7  1  1  0  0  0
 31  8  1  0  0  0
 29  3  1  0  0  0
 14  9  1  0  0  0
 31 15  1  0  0  0
 21 16  1  0  0  0
 30 22  1  0  0  0
 28 23  1  0  0  0
 34 35  1  0  0  0
 18 32  1  0  0  0
M  END
> <minimizedAffinity>
-5.76794

> <CNNscore>
0.3020061851

> <CNNaffinity>
5.4166221619

> <CNN_VS>
1.6358534098

> <CNNaffinity_variance>
0.3632305861

$$$$
[H]c1c([H])c([H])c2c(c1[H])c1c3c(c4c5c([H])c([H])c([H])c([H])c5n5c4c1n2[C@@]1(C([H])([H])[H])O[C@]5([H])C([H])([H])[C@@]([H])(N([H])C([H])([H])[H])[C@@]1([H])OC([H])([H])[H])C(=O)N([H])C3([H])[H]


 37 44  0  0  0  0  0  0  0  0999 V2000
    4.4351    4.3389   10.3015 C   0  0  0  0  0  0  0  0  0  0  0  0
    3.2547    4.4460   11.1610 C   0  0  0  0  0  0  0  0  0  0  0  0
    2.8767    5.8422   11.4614 C   0  0  0  0  0  0  0  0  0  0  0  0
    3.6876    6.8420   11.2436 O   0  0  0  0  0  0  0  0  0  0  0  0
    4.5733    6.8793   10.1699 C   0  0  0  0  0  0  0  0  0  0  0  0
    5.5695    7.9384   10.6603 C   0  0  0  0  0  0  0  0  0  0  0  0
    5.2290    5.5850   10.0270 C   0  0  0  0  0  0  0  0  0  0  0  0
    3.8290    7.3488    8.9882 N   0  0  0  0  0  0  0  0  0  0  0  0
    4.3097    7.9797    7.9185 C   0  0  0  0  0  0  0  0  0  0  0  0
    5.5726    8.3499    7.5481 C   0  0  0  0  0  0  0  0  0  0  0  0
    5.8160    9.0045    6.3614 C   0  0  0  0  0  0  0  0  0  0  0  0
    4.7757    9.3191    5.4815 C   0  0  0  0  0  0  0  0  0  0  0  0
    3.5184    8.9526    5.8453 C   0  0  0  0  0  0  0  0  0  0  0  0
    3.2886    8.3017    7.0283 C   0  0  0  0  0  0  0  0  0  0  0  0
    2.1310    7.8365    7.5940 C   0  0  0  0  0  0  0  0  0  0  0  0
    0.7932    7.8558    7.1934 C   0  0  0  0  0  0  0  0  0  0  0  0
    0.1747    8.4151    5.9697 C   0  0  0  0  0  0  0  0  0  0  0  0
   -1.2264    8.1669    6.0578 N   0  0  0  0  0  0  0  0  0  0  0  0
   -1.4813    7.4800    7.2874 C   0  0  0  0  0  0  0  0  0  0  0  0
   -2.6249    7.1479    7.6053 O   0  0  0  0  0  0  0  0  0  0  0  0
   -0.2169    7.2975    7.9752 C   0  0  0  0  0  0  0  0  0  0  0  0
    0.1639    6.7216    9.1662 C   0  0  0  0  0  0  0  0  0  0  0  0
   -0.5096    6.0712   10.1843 C   0  0  0  0  0  0  0  0  0  0  0  0
   -1.8286    5.7721   10.3802 C   0  0  0  0  0  0  0  0  0  0  0  0
   -2.2037    5.0964   11.5249 C   0  0  0  0  0  0  0  0  0  0  0  0
   -1.2712    4.7257   12.4597 C   0  0  0  0  0  0  0  0  0  0  0  0
    0.0618    5.0205   12.2756 C   0  0  0  0  0  0  0  0  0  0  0  0
    0.4231    5.6895   11.1395 C   0  0  0  0  0  0  0  0  0  0  0  0
    1.6130    6.0826   10.7360 N   0  0  0  0  0  0  0  0  0  0  0  0
    1.5132    6.7073    9.5605 C   0  0  0  0  0  0  0  0  0  0  0  0
    2.5015    7.2694    8.7707 C   0  0  0  0  0  0  0  0  0  0  0  0
   -1.9269    8.4497    5.3326 H   0  0  0  0  0  0  0  0  0  0  0  0
    2.8041    2.9219    9.2567 C   0  0  0  0  0  0  0  0  0  0  0  0
    4.0037    3.7074    9.0337 N   0  0  0  0  0  0  0  0  0  0  0  0
    3.7431    4.4288    8.3277 H   0  0  0  0  0  0  0  0  0  0  0  0
    5.8374    5.3331    8.7995 O   0  0  0  0  0  0  0  0  0  0  0  0
    7.2201    5.2279    8.8855 C   0  0  0  0  0  0  0  0  0  0  0  0
 33 34  1  0  0  0
 34  1  1  0  0  0
  1  2  1  0  0  0
  2  3  1  0  0  0
  3  4  1  0  0  0
  4  5  1  0  0  0
  5  6  1  0  0  0
  5  7  1  0  0  0
  7 36  1  0  0  0
 36 37  1  0  0  0
  5  8  1  0  0  0
  8  9  1  0  0  0
  9 10  2  0  0  0
 10 11  1  0  0  0
 11 12  2  0  0  0
 12 13  1  0  0  0
 13 14  2  0  0  0
 14 15  1  0  0  0
 15 16  2  0  0  0
 16 17  1  0  0  0
 17 18  1  0  0  0
 18 19  1  0  0  0
 19 20  2  0  0  0
 19 21  1  0  0  0
 21 22  2  0  0  0
 22 23  1  0  0  0
 23 24  2  0  0  0
 24 25  1  0  0  0
 25 26  2  0  0  0
 26 27  1  0  0  0
 27 28  2  0  0  0
 28 29  1  0  0  0
 29 30  1  0  0  0
 30 31  2  0  0  0
  7  1  1  0  0  0
 31  8  1  0  0  0
 29  3  1  0  0  0
 14  9  1  0  0  0
 31 15  1  0  0  0
 21 16  1  0  0  0
 30 22  1  0  0  0
 28 23  1  0  0  0
 34 35  1  0  0  0
 18 32  1  0  0  0
M  END
> <minimizedAffinity>
-5.88521

> <CNNscore>
0.2602267563

> <CNNaffinity>
5.3472557068

> <CNN_VS>
1.3914990425

> <CNNaffinity_variance>
0.3059780598

$$$$
[H]c1c([H])c(C(F)(F)F)c(C#N)c([H])c1-c1c([H])c(C(=O)N2C([H])([H])N(c3c([H])c([H])c4c(c3[H])C([H])([H])OC4([H])[H])C([H])([H])C2([H])[H])c([H])c(C(F)(F)F)c1[H]


 38 42  0  0  0  0  0  0  0  0999 V2000
    5.3056    2.2650   20.5185 C   0  0  0  0  0  0  0  0  0  0  0  0
    5.2625    3.6222   20.5178 C   0  0  0  0  0  0  0  0  0  0  0  0
    4.6452    4.3518   19.4930 C   0  0  0  0  0  0  0  0  0  0  0  0
    4.0783    3.6295   18.4768 C   0  0  0  0  0  0  0  0  0  0  0  0
    4.0882    2.2392   18.4145 C   0  0  0  0  0  0  0  0  0  0  0  0
    4.7010    1.5881   19.4411 C   0  0  0  0  0  0  0  0  0  0  0  0
    3.3702    1.6071   17.3053 C   0  0  0  0  0  0  0  0  0  0  0  0
    3.3122    2.1104   15.9943 N   0  0  0  0  0  0  0  0  0  0  0  0
    3.8341    3.3395   15.4947 C   0  0  0  0  0  0  0  0  0  0  0  0
    2.7029    3.7373   14.5040 C   0  0  0  0  0  0  0  0  0  0  0  0
    2.5517    2.4186   13.8575 N   0  0  0  0  0  0  0  0  0  0  0  0
    2.7365    1.4009   14.8461 C   0  0  0  0  0  0  0  0  0  0  0  0
    2.7313    0.5182   17.5194 O   0  0  0  0  0  0  0  0  0  0  0  0
    2.2734    2.3306   12.4839 C   0  0  0  0  0  0  0  0  0  0  0  0
    3.0737    3.0217   11.6014 C   0  0  0  0  0  0  0  0  0  0  0  0
    2.8627    2.9186   10.2320 C   0  0  0  0  0  0  0  0  0  0  0  0
    1.8500    2.1247    9.7216 C   0  0  0  0  0  0  0  0  0  0  0  0
    1.0486    1.4335   10.6040 C   0  0  0  0  0  0  0  0  0  0  0  0
    1.2613    1.5405   11.9470 C   0  0  0  0  0  0  0  0  0  0  0  0
    0.0747    0.6735    9.7777 C   0  0  0  0  0  0  0  0  0  0  0  0
    0.6062    0.6551    8.4868 O   0  0  0  0  0  0  0  0  0  0  0  0
    1.3790    1.7923    8.3606 C   0  0  0  0  0  0  0  0  0  0  0  0
    4.6928    5.8046   19.5554 C   0  0  0  0  0  0  0  0  0  0  0  0
    5.8080    6.4377   20.1269 C   0  0  0  0  0  0  0  0  0  0  0  0
    5.9317    7.7957   20.2141 C   0  0  0  0  0  0  0  0  0  0  0  0
    4.9307    8.6227   19.7260 C   0  0  0  0  0  0  0  0  0  0  0  0
    3.8245    8.0247   19.1589 C   0  0  0  0  0  0  0  0  0  0  0  0
    3.7123    6.6259   19.0779 C   0  0  0  0  0  0  0  0  0  0  0  0
    5.0525   10.1075   19.8101 C   0  0  0  0  0  0  0  0  0  0  0  0
    3.8913   10.7111   19.2977 F   0  0  0  0  0  0  0  0  0  0  0  0
    5.3280   10.5622   21.0690 F   0  0  0  0  0  0  0  0  0  0  0  0
    6.0840   10.4869   18.9747 F   0  0  0  0  0  0  0  0  0  0  0  0
    7.0944    8.4231   20.8043 C   0  0  0  0  0  0  0  0  0  0  0  0
    8.0215    8.9486   21.2743 N   0  0  0  0  0  0  0  0  0  0  0  0
    5.2507    1.4429   22.7418 F   0  0  0  0  0  0  0  0  0  0  0  0
    5.9774    1.4820   21.5910 C   0  0  0  0  0  0  0  0  0  0  0  0
    6.2492    0.2241   21.0852 F   0  0  0  0  0  0  0  0  0  0  0  0
    7.1998    2.0858   21.8293 F   0  0  0  0  0  0  0  0  0  0  0  0
 35 36  1  0  0  0
 36 37  1  0  0  0
 36  1  1  0  0  0
  1  2  2  0  0  0
  2  3  1  0  0  0
  3 23  1  0  0  0
 23 24  2  0  0  0
 24 25  1  0  0  0
 25 33  1  0  0  0
 33 34  3  0  0  0
 25 26  2  0  0  0
 26 29  1  0  0  0
 29 30  1  0  0  0
 29 31  1  0  0  0
 29 32  1  0  0  0
 26 27  1  0  0  0
 27 28  2  0  0  0
  3  4  2  0  0  0
  4  5  1  0  0  0
  5  7  1  0  0  0
  7  8  1  0  0  0
  8  9  1  0  0  0
  9 10  1  0  0  0
 10 11  1  0  0  0
 11 14  1  0  0  0
 14 15  2  0  0  0
 15 16  1  0  0  0
 16 17  2  0  0  0
 17 18  1  0  0  0
 18 19  2  0  0  0
 18 20  1  0  0  0
 20 21  1  0  0  0
 21 22  1  0  0  0
 11 12  1  0  0  0
  7 13  2  0  0  0
  5  6  2  0  0  0
 36 38  1  0  0  0
  6  1  1  0  0  0
 28 23  1  0  0  0
 12  8  1  0  0  0
 19 14  1  0  0  0
 22 17  1  0  0  0
M  END
> <minimizedAffinity>
-9.65660

> <CNNscore>
0.4902963042

> <CNNaffinity>
6.5119919777

> <CNN_VS>
3.1928055286

> <CNNaffinity_variance>
0.6386992335

$$$$
[H]c1c([H])c(C(F)(F)F)c(C#N)c([H])c1-c1c([H])c(C(=O)N2C([H])([H])N(c3c([H])c([H])c4c(c3[H])C([H])([H])OC4([H])[H])C([H])([H])C2([H])[H])c([H])c(C(F)(F)F)c1[H]


 38 42  0  0  0  0  0  0  0  0999 V2000
    0.1488    5.1426   12.1368 C   0  0  0  0  0  0  0  0  0  0  0  0
    0.8323    4.7313   13.2356 C   0  0  0  0  0  0  0  0  0  0  0  0
    2.1748    4.3337   13.1777 C   0  0  0  0  0  0  0  0  0  0  0  0
    2.7787    4.3776   11.9492 C   0  0  0  0  0  0  0  0  0  0  0  0
    2.1369    4.7864   10.7840 C   0  0  0  0  0  0  0  0  0  0  0  0
    0.8343    5.1629   10.9063 C   0  0  0  0  0  0  0  0  0  0  0  0
    2.9381    4.8562    9.5598 C   0  0  0  0  0  0  0  0  0  0  0  0
    3.5216    6.0273    9.0465 N   0  0  0  0  0  0  0  0  0  0  0  0
    3.3923    7.3637    9.5261 C   0  0  0  0  0  0  0  0  0  0  0  0
    3.3359    8.1368    8.1777 C   0  0  0  0  0  0  0  0  0  0  0  0
    4.4682    7.4507    7.5242 N   0  0  0  0  0  0  0  0  0  0  0  0
    4.4577    6.0751    7.9175 C   0  0  0  0  0  0  0  0  0  0  0  0
    3.1300    3.7872    8.8815 O   0  0  0  0  0  0  0  0  0  0  0  0
    5.3353    8.1618    6.6790 C   0  0  0  0  0  0  0  0  0  0  0  0
    5.3365    9.5378    6.7393 C   0  0  0  0  0  0  0  0  0  0  0  0
    6.2165   10.2751    5.9568 C   0  0  0  0  0  0  0  0  0  0  0  0
    7.1089    9.6514    5.1019 C   0  0  0  0  0  0  0  0  0  0  0  0
    7.1078    8.2749    5.0406 C   0  0  0  0  0  0  0  0  0  0  0  0
    6.2403    7.5579    5.8112 C   0  0  0  0  0  0  0  0  0  0  0  0
    8.1609    7.8986    4.0617 C   0  0  0  0  0  0  0  0  0  0  0  0
    8.9621    9.0322    3.9127 O   0  0  0  0  0  0  0  0  0  0  0  0
    8.1565   10.1232    4.1720 C   0  0  0  0  0  0  0  0  0  0  0  0
    2.8080    3.8623   14.3998 C   0  0  0  0  0  0  0  0  0  0  0  0
    2.4713    2.5993   14.9124 C   0  0  0  0  0  0  0  0  0  0  0  0
    3.0280    2.0824   16.0482 C   0  0  0  0  0  0  0  0  0  0  0  0
    3.9745    2.8078   16.7566 C   0  0  0  0  0  0  0  0  0  0  0  0
    4.3231    4.0518   16.2730 C   0  0  0  0  0  0  0  0  0  0  0  0
    3.7401    4.5695   15.1034 C   0  0  0  0  0  0  0  0  0  0  0  0
    4.5948    2.2557   17.9964 C   0  0  0  0  0  0  0  0  0  0  0  0
    3.6103    2.0766   18.9833 F   0  0  0  0  0  0  0  0  0  0  0  0
    5.2972    1.1021   17.7883 F   0  0  0  0  0  0  0  0  0  0  0  0
    5.4621    3.2110   18.4870 F   0  0  0  0  0  0  0  0  0  0  0  0
    2.6663    0.7754   16.5527 C   0  0  0  0  0  0  0  0  0  0  0  0
    2.3835   -0.2709   16.9793 N   0  0  0  0  0  0  0  0  0  0  0  0
   -1.5791    6.2902   13.2855 F   0  0  0  0  0  0  0  0  0  0  0  0
   -1.2828    5.5463   12.1843 C   0  0  0  0  0  0  0  0  0  0  0  0
   -1.5745    6.1997   11.0010 F   0  0  0  0  0  0  0  0  0  0  0  0
   -2.0326    4.3828   12.1895 F   0  0  0  0  0  0  0  0  0  0  0  0
 35 36  1  0  0  0
 36 37  1  0  0  0
 36  1  1  0  0  0
  1  2  2  0  0  0
  2  3  1  0  0  0
  3 23  1  0  0  0
 23 24  2  0  0  0
 24 25  1  0  0  0
 25 33  1  0  0  0
 33 34  3  0  0  0
 25 26  2  0  0  0
 26 29  1  0  0  0
 29 30  1  0  0  0
 29 31  1  0  0  0
 29 32  1  0  0  0
 26 27  1  0  0  0
 27 28  2  0  0  0
  3  4  2  0  0  0
  4  5  1  0  0  0
  5  7  1  0  0  0
  7  8  1  0  0  0
  8  9  1  0  0  0
  9 10  1  0  0  0
 10 11  1  0  0  0
 11 14  1  0  0  0
 14 15  2  0  0  0
 15 16  1  0  0  0
 16 17  2  0  0  0
 17 18  1  0  0  0
 18 19  2  0  0  0
 18 20  1  0  0  0
 20 21  1  0  0  0
 21 22  1  0  0  0
 11 12  1  0  0  0
  7 13  2  0  0  0
  5  6  2  0  0  0
 36 38  1  0  0  0
  6  1  1  0  0  0
 28 23  1  0  0  0
 12  8  1  0  0  0
 19 14  1  0  0  0
 22 17  1  0  0  0
M  END
> <minimizedAffinity>
-8.75387

> <CNNscore>
0.4867103994

> <CNNaffinity>
5.8511562347

> <CNN_VS>
2.8478186131

> <CNNaffinity_variance>
0.2527135313

$$$$
[H]c1c([H])c(C(F)(F)F)c(C#N)c([H])c1-c1c([H])c(C(=O)N2C([H])([H])N(c3c([H])c([H])c4c(c3[H])C([H])([H])OC4([H])[H])C([H])([H])C2([H])[H])c([H])c(C(F)(F)F)c1[H]


 38 42  0  0  0  0  0  0  0  0999 V2000
    2.2333    2.6771   11.9779 C   0  0  0  0  0  0  0  0  0  0  0  0
    2.5709    2.4936   13.2803 C   0  0  0  0  0  0  0  0  0  0  0  0
    3.3837    3.3970   13.9782 C   0  0  0  0  0  0  0  0  0  0  0  0
    3.8303    4.4892   13.2828 C   0  0  0  0  0  0  0  0  0  0  0  0
    3.5243    4.7367   11.9479 C   0  0  0  0  0  0  0  0  0  0  0  0
    2.7286    3.8236   11.3262 C   0  0  0  0  0  0  0  0  0  0  0  0
    4.0102    5.9890   11.3640 C   0  0  0  0  0  0  0  0  0  0  0  0
    4.4712    6.1352   10.0444 N   0  0  0  0  0  0  0  0  0  0  0  0
    4.6509    5.1262    9.0532 C   0  0  0  0  0  0  0  0  0  0  0  0
    5.9598    5.6299    8.3806 C   0  0  0  0  0  0  0  0  0  0  0  0
    5.5686    7.0481    8.2551 N   0  0  0  0  0  0  0  0  0  0  0  0
    4.8019    7.4145    9.4061 C   0  0  0  0  0  0  0  0  0  0  0  0
    4.0366    7.0436   12.0899 O   0  0  0  0  0  0  0  0  0  0  0  0
    5.9572    7.7933    7.1301 C   0  0  0  0  0  0  0  0  0  0  0  0
    5.5856    9.1173    7.0534 C   0  0  0  0  0  0  0  0  0  0  0  0
    5.9947    9.9014    5.9818 C   0  0  0  0  0  0  0  0  0  0  0  0
    6.7806    9.3770    4.9700 C   0  0  0  0  0  0  0  0  0  0  0  0
    7.1521    8.0523    5.0458 C   0  0  0  0  0  0  0  0  0  0  0  0
    6.7459    7.2887    6.1004 C   0  0  0  0  0  0  0  0  0  0  0  0
    7.9856    7.7820    3.8454 C   0  0  0  0  0  0  0  0  0  0  0  0
    8.3700    9.0339    3.3614 O   0  0  0  0  0  0  0  0  0  0  0  0
    7.3823    9.9233    3.7354 C   0  0  0  0  0  0  0  0  0  0  0  0
    3.7306    3.0896   15.3572 C   0  0  0  0  0  0  0  0  0  0  0  0
    3.1971    1.9430   15.9671 C   0  0  0  0  0  0  0  0  0  0  0  0
    3.4819    1.5812   17.2537 C   0  0  0  0  0  0  0  0  0  0  0  0
    4.3341    2.3561   18.0265 C   0  0  0  0  0  0  0  0  0  0  0  0
    4.8721    3.4878   17.4497 C   0  0  0  0  0  0  0  0  0  0  0  0
    4.5681    3.8465   16.1251 C   0  0  0  0  0  0  0  0  0  0  0  0
    4.6582    1.9724   19.4317 C   0  0  0  0  0  0  0  0  0  0  0  0
    3.4934    2.0106   20.2172 F   0  0  0  0  0  0  0  0  0  0  0  0
    5.2822    0.7612   19.5367 F   0  0  0  0  0  0  0  0  0  0  0  0
    5.4988    2.9410   19.9425 F   0  0  0  0  0  0  0  0  0  0  0  0
    2.9217    0.3913   17.8571 C   0  0  0  0  0  0  0  0  0  0  0  0
    2.4551   -0.5536   18.3531 N   0  0  0  0  0  0  0  0  0  0  0  0
    0.4572    2.3316   10.4455 F   0  0  0  0  0  0  0  0  0  0  0  0
    1.3886    1.7126   11.2222 C   0  0  0  0  0  0  0  0  0  0  0  0
    2.2336    0.8931   10.4965 F   0  0  0  0  0  0  0  0  0  0  0  0
    0.7596    0.9064   12.1550 F   0  0  0  0  0  0  0  0  0  0  0  0
 35 36  1  0  0  0
 36 37  1  0  0  0
 36  1  1  0  0  0
  1  2  2  0  0  0
  2  3  1  0  0  0
  3 23  1  0  0  0
 23 24  2  0  0  0
 24 25  1  0  0  0
 25 33  1  0  0  0
 33 34  3  0  0  0
 25 26  2  0  0  0
 26 29  1  0  0  0
 29 30  1  0  0  0
 29 31  1  0  0  0
 29 32  1  0  0  0
 26 27  1  0  0  0
 27 28  2  0  0  0
  3  4  2  0  0  0
  4  5  1  0  0  0
  5  7  1  0  0  0
  7  8  1  0  0  0
  8  9  1  0  0  0
  9 10  1  0  0  0
 10 11  1  0  0  0
 11 14  1  0  0  0
 14 15  2  0  0  0
 15 16  1  0  0  0
 16 17  2  0  0  0
 17 18  1  0  0  0
 18 19  2  0  0  0
 18 20  1  0  0  0
 20 21  1  0  0  0
 21 22  1  0  0  0
 11 12  1  0  0  0
  7 13  2  0  0  0
  5  6  2  0  0  0
 36 38  1  0  0  0
  6  1  1  0  0  0
 28 23  1  0  0  0
 12  8  1  0  0  0
 19 14  1  0  0  0
 22 17  1  0  0  0
M  END
> <minimizedAffinity>
-9.14069

> <CNNscore>
0.4763408899

> <CNNaffinity>
5.9640331268

> <CNN_VS>
2.8409128189

> <CNNaffinity_variance>
0.3761032224

$$$$
[H]c1c([H])c(C(F)(F)F)c(C#N)c([H])c1-c1c([H])c(C(=O)N2C([H])([H])N(c3c([H])c([H])c4c(c3[H])C([H])([H])OC4([H])[H])C([H])([H])C2([H])[H])c([H])c(C(F)(F)F)c1[H]


 38 42  0  0  0  0  0  0  0  0999 V2000
    5.3341    2.8722   20.9269 C   0  0  0  0  0  0  0  0  0  0  0  0
    5.2471    4.2240   20.8337 C   0  0  0  0  0  0  0  0  0  0  0  0
    4.6812    4.8638   19.7228 C   0  0  0  0  0  0  0  0  0  0  0  0
    4.2120    4.0579   18.7197 C   0  0  0  0  0  0  0  0  0  0  0  0
    4.2715    2.6678   18.7500 C   0  0  0  0  0  0  0  0  0  0  0  0
    4.8302    2.1063   19.8573 C   0  0  0  0  0  0  0  0  0  0  0  0
    3.6554    1.9404   17.6380 C   0  0  0  0  0  0  0  0  0  0  0  0
    3.5218    2.4353   16.3293 N   0  0  0  0  0  0  0  0  0  0  0  0
    3.8536    3.7309   15.8353 C   0  0  0  0  0  0  0  0  0  0  0  0
    2.6750    3.9595   14.8465 C   0  0  0  0  0  0  0  0  0  0  0  0
    2.7224    2.6359   14.1939 N   0  0  0  0  0  0  0  0  0  0  0  0
    3.0580    1.6529   15.1778 C   0  0  0  0  0  0  0  0  0  0  0  0
    3.1867    0.7673   17.8471 O   0  0  0  0  0  0  0  0  0  0  0  0
    2.4594    2.5135   12.8200 C   0  0  0  0  0  0  0  0  0  0  0  0
    3.2111    3.2536   11.9343 C   0  0  0  0  0  0  0  0  0  0  0  0
    3.0163    3.1211   10.5650 C   0  0  0  0  0  0  0  0  0  0  0  0
    2.0688    2.2486   10.0579 C   0  0  0  0  0  0  0  0  0  0  0  0
    1.3160    1.5084   10.9434 C   0  0  0  0  0  0  0  0  0  0  0  0
    1.5123    1.6446   12.2862 C   0  0  0  0  0  0  0  0  0  0  0  0
    0.4065    0.6695   10.1202 C   0  0  0  0  0  0  0  0  0  0  0  0
    0.9454    0.6777    8.8323 O   0  0  0  0  0  0  0  0  0  0  0  0
    1.6319    1.8682    8.6980 C   0  0  0  0  0  0  0  0  0  0  0  0
    4.6771    6.3183   19.6924 C   0  0  0  0  0  0  0  0  0  0  0  0
    4.3777    6.9857   18.4940 C   0  0  0  0  0  0  0  0  0  0  0  0
    4.3443    8.3476   18.3866 C   0  0  0  0  0  0  0  0  0  0  0  0
    4.6121    9.1437   19.4904 C   0  0  0  0  0  0  0  0  0  0  0  0
    4.9084    8.5116   20.6803 C   0  0  0  0  0  0  0  0  0  0  0  0
    4.9396    7.1095   20.7737 C   0  0  0  0  0  0  0  0  0  0  0  0
    4.5758   10.6321   19.3906 C   0  0  0  0  0  0  0  0  0  0  0  0
    5.5150   11.0695   18.4410 F   0  0  0  0  0  0  0  0  0  0  0  0
    3.3329   11.1306   19.1180 F   0  0  0  0  0  0  0  0  0  0  0  0
    4.9916   11.1394   20.6051 F   0  0  0  0  0  0  0  0  0  0  0  0
    4.0285    9.0106   17.1398 C   0  0  0  0  0  0  0  0  0  0  0  0
    3.7885    9.5301   16.1254 N   0  0  0  0  0  0  0  0  0  0  0  0
    5.0613    1.4173   22.7792 F   0  0  0  0  0  0  0  0  0  0  0  0
    5.9525    2.1842   22.0926 C   0  0  0  0  0  0  0  0  0  0  0  0
    7.0358    1.4615   21.6276 F   0  0  0  0  0  0  0  0  0  0  0  0
    6.4601    3.1688   22.9225 F   0  0  0  0  0  0  0  0  0  0  0  0
 35 36  1  0  0  0
 36 37  1  0  0  0
 36  1  1  0  0  0
  1  2  2  0  0  0
  2  3  1  0  0  0
  3 23  1  0  0  0
 23 24  2  0  0  0
 24 25  1  0  0  0
 25 33  1  0  0  0
 33 34  3  0  0  0
 25 26  2  0  0  0
 26 29  1  0  0  0
 29 30  1  0  0  0
 29 31  1  0  0  0
 29 32  1  0  0  0
 26 27  1  0  0  0
 27 28  2  0  0  0
  3  4  2  0  0  0
  4  5  1  0  0  0
  5  7  1  0  0  0
  7  8  1  0  0  0
  8  9  1  0  0  0
  9 10  1  0  0  0
 10 11  1  0  0  0
 11 14  1  0  0  0
 14 15  2  0  0  0
 15 16  1  0  0  0
 16 17  2  0  0  0
 17 18  1  0  0  0
 18 19  2  0  0  0
 18 20  1  0  0  0
 20 21  1  0  0  0
 21 22  1  0  0  0
 11 12  1  0  0  0
  7 13  2  0  0  0
  5  6  2  0  0  0
 36 38  1  0  0  0
  6  1  1  0  0  0
 28 23  1  0  0  0
 12  8  1  0  0  0
 19 14  1  0  0  0
 22 17  1  0  0  0
M  END
> <minimizedAffinity>
-9.82917

> <CNNscore>
0.3988369405

> <CNNaffinity>
6.4775695801

> <CNN_VS>
2.5834939480

> <CNNaffinity_variance>
0.6755155325

$$$$
[H]c1c([H])c(C(F)(F)F)c(C#N)c([H])c1-c1c([H])c(C(=O)N2C([H])([H])N(c3c([H])c([H])c4c(c3[H])C([H])([H])OC4([H])[H])C([H])([H])C2([H])[H])c([H])c(C(F)(F)F)c1[H]


 38 42  0  0  0  0  0  0  0  0999 V2000
    4.4040    1.5566   20.1030 C   0  0  0  0  0  0  0  0  0  0  0  0
    4.5682    2.8640   20.4308 C   0  0  0  0  0  0  0  0  0  0  0  0
    4.3853    3.8979   19.5028 C   0  0  0  0  0  0  0  0  0  0  0  0
    4.0285    3.5306   18.2325 C   0  0  0  0  0  0  0  0  0  0  0  0
    3.8458    2.2112   17.8294 C   0  0  0  0  0  0  0  0  0  0  0  0
    4.0358    1.2529   18.7776 C   0  0  0  0  0  0  0  0  0  0  0  0
    3.3860    1.9809   16.4579 C   0  0  0  0  0  0  0  0  0  0  0  0
    3.5080    2.9023   15.4036 N   0  0  0  0  0  0  0  0  0  0  0  0
    3.9966    4.2408   15.4507 C   0  0  0  0  0  0  0  0  0  0  0  0
    3.0201    4.9264   14.4529 C   0  0  0  0  0  0  0  0  0  0  0  0
    3.0985    3.9067   13.3880 N   0  0  0  0  0  0  0  0  0  0  0  0
    3.2013    2.6163   13.9974 C   0  0  0  0  0  0  0  0  0  0  0  0
    2.8188    0.8691   16.1716 O   0  0  0  0  0  0  0  0  0  0  0  0
    3.0672    4.2890   12.0372 C   0  0  0  0  0  0  0  0  0  0  0  0
    3.6250    3.4490   11.0990 C   0  0  0  0  0  0  0  0  0  0  0  0
    3.5677    3.7672    9.7477 C   0  0  0  0  0  0  0  0  0  0  0  0
    2.9532    4.9284    9.3113 C   0  0  0  0  0  0  0  0  0  0  0  0
    2.3955    5.7696   10.2494 C   0  0  0  0  0  0  0  0  0  0  0  0
    2.4565    5.4508   11.5742 C   0  0  0  0  0  0  0  0  0  0  0  0
    1.8105    6.9086    9.4950 C   0  0  0  0  0  0  0  0  0  0  0  0
    1.7151    6.4769    8.1708 O   0  0  0  0  0  0  0  0  0  0  0  0
    2.7120    5.5394    7.9872 C   0  0  0  0  0  0  0  0  0  0  0  0
    4.6318    5.2649   19.9355 C   0  0  0  0  0  0  0  0  0  0  0  0
    4.8402    6.2687   18.9762 C   0  0  0  0  0  0  0  0  0  0  0  0
    5.0682    7.5761   19.3018 C   0  0  0  0  0  0  0  0  0  0  0  0
    5.1026    7.9708   20.6311 C   0  0  0  0  0  0  0  0  0  0  0  0
    4.8999    7.0030   21.5930 C   0  0  0  0  0  0  0  0  0  0  0  0
    4.6675    5.6621   21.2412 C   0  0  0  0  0  0  0  0  0  0  0  0
    5.3465    9.3952   21.0029 C   0  0  0  0  0  0  0  0  0  0  0  0
    6.6924    9.7254   20.7694 F   0  0  0  0  0  0  0  0  0  0  0  0
    4.5091   10.2742   20.3755 F   0  0  0  0  0  0  0  0  0  0  0  0
    5.1536    9.5070   22.3652 F   0  0  0  0  0  0  0  0  0  0  0  0
    5.2756    8.5923   18.2928 C   0  0  0  0  0  0  0  0  0  0  0  0
    5.4443    9.3938   17.4647 N   0  0  0  0  0  0  0  0  0  0  0  0
    5.9090    0.0221   21.1043 F   0  0  0  0  0  0  0  0  0  0  0  0
    4.6169    0.4504   21.0756 C   0  0  0  0  0  0  0  0  0  0  0  0
    4.1677    0.8838   22.3095 F   0  0  0  0  0  0  0  0  0  0  0  0
    3.7871   -0.5899   20.6950 F   0  0  0  0  0  0  0  0  0  0  0  0
 35 36  1  0  0  0
 36 37  1  0  0  0
 36  1  1  0  0  0
  1  2  2  0  0  0
  2  3  1  0  0  0
  3 23  1  0  0  0
 23 24  2  0  0  0
 24 25  1  0  0  0
 25 33  1  0  0  0
 33 34  3  0  0  0
 25 26  2  0  0  0
 26 29  1  0  0  0
 29 30  1  0  0  0
 29 31  1  0  0  0
 29 32  1  0  0  0
 26 27  1  0  0  0
 27 28  2  0  0  0
  3  4  2  0  0  0
  4  5  1  0  0  0
  5  7  1  0  0  0
  7  8  1  0  0  0
  8  9  1  0  0  0
  9 10  1  0  0  0
 10 11  1  0  0  0
 11 14  1  0  0  0
 14 15  2  0  0  0
 15 16  1  0  0  0
 16 17  2  0  0  0
 17 18  1  0  0  0
 18 19  2  0  0  0
 18 20  1  0  0  0
 20 21  1  0  0  0
 21 22  1  0  0  0
 11 12  1  0  0  0
  7 13  2  0  0  0
  5  6  2  0  0  0
 36 38  1  0  0  0
  6  1  1  0  0  0
 28 23  1  0  0  0
 12  8  1  0  0  0
 19 14  1  0  0  0
 22 17  1  0  0  0
M  END
> <minimizedAffinity>
-9.38378

> <CNNscore>
0.3215464652

> <CNNaffinity>
6.3792028427

> <CNN_VS>
2.0512101650

> <CNNaffinity_variance>
0.6243327856

$$$$
[H]c1c([H])c(C(F)(F)F)c(C#N)c([H])c1-c1c([H])c(C(=O)N2C([H])([H])N(c3c([H])c([H])c4c(c3[H])C([H])([H])OC4([H])[H])C([H])([H])C2([H])[H])c([H])c(C(F)(F)F)c1[H]


 38 42  0  0  0  0  0  0  0  0999 V2000
    0.6318    5.8141   13.1935 C   0  0  0  0  0  0  0  0  0  0  0  0
    1.2331    5.2684   14.2818 C   0  0  0  0  0  0  0  0  0  0  0  0
    2.5003    4.6736   14.2185 C   0  0  0  0  0  0  0  0  0  0  0  0
    3.1172    4.6649   12.9957 C   0  0  0  0  0  0  0  0  0  0  0  0
    2.5576    5.2039   11.8411 C   0  0  0  0  0  0  0  0  0  0  0  0
    1.3258    5.7697   11.9684 C   0  0  0  0  0  0  0  0  0  0  0  0
    3.3734    5.1907   10.6247 C   0  0  0  0  0  0  0  0  0  0  0  0
    3.7513    6.3325    9.8976 N   0  0  0  0  0  0  0  0  0  0  0  0
    3.3654    7.6877   10.1153 C   0  0  0  0  0  0  0  0  0  0  0  0
    3.2147    8.1714    8.6447 C   0  0  0  0  0  0  0  0  0  0  0  0
    4.4741    7.5966    8.1315 N   0  0  0  0  0  0  0  0  0  0  0  0
    4.7005    6.3407    8.7786 C   0  0  0  0  0  0  0  0  0  0  0  0
    3.7789    4.0680   10.1612 O   0  0  0  0  0  0  0  0  0  0  0  0
    5.2254    8.2851    7.1654 C   0  0  0  0  0  0  0  0  0  0  0  0
    5.2538    9.6615    7.2073 C   0  0  0  0  0  0  0  0  0  0  0  0
    6.0270   10.3767    6.3011 C   0  0  0  0  0  0  0  0  0  0  0  0
    6.7837    9.7300    5.3391 C   0  0  0  0  0  0  0  0  0  0  0  0
    6.7553    8.3531    5.2962 C   0  0  0  0  0  0  0  0  0  0  0  0
    5.9931    7.6580    6.1886 C   0  0  0  0  0  0  0  0  0  0  0  0
    7.6574    7.9502    4.1859 C   0  0  0  0  0  0  0  0  0  0  0  0
    8.4456    9.0696    3.9130 O   0  0  0  0  0  0  0  0  0  0  0  0
    7.6988   10.1756    4.2671 C   0  0  0  0  0  0  0  0  0  0  0  0
    3.0414    4.0723   15.4278 C   0  0  0  0  0  0  0  0  0  0  0  0
    3.0320    4.8007   16.6280 C   0  0  0  0  0  0  0  0  0  0  0  0
    3.5125    4.3032   17.8065 C   0  0  0  0  0  0  0  0  0  0  0  0
    4.0418    3.0223   17.8617 C   0  0  0  0  0  0  0  0  0  0  0  0
    4.0618    2.2857   16.6955 C   0  0  0  0  0  0  0  0  0  0  0  0
    3.5644    2.8128   15.4911 C   0  0  0  0  0  0  0  0  0  0  0  0
    4.5668    2.4630   19.1417 C   0  0  0  0  0  0  0  0  0  0  0  0
    5.6519    3.2354   19.5902 F   0  0  0  0  0  0  0  0  0  0  0  0
    3.6152    2.3408   20.1149 F   0  0  0  0  0  0  0  0  0  0  0  0
    5.0741    1.2085   18.8688 F   0  0  0  0  0  0  0  0  0  0  0  0
    3.4868    5.0738   19.0310 C   0  0  0  0  0  0  0  0  0  0  0  0
    3.4435    5.6954   20.0150 N   0  0  0  0  0  0  0  0  0  0  0  0
   -0.8189    7.5461   12.4740 F   0  0  0  0  0  0  0  0  0  0  0  0
   -0.7225    6.4287   13.2461 C   0  0  0  0  0  0  0  0  0  0  0  0
   -1.6397    5.4546   12.8971 F   0  0  0  0  0  0  0  0  0  0  0  0
   -0.9708    6.7509   14.5691 F   0  0  0  0  0  0  0  0  0  0  0  0
 35 36  1  0  0  0
 36 37  1  0  0  0
 36  1  1  0  0  0
  1  2  2  0  0  0
  2  3  1  0  0  0
  3 23  1  0  0  0
 23 24  2  0  0  0
 24 25  1  0  0  0
 25 33  1  0  0  0
 33 34  3  0  0  0
 25 26  2  0  0  0
 26 29  1  0  0  0
 29 30  1  0  0  0
 29 31  1  0  0  0
 29 32  1  0  0  0
 26 27  1  0  0  0
 27 28  2  0  0  0
  3  4  2  0  0  0
  4  5  1  0  0  0
  5  7  1  0  0  0
  7  8  1  0  0  0
  8  9  1  0  0  0
  9 10  1  0  0  0
 10 11  1  0  0  0
 11 14  1  0  0  0
 14 15  2  0  0  0
 15 16  1  0  0  0
 16 17  2  0  0  0
 17 18  1  0  0  0
 18 19  2  0  0  0
 18 20  1  0  0  0
 20 21  1  0  0  0
 21 22  1  0  0  0
 11 12  1  0  0  0
  7 13  2  0  0  0
  5  6  2  0  0  0
 36 38  1  0  0  0
  6  1  1  0  0  0
 28 23  1  0  0  0
 12  8  1  0  0  0
 19 14  1  0  0  0
 22 17  1  0  0  0
M  END
> <minimizedAffinity>
-9.06482

> <CNNscore>
0.3086456656

> <CNNaffinity>
5.6739759445

> <CNN_VS>
1.7512481213

> <CNNaffinity_variance>
0.3426052034

$$$$
[H]c1c([H])c(C(F)(F)F)c(C#N)c([H])c1-c1c([H])c(C(=O)N2C([H])([H])N(c3c([H])c([H])c4c(c3[H])C([H])([H])OC4([H])[H])C([H])([H])C2([H])[H])c([H])c(C(F)(F)F)c1[H]


 38 42  0  0  0  0  0  0  0  0999 V2000
    5.0900    1.9051   20.3386 C   0  0  0  0  0  0  0  0  0  0  0  0
    5.2342    3.2113   20.6802 C   0  0  0  0  0  0  0  0  0  0  0  0
    4.8893    4.2556   19.8118 C   0  0  0  0  0  0  0  0  0  0  0  0
    4.3932    3.8997   18.5857 C   0  0  0  0  0  0  0  0  0  0  0  0
    4.2218    2.5823   18.1713 C   0  0  0  0  0  0  0  0  0  0  0  0
    4.5726    1.6135   19.0611 C   0  0  0  0  0  0  0  0  0  0  0  0
    3.6045    2.3606   16.8616 C   0  0  0  0  0  0  0  0  0  0  0  0
    3.2416    3.3770   15.9614 N   0  0  0  0  0  0  0  0  0  0  0  0
    3.3016    4.7889   16.1503 C   0  0  0  0  0  0  0  0  0  0  0  0
    1.9943    5.2201   15.4262 C   0  0  0  0  0  0  0  0  0  0  0  0
    2.1766    4.3996   14.2123 N   0  0  0  0  0  0  0  0  0  0  0  0
    2.7778    3.1565   14.5868 C   0  0  0  0  0  0  0  0  0  0  0  0
    3.3575    1.1614   16.4866 O   0  0  0  0  0  0  0  0  0  0  0  0
    1.7780    4.8909   12.9586 C   0  0  0  0  0  0  0  0  0  0  0  0
    0.6627    4.3482   12.3598 C   0  0  0  0  0  0  0  0  0  0  0  0
    0.2065    4.8427   11.1441 C   0  0  0  0  0  0  0  0  0  0  0  0
    0.8558    5.8861   10.5069 C   0  0  0  0  0  0  0  0  0  0  0  0
    1.9720    6.4291   11.1051 C   0  0  0  0  0  0  0  0  0  0  0  0
    2.4143    5.9377   12.2981 C   0  0  0  0  0  0  0  0  0  0  0  0
    2.4391    7.5185   10.2086 C   0  0  0  0  0  0  0  0  0  0  0  0
    1.3645    7.8004    9.3631 O   0  0  0  0  0  0  0  0  0  0  0  0
    0.6314    6.6356    9.2528 C   0  0  0  0  0  0  0  0  0  0  0  0
    5.1256    5.6229   20.2490 C   0  0  0  0  0  0  0  0  0  0  0  0
    6.0650    5.8743   21.2617 C   0  0  0  0  0  0  0  0  0  0  0  0
    6.3499    7.1296   21.7202 C   0  0  0  0  0  0  0  0  0  0  0  0
    5.7028    8.2339   21.1855 C   0  0  0  0  0  0  0  0  0  0  0  0
    4.7755    8.0133   20.1883 C   0  0  0  0  0  0  0  0  0  0  0  0
    4.4933    6.7153   19.7286 C   0  0  0  0  0  0  0  0  0  0  0  0
    6.0056    9.6115   21.6725 C   0  0  0  0  0  0  0  0  0  0  0  0
    5.6642    9.7229   23.0313 F   0  0  0  0  0  0  0  0  0  0  0  0
    7.3000    9.9939   21.4582 F   0  0  0  0  0  0  0  0  0  0  0  0
    5.1764   10.4824   20.9947 F   0  0  0  0  0  0  0  0  0  0  0  0
    7.3263    7.3616   22.7626 C   0  0  0  0  0  0  0  0  0  0  0  0
    8.0956    7.5470   23.6172 N   0  0  0  0  0  0  0  0  0  0  0  0
    6.7247    0.3164   20.9913 F   0  0  0  0  0  0  0  0  0  0  0  0
    5.4734    0.7892   21.2455 C   0  0  0  0  0  0  0  0  0  0  0  0
    5.3218    1.2339   22.5460 F   0  0  0  0  0  0  0  0  0  0  0  0
    4.5449   -0.2207   21.0614 F   0  0  0  0  0  0  0  0  0  0  0  0
 35 36  1  0  0  0
 36 37  1  0  0  0
 36  1  1  0  0  0
  1  2  2  0  0  0
  2  3  1  0  0  0
  3 23  1  0  0  0
 23 24  2  0  0  0
 24 25  1  0  0  0
 25 33  1  0  0  0
 33 34  3  0  0  0
 25 26  2  0  0  0
 26 29  1  0  0  0
 29 30  1  0  0  0
 29 31  1  0  0  0
 29 32  1  0  0  0
 26 27  1  0  0  0
 27 28  2  0  0  0
  3  4  2  0  0  0
  4  5  1  0  0  0
  5  7  1  0  0  0
  7  8  1  0  0  0
  8  9  1  0  0  0
  9 10  1  0  0  0
 10 11  1  0  0  0
 11 14  1  0  0  0
 14 15  2  0  0  0
 15 16  1  0  0  0
 16 17  2  0  0  0
 17 18  1  0  0  0
 18 19  2  0  0  0
 18 20  1  0  0  0
 20 21  1  0  0  0
 21 22  1  0  0  0
 11 12  1  0  0  0
  7 13  2  0  0  0
  5  6  2  0  0  0
 36 38  1  0  0  0
  6  1  1  0  0  0
 28 23  1  0  0  0
 12  8  1  0  0  0
 19 14  1  0  0  0
 22 17  1  0  0  0
M  END
> <minimizedAffinity>
-9.84662

> <CNNscore>
0.3022674024

> <CNNaffinity>
6.1575579643

> <CNN_VS>
1.8612290621

> <CNNaffinity_variance>
0.5939491391

$$$$
[H]c1c([H])c(C(F)(F)F)c(C#N)c([H])c1-c1c([H])c(C(=O)N2C([H])([H])N(c3c([H])c([H])c4c(c3[H])C([H])([H])OC4([H])[H])C([H])([H])C2([H])[H])c([H])c(C(F)(F)F)c1[H]


 38 42  0  0  0  0  0  0  0  0999 V2000
    7.0814    7.4464   20.4198 C   0  0  0  0  0  0  0  0  0  0  0  0
    6.5662    6.2556   20.8202 C   0  0  0  0  0  0  0  0  0  0  0  0
    5.7386    5.4818   19.9956 C   0  0  0  0  0  0  0  0  0  0  0  0
    5.4664    5.9829   18.7503 C   0  0  0  0  0  0  0  0  0  0  0  0
    5.9592    7.1956   18.2779 C   0  0  0  0  0  0  0  0  0  0  0  0
    6.7595    7.8992   19.1252 C   0  0  0  0  0  0  0  0  0  0  0  0
    5.6456    7.5598   16.8942 C   0  0  0  0  0  0  0  0  0  0  0  0
    4.5682    7.0460   16.1522 N   0  0  0  0  0  0  0  0  0  0  0  0
    3.6387    6.0324   16.5279 C   0  0  0  0  0  0  0  0  0  0  0  0
    3.4750    5.2909   15.1705 C   0  0  0  0  0  0  0  0  0  0  0  0
    3.3073    6.4895   14.3247 N   0  0  0  0  0  0  0  0  0  0  0  0
    4.1530    7.5272   14.8296 C   0  0  0  0  0  0  0  0  0  0  0  0
    6.3976    8.4000   16.2876 O   0  0  0  0  0  0  0  0  0  0  0  0
    2.4231    6.4689   13.2340 C   0  0  0  0  0  0  0  0  0  0  0  0
    1.1073    6.1274   13.4556 C   0  0  0  0  0  0  0  0  0  0  0  0
    0.1907    6.1460   12.4117 C   0  0  0  0  0  0  0  0  0  0  0  0
    0.5722    6.5053   11.1304 C   0  0  0  0  0  0  0  0  0  0  0  0
    1.8885    6.8464   10.9078 C   0  0  0  0  0  0  0  0  0  0  0  0
    2.7828    6.8250   11.9375 C   0  0  0  0  0  0  0  0  0  0  0  0
    1.9940    7.1892    9.4655 C   0  0  0  0  0  0  0  0  0  0  0  0
    0.6851    7.4062    9.0310 O   0  0  0  0  0  0  0  0  0  0  0  0
   -0.1321    6.6396    9.8379 C   0  0  0  0  0  0  0  0  0  0  0  0
    5.1952    4.2430   20.5311 C   0  0  0  0  0  0  0  0  0  0  0  0
    4.6614    3.2844   19.6551 C   0  0  0  0  0  0  0  0  0  0  0  0
    4.1417    2.0938   20.0789 C   0  0  0  0  0  0  0  0  0  0  0  0
    4.1227    1.7793   21.4297 C   0  0  0  0  0  0  0  0  0  0  0  0
    4.6422    2.7047   22.3110 C   0  0  0  0  0  0  0  0  0  0  0  0
    5.1723    3.9254   21.8588 C   0  0  0  0  0  0  0  0  0  0  0  0
    3.5623    0.4817   21.9081 C   0  0  0  0  0  0  0  0  0  0  0  0
    4.2823   -0.5856   21.3443 F   0  0  0  0  0  0  0  0  0  0  0  0
    3.5142    0.3768   23.2698 F   0  0  0  0  0  0  0  0  0  0  0  0
    2.2760    0.3796   21.4179 F   0  0  0  0  0  0  0  0  0  0  0  0
    3.6014    1.1208   19.1541 C   0  0  0  0  0  0  0  0  0  0  0  0
    3.1878    0.3314   18.4043 N   0  0  0  0  0  0  0  0  0  0  0  0
    8.0716    7.7704   22.5497 F   0  0  0  0  0  0  0  0  0  0  0  0
    7.9435    8.2854   21.2958 C   0  0  0  0  0  0  0  0  0  0  0  0
    9.1586    8.4493   20.6564 F   0  0  0  0  0  0  0  0  0  0  0  0
    7.3583    9.5380   21.3615 F   0  0  0  0  0  0  0  0  0  0  0  0
 35 36  1  0  0  0
 36 37  1  0  0  0
 36  1  1  0  0  0
  1  2  2  0  0  0
  2  3  1  0  0  0
  3 23  1  0  0  0
 23 24  2  0  0  0
 24 25  1  0  0  0
 25 33  1  0  0  0
 33 34  3  0  0  0
 25 26  2  0  0  0
 26 29  1  0  0  0
 29 30  1  0  0  0
 29 31  1  0  0  0
 29 32  1  0  0  0
 26 27  1  0  0  0
 27 28  2  0  0  0
  3  4  2  0  0  0
  4  5  1  0  0  0
  5  7  1  0  0  0
  7  8  1  0  0  0
  8  9  1  0  0  0
  9 10  1  0  0  0
 10 11  1  0  0  0
 11 14  1  0  0  0
 14 15  2  0  0  0
 15 16  1  0  0  0
 16 17  2  0  0  0
 17 18  1  0  0  0
 18 19  2  0  0  0
 18 20  1  0  0  0
 20 21  1  0  0  0
 21 22  1  0  0  0
 11 12  1  0  0  0
  7 13  2  0  0  0
  5  6  2  0  0  0
 36 38  1  0  0  0
  6  1  1  0  0  0
 28 23  1  0  0  0
 12  8  1  0  0  0
 19 14  1  0  0  0
 22 17  1  0  0  0
M  END
> <minimizedAffinity>
-9.11900

> <CNNscore>
0.2727311254

> <CNNaffinity>
6.2381291389

> <CNN_VS>
1.7013319731

> <CNNaffinity_variance>
0.5674439669

$$$$
[H]c1c([H])c(C(F)(F)F)c(C#N)c([H])c1-c1c([H])c(C(=O)N2C([H])([H])N(c3c([H])c([H])c4c(c3[H])C([H])([H])OC4([H])[H])C([H])([H])C2([H])[H])c([H])c(C(F)(F)F)c1[H]


 38 42  0  0  0  0  0  0  0  0999 V2000
    4.2626    3.6773   21.9366 C   0  0  0  0  0  0  0  0  0  0  0  0
    4.3593    5.0136   21.7155 C   0  0  0  0  0  0  0  0  0  0  0  0
    4.4052    5.5583   20.4252 C   0  0  0  0  0  0  0  0  0  0  0  0
    4.3475    4.6747   19.3803 C   0  0  0  0  0  0  0  0  0  0  0  0
    4.2501    3.2952   19.5358 C   0  0  0  0  0  0  0  0  0  0  0  0
    4.2071    2.8281   20.8139 C   0  0  0  0  0  0  0  0  0  0  0  0
    4.1169    2.4858   18.3224 C   0  0  0  0  0  0  0  0  0  0  0  0
    3.7296    2.9799   17.0649 N   0  0  0  0  0  0  0  0  0  0  0  0
    3.3074    4.2983   16.7242 C   0  0  0  0  0  0  0  0  0  0  0  0
    2.1856    3.9723   15.6973 C   0  0  0  0  0  0  0  0  0  0  0  0
    2.9353    2.9669   14.9182 N   0  0  0  0  0  0  0  0  0  0  0  0
    3.7540    2.2107   15.8155 C   0  0  0  0  0  0  0  0  0  0  0  0
    4.3561    1.2293   18.3846 O   0  0  0  0  0  0  0  0  0  0  0  0
    2.7716    2.8830   13.5261 C   0  0  0  0  0  0  0  0  0  0  0  0
    3.5553    3.6776   12.7190 C   0  0  0  0  0  0  0  0  0  0  0  0
    3.4596    3.5859   11.3359 C   0  0  0  0  0  0  0  0  0  0  0  0
    2.5806    2.7003   10.7365 C   0  0  0  0  0  0  0  0  0  0  0  0
    1.7958    1.9055   11.5433 C   0  0  0  0  0  0  0  0  0  0  0  0
    1.8947    2.0019   12.9002 C   0  0  0  0  0  0  0  0  0  0  0  0
    0.9751    1.0655   10.6324 C   0  0  0  0  0  0  0  0  0  0  0  0
    1.6003    1.1359    9.3861 O   0  0  0  0  0  0  0  0  0  0  0  0
    2.2516    2.3524    9.3380 C   0  0  0  0  0  0  0  0  0  0  0  0
    4.5584    6.9987   20.2895 C   0  0  0  0  0  0  0  0  0  0  0  0
    4.1385    7.6323   19.1090 C   0  0  0  0  0  0  0  0  0  0  0  0
    4.2398    8.9802   18.9091 C   0  0  0  0  0  0  0  0  0  0  0  0
    4.7762    9.7958   19.8945 C   0  0  0  0  0  0  0  0  0  0  0  0
    5.1956    9.1972   21.0645 C   0  0  0  0  0  0  0  0  0  0  0  0
    5.0853    7.8088   21.2539 C   0  0  0  0  0  0  0  0  0  0  0  0
    4.8899   11.2700   19.6931 C   0  0  0  0  0  0  0  0  0  0  0  0
    5.7070   11.5379   18.5815 F   0  0  0  0  0  0  0  0  0  0  0  0
    3.6827   11.9000   19.5787 F   0  0  0  0  0  0  0  0  0  0  0  0
    5.5494   11.7885   20.7894 F   0  0  0  0  0  0  0  0  0  0  0  0
    3.7952    9.6089   17.6840 C   0  0  0  0  0  0  0  0  0  0  0  0
    3.4587   10.1144   16.6901 N   0  0  0  0  0  0  0  0  0  0  0  0
    5.4820    2.8429   23.7910 F   0  0  0  0  0  0  0  0  0  0  0  0
    4.2348    3.0878   23.3028 C   0  0  0  0  0  0  0  0  0  0  0  0
    3.4991    3.9350   24.1109 F   0  0  0  0  0  0  0  0  0  0  0  0
    3.5237    1.9033   23.2192 F   0  0  0  0  0  0  0  0  0  0  0  0
 35 36  1  0  0  0
 36 37  1  0  0  0
 36  1  1  0  0  0
  1  2  2  0  0  0
  2  3  1  0  0  0
  3 23  1  0  0  0
 23 24  2  0  0  0
 24 25  1  0  0  0
 25 33  1  0  0  0
 33 34  3  0  0  0
 25 26  2  0  0  0
 26 29  1  0  0  0
 29 30  1  0  0  0
 29 31  1  0  0  0
 29 32  1  0  0  0
 26 27  1  0  0  0
 27 28  2  0  0  0
  3  4  2  0  0  0
  4  5  1  0  0  0
  5  7  1  0  0  0
  7  8  1  0  0  0
  8  9  1  0  0  0
  9 10  1  0  0  0
 10 11  1  0  0  0
 11 14  1  0  0  0
 14 15  2  0  0  0
 15 16  1  0  0  0
 16 17  2  0  0  0
 17 18  1  0  0  0
 18 19  2  0  0  0
 18 20  1  0  0  0
 20 21  1  0  0  0
 21 22  1  0  0  0
 11 12  1  0  0  0
  7 13  2  0  0  0
  5  6  2  0  0  0
 36 38  1  0  0  0
  6  1  1  0  0  0
 28 23  1  0  0  0
 12  8  1  0  0  0
 19 14  1  0  0  0
 22 17  1  0  0  0
M  END
> <minimizedAffinity>
-10.08734

> <CNNscore>
0.2544166148

> <CNNaffinity>
6.2662429810

> <CNN_VS>
1.5942363739

> <CNNaffinity_variance>
0.5208559632

$$$$
[H]OC(=O)[C@@]([H])(N([H])C(=O)[C@@]([H])(N([H])C(=O)[C@@]([H])(N([H])C(=O)[C@@]([H])(N([H])C(=O)[C@@]([H])(N([H])C(=O)[C@@]([H])(N([H])C(=O)C([H])([H])[H])C([H])(C([H])([H])[H])C([H])([H])[H])C([H])([H])c1c([H])n([H])c2c([H])c([H])c([H])c([H])c12)C([H])([H])C([H])(C([H])([H])[H])C([H])([H])[H])C([H])([H])c1c([H])c([H])c([H])c([H])c1[H])C([H])([H])C([H])(C([H])([H])[H])C([H])([H])[H])C([H])([H])C([H])(C([H])([H])[H])C([H])([H])[H]


 68 70  0  0  0  0  0  0  0  0999 V2000
    3.5494    7.3164   17.2397 N   0  0  0  0  0  0  0  0  0  0  0  0
    4.3076    7.2508   16.0785 C   0  0  0  0  0  0  0  0  0  0  0  0
    5.5887    7.3567   16.2031 O   0  0  0  0  0  0  0  0  0  0  0  0
    2.5266    7.2816   17.2471 H   0  0  0  0  0  0  0  0  0  0  0  0
    3.7616    7.0736   14.7213 C   0  0  0  0  0  0  0  0  0  0  0  0
    3.5986    5.6653   14.4268 N   0  0  0  0  0  0  0  0  0  0  0  0
    2.5474    4.8835   14.9260 C   0  0  0  0  0  0  0  0  0  0  0  0
    1.6543    5.3824   15.7043 O   0  0  0  0  0  0  0  0  0  0  0  0
    4.3216    5.1947   13.8127 H   0  0  0  0  0  0  0  0  0  0  0  0
    2.4558    3.4494   14.5567 C   0  0  0  0  0  0  0  0  0  0  0  0
    2.3478    3.3861   13.0798 N   0  0  0  0  0  0  0  0  0  0  0  0
    1.1388    3.3964   12.4202 C   0  0  0  0  0  0  0  0  0  0  0  0
    0.0818    3.4724   13.1654 O   0  0  0  0  0  0  0  0  0  0  0  0
    3.2578    3.3244   12.5995 H   0  0  0  0  0  0  0  0  0  0  0  0
    0.9171    3.3277   10.9884 C   0  0  0  0  0  0  0  0  0  0  0  0
    0.1721    2.0941   10.6463 N   0  0  0  0  0  0  0  0  0  0  0  0
    0.8373    0.9239   10.2343 C   0  0  0  0  0  0  0  0  0  0  0  0
    0.1349   -0.3377    9.8883 C   0  0  0  0  0  0  0  0  0  0  0  0
    2.0904    0.9376   10.1566 O   0  0  0  0  0  0  0  0  0  0  0  0
   -0.8567    2.1249   10.7235 H   0  0  0  0  0  0  0  0  0  0  0  0
    0.1523    4.5136   10.4700 C   0  0  0  0  0  0  0  0  0  0  0  0
   -1.1482    4.0315    9.7973 C   0  0  0  0  0  0  0  0  0  0  0  0
    0.8709    5.2724    9.3736 C   0  0  0  0  0  0  0  0  0  0  0  0
    3.6355    2.6278   14.9462 C   0  0  0  0  0  0  0  0  0  0  0  0
    3.9624    2.5121   16.3692 C   0  0  0  0  0  0  0  0  0  0  0  0
    4.8086    3.3562   17.0890 C   0  0  0  0  0  0  0  0  0  0  0  0
    4.8686    2.9454   18.3467 N   0  0  0  0  0  0  0  0  0  0  0  0
    4.1153    1.8677   18.5416 C   0  0  0  0  0  0  0  0  0  0  0  0
    3.8674    1.0964   19.6496 C   0  0  0  0  0  0  0  0  0  0  0  0
    3.0320    0.0001   19.5889 C   0  0  0  0  0  0  0  0  0  0  0  0
    2.4677   -0.2660   18.3501 C   0  0  0  0  0  0  0  0  0  0  0  0
    2.7041    0.4949   17.2270 C   0  0  0  0  0  0  0  0  0  0  0  0
    3.5434    1.5852   17.3143 C   0  0  0  0  0  0  0  0  0  0  0  0
    5.4356    3.3866   19.1351 H   0  0  0  0  0  0  0  0  0  0  0  0
    2.4924    7.7526   14.3988 C   0  0  0  0  0  0  0  0  0  0  0  0
    2.1938    8.1656   13.0085 C   0  0  0  0  0  0  0  0  0  0  0  0
    0.9068    7.3910   12.6059 C   0  0  0  0  0  0  0  0  0  0  0  0
    3.2475    7.7540   12.0110 C   0  0  0  0  0  0  0  0  0  0  0  0
    4.1612    7.4768   18.5774 C   0  0  0  0  0  0  0  0  0  0  0  0
    4.3041    5.8021   20.5426 N   0  0  0  0  0  0  0  0  0  0  0  0
    3.8438    6.2726   19.3675 C   0  0  0  0  0  0  0  0  0  0  0  0
    2.9110    5.5723   18.7224 O   0  0  0  0  0  0  0  0  0  0  0  0
    3.3813    4.7812   20.5091 H   0  0  0  0  0  0  0  0  0  0  0  0
    4.7845    5.3068   21.7735 C   0  0  0  0  0  0  0  0  0  0  0  0
    5.9541    7.3847   22.8604 N   0  0  0  0  0  0  0  0  0  0  0  0
    5.9013    6.1885   22.2035 C   0  0  0  0  0  0  0  0  0  0  0  0
    7.0878    5.6954   21.8652 O   0  0  0  0  0  0  0  0  0  0  0  0
    5.2014    7.9756   23.2097 H   0  0  0  0  0  0  0  0  0  0  0  0
    7.3179    8.0062   23.1322 C   0  0  0  0  0  0  0  0  0  0  0  0
    7.4246    8.2596   24.5419 C   0  0  0  0  0  0  0  0  0  0  0  0
    6.5150    8.7931   25.3999 O   0  0  0  0  0  0  0  0  0  0  0  0
    8.5692    7.9500   25.1306 O   0  0  0  0  0  0  0  0  0  0  0  0
    6.3363    8.5005   26.3623 H   0  0  0  0  0  0  0  0  0  0  0  0
    7.4268    9.1701   22.2307 C   0  0  0  0  0  0  0  0  0  0  0  0
    9.1889   10.4663   21.1387 C   0  0  0  0  0  0  0  0  0  0  0  0
    8.4951    9.1199   21.2055 C   0  0  0  0  0  0  0  0  0  0  0  0
    8.1384    8.4880   19.9266 C   0  0  0  0  0  0  0  0  0  0  0  0
    5.0964    3.8583   21.7540 C   0  0  0  0  0  0  0  0  0  0  0  0
    4.8298    3.0536   22.9657 C   0  0  0  0  0  0  0  0  0  0  0  0
    6.0879    2.1636   23.1566 C   0  0  0  0  0  0  0  0  0  0  0  0
    3.5910    2.2309   22.9580 C   0  0  0  0  0  0  0  0  0  0  0  0
    3.7839    8.8150   19.0422 C   0  0  0  0  0  0  0  0  0  0  0  0
    4.7766    9.8885   19.1080 C   0  0  0  0  0  0  0  0  0  0  0  0
    5.5643   10.1943   17.9993 C   0  0  0  0  0  0  0  0  0  0  0  0
    6.4413   11.2482   17.9642 C   0  0  0  0  0  0  0  0  0  0  0  0
    6.5935   12.0931   19.0708 C   0  0  0  0  0  0  0  0  0  0  0  0
    5.8181   11.7945   20.1680 C   0  0  0  0  0  0  0  0  0  0  0  0
    4.9418   10.7311   20.1851 C   0  0  0  0  0  0  0  0  0  0  0  0
 55 56  1  0  0  0
 56 57  1  0  0  0
 56 54  1  0  0  0
 54 49  1  0  0  0
 49 45  1  0  0  0
 45 46  1  0  0  0
 46 47  2  0  0  0
 46 44  1  0  0  0
 44 58  1  0  0  0
 58 59  1  0  0  0
 59 60  1  0  0  0
 59 61  1  0  0  0
 44 40  1  0  0  0
 40 41  1  0  0  0
 41 42  2  0  0  0
 41 39  1  0  0  0
 39 62  1  0  0  0
 62 63  1  0  0  0
 63 64  2  0  0  0
 64 65  1  0  0  0
 65 66  2  0  0  0
 66 67  1  0  0  0
 67 68  2  0  0  0
 39  1  1  0  0  0
  1  2  1  0  0  0
  2  3  2  0  0  0
  2  5  1  0  0  0
  5 35  1  0  0  0
 35 36  1  0  0  0
 36 37  1  0  0  0
 36 38  1  0  0  0
  5  6  1  0  0  0
  6  7  1  0  0  0
  7  8  2  0  0  0
  7 10  1  0  0  0
 10 24  1  0  0  0
 24 25  1  0  0  0
 25 26  2  0  0  0
 26 27  1  0  0  0
 27 28  1  0  0  0
 28 29  2  0  0  0
 29 30  1  0  0  0
 30 31  2  0  0  0
 31 32  1  0  0  0
 32 33  2  0  0  0
 10 11  1  0  0  0
 11 12  1  0  0  0
 12 13  2  0  0  0
 12 15  1  0  0  0
 15 16  1  0  0  0
 16 17  1  0  0  0
 17 18  1  0  0  0
 17 19  2  0  0  0
 15 21  1  0  0  0
 21 22  1  0  0  0
 21 23  1  0  0  0
 49 50  1  0  0  0
 50 51  1  0  0  0
 50 52  2  0  0  0
 68 63  1  0  0  0
 33 25  1  0  0  0
 33 28  1  0  0  0
 45 48  1  0  0  0
 40 43  1  0  0  0
  1  4  1  0  0  0
  6  9  1  0  0  0
 27 34  1  0  0  0
 11 14  1  0  0  0
 16 20  1  0  0  0
 51 53  1  0  0  0
M  END
> <minimizedAffinity>
-9.10073

> <CNNscore>
0.6197089553

> <CNNaffinity>
8.2729110718

> <CNN_VS>
5.1267971992

> <CNNaffinity_variance>
0.3534292281

$$$$
[H]OC(=O)[C@@]([H])(N([H])C(=O)[C@@]([H])(N([H])C(=O)[C@@]([H])(N([H])C(=O)[C@@]([H])(N([H])C(=O)[C@@]([H])(N([H])C(=O)[C@@]([H])(N([H])C(=O)C([H])([H])[H])C([H])(C([H])([H])[H])C([H])([H])[H])C([H])([H])c1c([H])n([H])c2c([H])c([H])c([H])c([H])c12)C([H])([H])C([H])(C([H])([H])[H])C([H])([H])[H])C([H])([H])c1c([H])c([H])c([H])c([H])c1[H])C([H])([H])C([H])(C([H])([H])[H])C([H])([H])[H])C([H])([H])C([H])(C([H])([H])[H])C([H])([H])[H]


 68 70  0  0  0  0  0  0  0  0999 V2000
    3.5950    6.8084   17.1863 N   0  0  0  0  0  0  0  0  0  0  0  0
    4.0490    7.3301   15.9823 C   0  0  0  0  0  0  0  0  0  0  0  0
    5.0893    8.0941   16.0249 O   0  0  0  0  0  0  0  0  0  0  0  0
    2.7586    6.2243   17.2671 H   0  0  0  0  0  0  0  0  0  0  0  0
    3.4329    7.0807   14.6672 C   0  0  0  0  0  0  0  0  0  0  0  0
    4.4532    7.0017   13.6428 N   0  0  0  0  0  0  0  0  0  0  0  0
    4.3936    7.7039   12.4308 C   0  0  0  0  0  0  0  0  0  0  0  0
    3.3979    8.4657   12.1478 O   0  0  0  0  0  0  0  0  0  0  0  0
    5.2838    6.3666   13.8105 H   0  0  0  0  0  0  0  0  0  0  0  0
    5.4960    7.5703   11.4468 C   0  0  0  0  0  0  0  0  0  0  0  0
    5.0618    8.2618   10.2098 N   0  0  0  0  0  0  0  0  0  0  0  0
    4.7266    7.5863    9.0574 C   0  0  0  0  0  0  0  0  0  0  0  0
    4.8037    6.2941    9.1093 O   0  0  0  0  0  0  0  0  0  0  0  0
    5.0449    9.2892   10.2929 H   0  0  0  0  0  0  0  0  0  0  0  0
    4.3020    8.1586    7.7940 C   0  0  0  0  0  0  0  0  0  0  0  0
    3.4622    9.3551    8.0326 N   0  0  0  0  0  0  0  0  0  0  0  0
    2.2333    9.5349    7.3701 C   0  0  0  0  0  0  0  0  0  0  0  0
    1.3544   10.7128    7.5818 C   0  0  0  0  0  0  0  0  0  0  0  0
    1.8506    8.6560    6.5591 O   0  0  0  0  0  0  0  0  0  0  0  0
    3.8130   10.0535    8.7069 H   0  0  0  0  0  0  0  0  0  0  0  0
    5.4635    8.5491    6.9232 C   0  0  0  0  0  0  0  0  0  0  0  0
    5.6183   10.0828    6.9314 C   0  0  0  0  0  0  0  0  0  0  0  0
    5.2715    8.2093    5.4597 C   0  0  0  0  0  0  0  0  0  0  0  0
    6.7850    8.1881   11.8657 C   0  0  0  0  0  0  0  0  0  0  0  0
    8.0311    7.6011   11.3677 C   0  0  0  0  0  0  0  0  0  0  0  0
    8.1447    6.6647   10.3396 C   0  0  0  0  0  0  0  0  0  0  0  0
    9.4220    6.3608   10.1649 N   0  0  0  0  0  0  0  0  0  0  0  0
   10.1999    7.0299   11.0100 C   0  0  0  0  0  0  0  0  0  0  0  0
   11.5580    7.0443   11.2085 C   0  0  0  0  0  0  0  0  0  0  0  0
   12.1335    7.8406   12.1771 C   0  0  0  0  0  0  0  0  0  0  0  0
   11.2593    8.6144   12.9259 C   0  0  0  0  0  0  0  0  0  0  0  0
    9.8945    8.6138   12.7426 C   0  0  0  0  0  0  0  0  0  0  0  0
    9.3443    7.8085   11.7681 C   0  0  0  0  0  0  0  0  0  0  0  0
    9.8222    5.6729    9.4548 H   0  0  0  0  0  0  0  0  0  0  0  0
    2.5630    5.8971   14.5308 C   0  0  0  0  0  0  0  0  0  0  0  0
    1.5431    5.8343   13.4591 C   0  0  0  0  0  0  0  0  0  0  0  0
    0.2551    6.4600   14.0658 C   0  0  0  0  0  0  0  0  0  0  0  0
    1.1658    4.4301   13.0586 C   0  0  0  0  0  0  0  0  0  0  0  0
    4.2712    7.0822   18.4736 C   0  0  0  0  0  0  0  0  0  0  0  0
    4.8457    5.4138   20.3640 N   0  0  0  0  0  0  0  0  0  0  0  0
    4.6103    5.7866   19.0913 C   0  0  0  0  0  0  0  0  0  0  0  0
    4.6741    4.8611   18.1342 O   0  0  0  0  0  0  0  0  0  0  0  0
    4.9307    4.0961   19.9750 H   0  0  0  0  0  0  0  0  0  0  0  0
    5.0928    5.0205   21.6964 C   0  0  0  0  0  0  0  0  0  0  0  0
    6.0280    7.2935   22.6050 N   0  0  0  0  0  0  0  0  0  0  0  0
    6.0829    5.9717   22.2658 C   0  0  0  0  0  0  0  0  0  0  0  0
    7.2631    5.3994   22.4778 O   0  0  0  0  0  0  0  0  0  0  0  0
    5.2610    7.9595   22.5287 H   0  0  0  0  0  0  0  0  0  0  0  0
    7.2780    7.9512   23.1751 C   0  0  0  0  0  0  0  0  0  0  0  0
    6.8740    8.8788   24.1945 C   0  0  0  0  0  0  0  0  0  0  0  0
    6.6764    8.6764   25.5242 O   0  0  0  0  0  0  0  0  0  0  0  0
    6.6391   10.1274   23.8224 O   0  0  0  0  0  0  0  0  0  0  0  0
    6.9259    9.3122   26.2840 H   0  0  0  0  0  0  0  0  0  0  0  0
    8.0163    8.5014   22.0212 C   0  0  0  0  0  0  0  0  0  0  0  0
   10.1746    9.6434   21.9002 C   0  0  0  0  0  0  0  0  0  0  0  0
    9.4838    8.2985   22.0123 C   0  0  0  0  0  0  0  0  0  0  0  0
    9.9843    7.2165   21.1515 C   0  0  0  0  0  0  0  0  0  0  0  0
    5.4397    3.5872   21.8418 C   0  0  0  0  0  0  0  0  0  0  0  0
    4.5061    2.5690   21.3140 C   0  0  0  0  0  0  0  0  0  0  0  0
    3.9425    1.8373   22.5623 C   0  0  0  0  0  0  0  0  0  0  0  0
    5.0647    1.5992   20.3346 C   0  0  0  0  0  0  0  0  0  0  0  0
    3.4379    8.0652   19.1726 C   0  0  0  0  0  0  0  0  0  0  0  0
    3.9293    9.4230   19.4121 C   0  0  0  0  0  0  0  0  0  0  0  0
    4.9822    9.6497   20.2971 C   0  0  0  0  0  0  0  0  0  0  0  0
    5.5522   10.8820   20.4918 C   0  0  0  0  0  0  0  0  0  0  0  0
    5.0924   12.0047   19.7922 C   0  0  0  0  0  0  0  0  0  0  0  0
    4.0523   11.7855   18.9178 C   0  0  0  0  0  0  0  0  0  0  0  0
    3.4920   10.5399   18.7349 C   0  0  0  0  0  0  0  0  0  0  0  0
 55 56  1  0  0  0
 56 57  1  0  0  0
 56 54  1  0  0  0
 54 49  1  0  0  0
 49 45  1  0  0  0
 45 46  1  0  0  0
 46 47  2  0  0  0
 46 44  1  0  0  0
 44 58  1  0  0  0
 58 59  1  0  0  0
 59 60  1  0  0  0
 59 61  1  0  0  0
 44 40  1  0  0  0
 40 41  1  0  0  0
 41 42  2  0  0  0
 41 39  1  0  0  0
 39 62  1  0  0  0
 62 63  1  0  0  0
 63 64  2  0  0  0
 64 65  1  0  0  0
 65 66  2  0  0  0
 66 67  1  0  0  0
 67 68  2  0  0  0
 39  1  1  0  0  0
  1  2  1  0  0  0
  2  3  2  0  0  0
  2  5  1  0  0  0
  5 35  1  0  0  0
 35 36  1  0  0  0
 36 37  1  0  0  0
 36 38  1  0  0  0
  5  6  1  0  0  0
  6  7  1  0  0  0
  7  8  2  0  0  0
  7 10  1  0  0  0
 10 24  1  0  0  0
 24 25  1  0  0  0
 25 26  2  0  0  0
 26 27  1  0  0  0
 27 28  1  0  0  0
 28 29  2  0  0  0
 29 30  1  0  0  0
 30 31  2  0  0  0
 31 32  1  0  0  0
 32 33  2  0  0  0
 10 11  1  0  0  0
 11 12  1  0  0  0
 12 13  2  0  0  0
 12 15  1  0  0  0
 15 16  1  0  0  0
 16 17  1  0  0  0
 17 18  1  0  0  0
 17 19  2  0  0  0
 15 21  1  0  0  0
 21 22  1  0  0  0
 21 23  1  0  0  0
 49 50  1  0  0  0
 50 51  1  0  0  0
 50 52  2  0  0  0
 68 63  1  0  0  0
 33 25  1  0  0  0
 33 28  1  0  0  0
 45 48  1  0  0  0
 40 43  1  0  0  0
  1  4  1  0  0  0
  6  9  1  0  0  0
 27 34  1  0  0  0
 11 14  1  0  0  0
 16 20  1  0  0  0
 51 53  1  0  0  0
M  END
> <minimizedAffinity>
-9.27497

> <CNNscore>
0.4914470315

> <CNNaffinity>
7.5875959396

> <CNN_VS>
3.7289013863

> <CNNaffinity_variance>
0.0779434144

$$$$
[H]OC(=O)[C@@]([H])(N([H])C(=O)[C@@]([H])(N([H])C(=O)[C@@]([H])(N([H])C(=O)[C@@]([H])(N([H])C(=O)[C@@]([H])(N([H])C(=O)[C@@]([H])(N([H])C(=O)C([H])([H])[H])C([H])(C([H])([H])[H])C([H])([H])[H])C([H])([H])c1c([H])n([H])c2c([H])c([H])c([H])c([H])c12)C([H])([H])C([H])(C([H])([H])[H])C([H])([H])[H])C([H])([H])c1c([H])c([H])c([H])c([H])c1[H])C([H])([H])C([H])(C([H])([H])[H])C([H])([H])[H])C([H])([H])C([H])(C([H])([H])[H])C([H])([H])[H]


 68 70  0  0  0  0  0  0  0  0999 V2000
    3.5507    7.5106   17.5213 N   0  0  0  0  0  0  0  0  0  0  0  0
    4.3446    7.2249   16.4186 C   0  0  0  0  0  0  0  0  0  0  0  0
    5.6178    7.1352   16.6152 O   0  0  0  0  0  0  0  0  0  0  0  0
    2.5371    7.6403   17.4669 H   0  0  0  0  0  0  0  0  0  0  0  0
    3.8449    7.0210   15.0474 C   0  0  0  0  0  0  0  0  0  0  0  0
    3.0208    5.8320   14.9861 N   0  0  0  0  0  0  0  0  0  0  0  0
    3.2152    4.7988   14.0586 C   0  0  0  0  0  0  0  0  0  0  0  0
    4.1509    4.8568   13.1794 O   0  0  0  0  0  0  0  0  0  0  0  0
    2.2166    5.7438   15.6692 H   0  0  0  0  0  0  0  0  0  0  0  0
    2.3269    3.6106   14.0823 C   0  0  0  0  0  0  0  0  0  0  0  0
    1.6519    3.5451   12.7643 N   0  0  0  0  0  0  0  0  0  0  0  0
    0.6729    4.4357   12.3838 C   0  0  0  0  0  0  0  0  0  0  0  0
    0.3695    5.3543   13.2455 O   0  0  0  0  0  0  0  0  0  0  0  0
    1.9775    2.7685   12.1697 H   0  0  0  0  0  0  0  0  0  0  0  0
   -0.0576    4.4579   11.1308 C   0  0  0  0  0  0  0  0  0  0  0  0
   -0.5537    3.1008   10.8055 N   0  0  0  0  0  0  0  0  0  0  0  0
   -0.2894    2.5002    9.5602 C   0  0  0  0  0  0  0  0  0  0  0  0
   -0.7589    1.1407    9.1915 C   0  0  0  0  0  0  0  0  0  0  0  0
    0.3813    3.1389    8.7124 O   0  0  0  0  0  0  0  0  0  0  0  0
   -1.1009    2.6099   11.5302 H   0  0  0  0  0  0  0  0  0  0  0  0
   -1.2254    5.4040   11.1657 C   0  0  0  0  0  0  0  0  0  0  0  0
   -2.5169    4.6145   11.4570 C   0  0  0  0  0  0  0  0  0  0  0  0
   -1.5028    6.0814    9.8396 C   0  0  0  0  0  0  0  0  0  0  0  0
    3.0274    2.3114   14.2818 C   0  0  0  0  0  0  0  0  0  0  0  0
    3.1171    1.7718   15.6405 C   0  0  0  0  0  0  0  0  0  0  0  0
    2.4345    0.6570   16.1285 C   0  0  0  0  0  0  0  0  0  0  0  0
    2.7589    0.4677   17.3986 N   0  0  0  0  0  0  0  0  0  0  0  0
    3.6248    1.3841   17.8200 C   0  0  0  0  0  0  0  0  0  0  0  0
    4.2331    1.5987   19.0316 C   0  0  0  0  0  0  0  0  0  0  0  0
    5.1085    2.6484   19.2194 C   0  0  0  0  0  0  0  0  0  0  0  0
    5.3292    3.4603   18.1168 C   0  0  0  0  0  0  0  0  0  0  0  0
    4.7286    3.2622   16.8935 C   0  0  0  0  0  0  0  0  0  0  0  0
    3.8573    2.2060   16.7321 C   0  0  0  0  0  0  0  0  0  0  0  0
    2.3965   -0.3027   18.0411 H   0  0  0  0  0  0  0  0  0  0  0  0
    3.0934    8.1246   14.4202 C   0  0  0  0  0  0  0  0  0  0  0  0
    3.4743    8.6261   13.0800 C   0  0  0  0  0  0  0  0  0  0  0  0
    2.4385    8.0177   12.0923 C   0  0  0  0  0  0  0  0  0  0  0  0
    4.8223    8.1413   12.6084 C   0  0  0  0  0  0  0  0  0  0  0  0
    4.1133    7.6857   18.8786 C   0  0  0  0  0  0  0  0  0  0  0  0
    4.3512    5.9700   20.7987 N   0  0  0  0  0  0  0  0  0  0  0  0
    3.8673    6.4434   19.6342 C   0  0  0  0  0  0  0  0  0  0  0  0
    2.9816    5.7052   18.9654 O   0  0  0  0  0  0  0  0  0  0  0  0
    3.4929    4.8960   20.7327 H   0  0  0  0  0  0  0  0  0  0  0  0
    4.8566    5.4718   22.0183 C   0  0  0  0  0  0  0  0  0  0  0  0
    6.0147    7.7164   22.7164 N   0  0  0  0  0  0  0  0  0  0  0  0
    5.9525    6.3782   22.4505 C   0  0  0  0  0  0  0  0  0  0  0  0
    7.1055    5.7350   22.5993 O   0  0  0  0  0  0  0  0  0  0  0  0
    5.2901    8.4305   22.6640 H   0  0  0  0  0  0  0  0  0  0  0  0
    7.3494    8.3119   23.1452 C   0  0  0  0  0  0  0  0  0  0  0  0
    7.1307    9.1081   24.3204 C   0  0  0  0  0  0  0  0  0  0  0  0
    6.5081    8.7852   25.4850 O   0  0  0  0  0  0  0  0  0  0  0  0
    7.5794   10.3535   24.3036 O   0  0  0  0  0  0  0  0  0  0  0  0
    6.7919    9.0591   26.4274 H   0  0  0  0  0  0  0  0  0  0  0  0
    7.8926    9.0017   21.9584 C   0  0  0  0  0  0  0  0  0  0  0  0
    7.4119    8.9718   19.5615 C   0  0  0  0  0  0  0  0  0  0  0  0
    6.9158    9.4147   20.9239 C   0  0  0  0  0  0  0  0  0  0  0  0
    6.3962   10.7859   21.0324 C   0  0  0  0  0  0  0  0  0  0  0  0
    5.2082    4.0328   21.9761 C   0  0  0  0  0  0  0  0  0  0  0  0
    4.5042    3.0984   22.8806 C   0  0  0  0  0  0  0  0  0  0  0  0
    3.3870    3.9390   23.5564 C   0  0  0  0  0  0  0  0  0  0  0  0
    5.3373    2.4032   23.8975 C   0  0  0  0  0  0  0  0  0  0  0  0
    3.6238    8.9809   19.3605 C   0  0  0  0  0  0  0  0  0  0  0  0
    3.6039   10.1464   18.4754 C   0  0  0  0  0  0  0  0  0  0  0  0
    4.7123   10.4585   17.6897 C   0  0  0  0  0  0  0  0  0  0  0  0
    4.7230   11.4763   16.7703 C   0  0  0  0  0  0  0  0  0  0  0  0
    3.5900   12.2748   16.5696 C   0  0  0  0  0  0  0  0  0  0  0  0
    2.4935   11.9706   17.3438 C   0  0  0  0  0  0  0  0  0  0  0  0
    2.5010   10.9437   18.2628 C   0  0  0  0  0  0  0  0  0  0  0  0
 55 56  1  0  0  0
 56 57  1  0  0  0
 56 54  1  0  0  0
 54 49  1  0  0  0
 49 45  1  0  0  0
 45 46  1  0  0  0
 46 47  2  0  0  0
 46 44  1  0  0  0
 44 58  1  0  0  0
 58 59  1  0  0  0
 59 60  1  0  0  0
 59 61  1  0  0  0
 44 40  1  0  0  0
 40 41  1  0  0  0
 41 42  2  0  0  0
 41 39  1  0  0  0
 39 62  1  0  0  0
 62 63  1  0  0  0
 63 64  2  0  0  0
 64 65  1  0  0  0
 65 66  2  0  0  0
 66 67  1  0  0  0
 67 68  2  0  0  0
 39  1  1  0  0  0
  1  2  1  0  0  0
  2  3  2  0  0  0
  2  5  1  0  0  0
  5 35  1  0  0  0
 35 36  1  0  0  0
 36 37  1  0  0  0
 36 38  1  0  0  0
  5  6  1  0  0  0
  6  7  1  0  0  0
  7  8  2  0  0  0
  7 10  1  0  0  0
 10 24  1  0  0  0
 24 25  1  0  0  0
 25 26  2  0  0  0
 26 27  1  0  0  0
 27 28  1  0  0  0
 28 29  2  0  0  0
 29 30  1  0  0  0
 30 31  2  0  0  0
 31 32  1  0  0  0
 32 33  2  0  0  0
 10 11  1  0  0  0
 11 12  1  0  0  0
 12 13  2  0  0  0
 12 15  1  0  0  0
 15 16  1  0  0  0
 16 17  1  0  0  0
 17 18  1  0  0  0
 17 19  2  0  0  0
 15 21  1  0  0  0
 21 22  1  0  0  0
 21 23  1  0  0  0
 49 50  1  0  0  0
 50 51  1  0  0  0
 50 52  2  0  0  0
 68 63  1  0  0  0
 33 25  1  0  0  0
 33 28  1  0  0  0
 45 48  1  0  0  0
 40 43  1  0  0  0
  1  4  1  0  0  0
  6  9  1  0  0  0
 27 34  1  0  0  0
 11 14  1  0  0  0
 16 20  1  0  0  0
 51 53  1  0  0  0
M  END
> <minimizedAffinity>
-9.40815

> <CNNscore>
0.4055066705

> <CNNaffinity>
7.9344916344

> <CNN_VS>
3.2174892426

> <CNNaffinity_variance>
0.4063188136

$$$$
[H]OC(=O)[C@@]([H])(N([H])C(=O)[C@@]([H])(N([H])C(=O)[C@@]([H])(N([H])C(=O)[C@@]([H])(N([H])C(=O)[C@@]([H])(N([H])C(=O)[C@@]([H])(N([H])C(=O)C([H])([H])[H])C([H])(C([H])([H])[H])C([H])([H])[H])C([H])([H])c1c([H])n([H])c2c([H])c([H])c([H])c([H])c12)C([H])([H])C([H])(C([H])([H])[H])C([H])([H])[H])C([H])([H])c1c([H])c([H])c([H])c([H])c1[H])C([H])([H])C([H])(C([H])([H])[H])C([H])([H])[H])C([H])([H])C([H])(C([H])([H])[H])C([H])([H])[H]


 68 70  0  0  0  0  0  0  0  0999 V2000
    4.5950    5.0232   16.6725 N   0  0  0  0  0  0  0  0  0  0  0  0
    3.4669    5.2566   15.8975 C   0  0  0  0  0  0  0  0  0  0  0  0
    2.3411    4.8072   16.3432 O   0  0  0  0  0  0  0  0  0  0  0  0
    5.5385    5.3033   16.3922 H   0  0  0  0  0  0  0  0  0  0  0  0
    3.4596    5.9722   14.6093 C   0  0  0  0  0  0  0  0  0  0  0  0
    2.5341    5.3419   13.6913 N   0  0  0  0  0  0  0  0  0  0  0  0
    2.8957    4.8808   12.4177 C   0  0  0  0  0  0  0  0  0  0  0  0
    4.0964    5.0074   11.9767 O   0  0  0  0  0  0  0  0  0  0  0  0
    1.5240    5.2367   13.9913 H   0  0  0  0  0  0  0  0  0  0  0  0
    1.8789    4.2340   11.5520 C   0  0  0  0  0  0  0  0  0  0  0  0
    0.7530    5.1882   11.4151 N   0  0  0  0  0  0  0  0  0  0  0  0
   -0.4422    5.0304   12.0809 C   0  0  0  0  0  0  0  0  0  0  0  0
   -0.5345    3.9933   12.8518 O   0  0  0  0  0  0  0  0  0  0  0  0
    0.9470    5.9692   10.7708 H   0  0  0  0  0  0  0  0  0  0  0  0
   -1.6077    5.8911   12.0126 C   0  0  0  0  0  0  0  0  0  0  0  0
   -2.8411    5.0965   12.2160 N   0  0  0  0  0  0  0  0  0  0  0  0
   -3.8669    5.0717   11.2524 C   0  0  0  0  0  0  0  0  0  0  0  0
   -5.1169    4.2855   11.4082 C   0  0  0  0  0  0  0  0  0  0  0  0
   -3.7240    5.7433   10.2012 O   0  0  0  0  0  0  0  0  0  0  0  0
   -2.9190    4.5586   13.0935 H   0  0  0  0  0  0  0  0  0  0  0  0
   -1.5676    6.9916   13.0359 C   0  0  0  0  0  0  0  0  0  0  0  0
   -0.5609    6.6253   14.1443 C   0  0  0  0  0  0  0  0  0  0  0  0
   -2.8738    7.1840   13.7781 C   0  0  0  0  0  0  0  0  0  0  0  0
    2.3471    3.9071   10.1764 C   0  0  0  0  0  0  0  0  0  0  0  0
    2.6549    2.5105    9.8607 C   0  0  0  0  0  0  0  0  0  0  0  0
    3.9210    1.9882    9.5943 C   0  0  0  0  0  0  0  0  0  0  0  0
    3.8155    0.6910    9.3485 N   0  0  0  0  0  0  0  0  0  0  0  0
    2.5528    0.2832    9.4282 C   0  0  0  0  0  0  0  0  0  0  0  0
    1.9604   -0.9426    9.2532 C   0  0  0  0  0  0  0  0  0  0  0  0
    0.5973   -1.1071    9.3888 C   0  0  0  0  0  0  0  0  0  0  0  0
   -0.1235    0.0337    9.7096 C   0  0  0  0  0  0  0  0  0  0  0  0
    0.4518    1.2720    9.8888 C   0  0  0  0  0  0  0  0  0  0  0  0
    1.8163    1.4096    9.7470 C   0  0  0  0  0  0  0  0  0  0  0  0
    4.6101    0.0207    9.1098 H   0  0  0  0  0  0  0  0  0  0  0  0
    3.1630    7.4171   14.6293 C   0  0  0  0  0  0  0  0  0  0  0  0
    4.1825    8.3990   14.1945 C   0  0  0  0  0  0  0  0  0  0  0  0
    5.2994    8.3538   15.2757 C   0  0  0  0  0  0  0  0  0  0  0  0
    3.6879    9.8237   14.1771 C   0  0  0  0  0  0  0  0  0  0  0  0
    4.5324    4.3131   17.9691 C   0  0  0  0  0  0  0  0  0  0  0  0
    5.2564    5.0926   20.3261 N   0  0  0  0  0  0  0  0  0  0  0  0
    5.1825    5.1641   18.9831 C   0  0  0  0  0  0  0  0  0  0  0  0
    5.7932    6.1746   18.3644 O   0  0  0  0  0  0  0  0  0  0  0  0
    6.1174    6.1664   20.3479 H   0  0  0  0  0  0  0  0  0  0  0  0
    5.3354    5.0202   21.7331 C   0  0  0  0  0  0  0  0  0  0  0  0
    6.1000    7.4344   22.4066 N   0  0  0  0  0  0  0  0  0  0  0  0
    6.2565    6.0961   22.1840 C   0  0  0  0  0  0  0  0  0  0  0  0
    7.4852    5.6426   22.4076 O   0  0  0  0  0  0  0  0  0  0  0  0
    5.2784    8.0265   22.2966 H   0  0  0  0  0  0  0  0  0  0  0  0
    7.3046    8.2400   22.8758 C   0  0  0  0  0  0  0  0  0  0  0  0
    6.9229    8.9815   24.0451 C   0  0  0  0  0  0  0  0  0  0  0  0
    6.6262    8.5392   25.2959 O   0  0  0  0  0  0  0  0  0  0  0  0
    6.8240   10.2964   23.9261 O   0  0  0  0  0  0  0  0  0  0  0  0
    6.8842    8.9827   26.1793 H   0  0  0  0  0  0  0  0  0  0  0  0
    7.7603    9.0176   21.7067 C   0  0  0  0  0  0  0  0  0  0  0  0
    8.6387    7.7314   19.8221 C   0  0  0  0  0  0  0  0  0  0  0  0
    9.0010    8.5548   21.0425 C   0  0  0  0  0  0  0  0  0  0  0  0
   10.0478    8.0173   21.9243 C   0  0  0  0  0  0  0  0  0  0  0  0
    5.6496    3.6655   22.2449 C   0  0  0  0  0  0  0  0  0  0  0  0
    4.6104    2.9252   22.9925 C   0  0  0  0  0  0  0  0  0  0  0  0
    3.6150    4.0051   23.4970 C   0  0  0  0  0  0  0  0  0  0  0  0
    5.0810    2.0686   24.1133 C   0  0  0  0  0  0  0  0  0  0  0  0
    4.9958    2.9465   17.7100 C   0  0  0  0  0  0  0  0  0  0  0  0
    4.2289    1.7959   18.1899 C   0  0  0  0  0  0  0  0  0  0  0  0
    4.1778    1.4959   19.5503 C   0  0  0  0  0  0  0  0  0  0  0  0
    3.4013    0.4935   20.0733 C   0  0  0  0  0  0  0  0  0  0  0  0
    2.5990   -0.3003   19.2442 C   0  0  0  0  0  0  0  0  0  0  0  0
    2.6469   -0.0080   17.9001 C   0  0  0  0  0  0  0  0  0  0  0  0
    3.4332    1.0034   17.3924 C   0  0  0  0  0  0  0  0  0  0  0  0
 55 56  1  0  0  0
 56 57  1  0  0  0
 56 54  1  0  0  0
 54 49  1  0  0  0
 49 45  1  0  0  0
 45 46  1  0  0  0
 46 47  2  0  0  0
 46 44  1  0  0  0
 44 58  1  0  0  0
 58 59  1  0  0  0
 59 60  1  0  0  0
 59 61  1  0  0  0
 44 40  1  0  0  0
 40 41  1  0  0  0
 41 42  2  0  0  0
 41 39  1  0  0  0
 39 62  1  0  0  0
 62 63  1  0  0  0
 63 64  2  0  0  0
 64 65  1  0  0  0
 65 66  2  0  0  0
 66 67  1  0  0  0
 67 68  2  0  0  0
 39  1  1  0  0  0
  1  2  1  0  0  0
  2  3  2  0  0  0
  2  5  1  0  0  0
  5 35  1  0  0  0
 35 36  1  0  0  0
 36 37  1  0  0  0
 36 38  1  0  0  0
  5  6  1  0  0  0
  6  7  1  0  0  0
  7  8  2  0  0  0
  7 10  1  0  0  0
 10 24  1  0  0  0
 24 25  1  0  0  0
 25 26  2  0  0  0
 26 27  1  0  0  0
 27 28  1  0  0  0
 28 29  2  0  0  0
 29 30  1  0  0  0
 30 31  2  0  0  0
 31 32  1  0  0  0
 32 33  2  0  0  0
 10 11  1  0  0  0
 11 12  1  0  0  0
 12 13  2  0  0  0
 12 15  1  0  0  0
 15 16  1  0  0  0
 16 17  1  0  0  0
 17 18  1  0  0  0
 17 19  2  0  0  0
 15 21  1  0  0  0
 21 22  1  0  0  0
 21 23  1  0  0  0
 49 50  1  0  0  0
 50 51  1  0  0  0
 50 52  2  0  0  0
 68 63  1  0  0  0
 33 25  1  0  0  0
 33 28  1  0  0  0
 45 48  1  0  0  0
 40 43  1  0  0  0
  1  4  1  0  0  0
  6  9  1  0  0  0
 27 34  1  0  0  0
 11 14  1  0  0  0
 16 20  1  0  0  0
 51 53  1  0  0  0
M  END
> <minimizedAffinity>
-9.17566

> <CNNscore>
0.3550753891

> <CNNaffinity>
7.8984174728

> <CNN_VS>
2.8045337200

> <CNNaffinity_variance>
0.4976378977

$$$$
[H]OC(=O)[C@@]([H])(N([H])C(=O)[C@@]([H])(N([H])C(=O)[C@@]([H])(N([H])C(=O)[C@@]([H])(N([H])C(=O)[C@@]([H])(N([H])C(=O)[C@@]([H])(N([H])C(=O)C([H])([H])[H])C([H])(C([H])([H])[H])C([H])([H])[H])C([H])([H])c1c([H])n([H])c2c([H])c([H])c([H])c([H])c12)C([H])([H])C([H])(C([H])([H])[H])C([H])([H])[H])C([H])([H])c1c([H])c([H])c([H])c([H])c1[H])C([H])([H])C([H])(C([H])([H])[H])C([H])([H])[H])C([H])([H])C([H])(C([H])([H])[H])C([H])([H])[H]


 68 70  0  0  0  0  0  0  0  0999 V2000
    4.9124    5.0966   16.3499 N   0  0  0  0  0  0  0  0  0  0  0  0
    3.8219    5.7109   15.7489 C   0  0  0  0  0  0  0  0  0  0  0  0
    2.6742    5.5705   16.3241 O   0  0  0  0  0  0  0  0  0  0  0  0
    5.8566    5.1143   15.9557 H   0  0  0  0  0  0  0  0  0  0  0  0
    3.8763    6.5039   14.5081 C   0  0  0  0  0  0  0  0  0  0  0  0
    2.5796    6.5159   13.8639 N   0  0  0  0  0  0  0  0  0  0  0  0
    2.3351    5.9626   12.5991 C   0  0  0  0  0  0  0  0  0  0  0  0
    3.2751    5.4119   11.9171 O   0  0  0  0  0  0  0  0  0  0  0  0
    1.7736    6.9819   14.3683 H   0  0  0  0  0  0  0  0  0  0  0  0
    0.9674    6.0103   12.0259 C   0  0  0  0  0  0  0  0  0  0  0  0
    1.0397    5.4034   10.6755 N   0  0  0  0  0  0  0  0  0  0  0  0
    0.4507    5.9750    9.5696 C   0  0  0  0  0  0  0  0  0  0  0  0
   -0.1750    7.0919    9.7682 O   0  0  0  0  0  0  0  0  0  0  0  0
    1.5612    4.5147   10.6475 H   0  0  0  0  0  0  0  0  0  0  0  0
    0.4489    5.4655    8.2115 C   0  0  0  0  0  0  0  0  0  0  0  0
   -0.8819    4.9074    7.8778 N   0  0  0  0  0  0  0  0  0  0  0  0
   -1.1410    3.5262    7.9575 C   0  0  0  0  0  0  0  0  0  0  0  0
   -2.4595    2.9215    7.6404 C   0  0  0  0  0  0  0  0  0  0  0  0
   -0.2155    2.7584    8.3189 O   0  0  0  0  0  0  0  0  0  0  0  0
   -1.6149    5.5727    7.5853 H   0  0  0  0  0  0  0  0  0  0  0  0
    0.7959    6.5244    7.2024 C   0  0  0  0  0  0  0  0  0  0  0  0
    0.5304    5.9867    5.7823 C   0  0  0  0  0  0  0  0  0  0  0  0
    2.2648    6.8935    7.1843 C   0  0  0  0  0  0  0  0  0  0  0  0
   -0.0583    5.2509   12.7940 C   0  0  0  0  0  0  0  0  0  0  0  0
   -1.4054    5.8156   12.9009 C   0  0  0  0  0  0  0  0  0  0  0  0
   -1.8261    6.7667   13.8310 C   0  0  0  0  0  0  0  0  0  0  0  0
   -3.1068    7.0378   13.6297 N   0  0  0  0  0  0  0  0  0  0  0  0
   -3.5988    6.3318   12.6166 C   0  0  0  0  0  0  0  0  0  0  0  0
   -4.8472    6.2675   12.0496 C   0  0  0  0  0  0  0  0  0  0  0  0
   -5.1100    5.4301   10.9851 C   0  0  0  0  0  0  0  0  0  0  0  0
   -4.0425    4.6685   10.5331 C   0  0  0  0  0  0  0  0  0  0  0  0
   -2.7833    4.7181   11.0884 C   0  0  0  0  0  0  0  0  0  0  0  0
   -2.5470    5.5632   12.1518 C   0  0  0  0  0  0  0  0  0  0  0  0
   -3.7083    7.7225   14.1839 H   0  0  0  0  0  0  0  0  0  0  0  0
    4.3453    7.8990   14.6060 C   0  0  0  0  0  0  0  0  0  0  0  0
    3.5607    8.9039   15.3592 C   0  0  0  0  0  0  0  0  0  0  0  0
    3.5408   10.1779   14.4675 C   0  0  0  0  0  0  0  0  0  0  0  0
    4.1983    9.3250   16.6595 C   0  0  0  0  0  0  0  0  0  0  0  0
    4.7944    4.3283   17.6090 C   0  0  0  0  0  0  0  0  0  0  0  0
    5.5324    5.0455   19.9813 N   0  0  0  0  0  0  0  0  0  0  0  0
    5.5979    5.0167   18.6363 C   0  0  0  0  0  0  0  0  0  0  0  0
    6.5520    5.7229   18.0298 O   0  0  0  0  0  0  0  0  0  0  0  0
    6.6895    5.7892   20.0339 H   0  0  0  0  0  0  0  0  0  0  0  0
    5.4661    5.0773   21.3905 C   0  0  0  0  0  0  0  0  0  0  0  0
    5.8124    7.3076   22.7220 N   0  0  0  0  0  0  0  0  0  0  0  0
    6.1474    6.3192   21.8410 C   0  0  0  0  0  0  0  0  0  0  0  0
    7.3245    6.4882   21.2484 O   0  0  0  0  0  0  0  0  0  0  0  0
    4.9732    7.4267   23.2870 H   0  0  0  0  0  0  0  0  0  0  0  0
    6.7887    8.4580   22.9309 C   0  0  0  0  0  0  0  0  0  0  0  0
    7.1552    8.4913   24.3192 C   0  0  0  0  0  0  0  0  0  0  0  0
    6.4815    9.0029   25.3835 O   0  0  0  0  0  0  0  0  0  0  0  0
    8.3222    7.9630   24.6531 O   0  0  0  0  0  0  0  0  0  0  0  0
    6.4186    8.5991   26.3198 H   0  0  0  0  0  0  0  0  0  0  0  0
    6.1319    9.6602   22.3808 C   0  0  0  0  0  0  0  0  0  0  0  0
    7.8471    9.9863   20.6694 C   0  0  0  0  0  0  0  0  0  0  0  0
    6.3568    9.9425   20.9440 C   0  0  0  0  0  0  0  0  0  0  0  0
    5.5375   11.0130   20.3568 C   0  0  0  0  0  0  0  0  0  0  0  0
    5.9349    3.8302   22.0391 C   0  0  0  0  0  0  0  0  0  0  0  0
    4.9647    3.0102   22.7962 C   0  0  0  0  0  0  0  0  0  0  0  0
    3.9329    4.0171   23.3731 C   0  0  0  0  0  0  0  0  0  0  0  0
    5.5212    2.1436   23.8690 C   0  0  0  0  0  0  0  0  0  0  0  0
    5.0443    2.9269   17.2582 C   0  0  0  0  0  0  0  0  0  0  0  0
    4.3092    1.8498   17.9227 C   0  0  0  0  0  0  0  0  0  0  0  0
    4.4104    1.6681   19.3011 C   0  0  0  0  0  0  0  0  0  0  0  0
    3.6747    0.7425   19.9963 C   0  0  0  0  0  0  0  0  0  0  0  0
    2.7599   -0.0890   19.3381 C   0  0  0  0  0  0  0  0  0  0  0  0
    2.6571    0.0865   17.9769 C   0  0  0  0  0  0  0  0  0  0  0  0
    3.4047    1.0220   17.2949 C   0  0  0  0  0  0  0  0  0  0  0  0
 55 56  1  0  0  0
 56 57  1  0  0  0
 56 54  1  0  0  0
 54 49  1  0  0  0
 49 45  1  0  0  0
 45 46  1  0  0  0
 46 47  2  0  0  0
 46 44  1  0  0  0
 44 58  1  0  0  0
 58 59  1  0  0  0
 59 60  1  0  0  0
 59 61  1  0  0  0
 44 40  1  0  0  0
 40 41  1  0  0  0
 41 42  2  0  0  0
 41 39  1  0  0  0
 39 62  1  0  0  0
 62 63  1  0  0  0
 63 64  2  0  0  0
 64 65  1  0  0  0
 65 66  2  0  0  0
 66 67  1  0  0  0
 67 68  2  0  0  0
 39  1  1  0  0  0
  1  2  1  0  0  0
  2  3  2  0  0  0
  2  5  1  0  0  0
  5 35  1  0  0  0
 35 36  1  0  0  0
 36 37  1  0  0  0
 36 38  1  0  0  0
  5  6  1  0  0  0
  6  7  1  0  0  0
  7  8  2  0  0  0
  7 10  1  0  0  0
 10 24  1  0  0  0
 24 25  1  0  0  0
 25 26  2  0  0  0
 26 27  1  0  0  0
 27 28  1  0  0  0
 28 29  2  0  0  0
 29 30  1  0  0  0
 30 31  2  0  0  0
 31 32  1  0  0  0
 32 33  2  0  0  0
 10 11  1  0  0  0
 11 12  1  0  0  0
 12 13  2  0  0  0
 12 15  1  0  0  0
 15 16  1  0  0  0
 16 17  1  0  0  0
 17 18  1  0  0  0
 17 19  2  0  0  0
 15 21  1  0  0  0
 21 22  1  0  0  0
 21 23  1  0  0  0
 49 50  1  0  0  0
 50 51  1  0  0  0
 50 52  2  0  0  0
 68 63  1  0  0  0
 33 25  1  0  0  0
 33 28  1  0  0  0
 45 48  1  0  0  0
 40 43  1  0  0  0
  1  4  1  0  0  0
  6  9  1  0  0  0
 27 34  1  0  0  0
 11 14  1  0  0  0
 16 20  1  0  0  0
 51 53  1  0  0  0
M  END
> <minimizedAffinity>
-8.90402

> <CNNscore>
0.2548692822

> <CNNaffinity>
7.5220894814

> <CNN_VS>
1.9171495438

> <CNNaffinity_variance>
0.4340961576

$$$$
[H]OC(=O)[C@@]([H])(N([H])C(=O)[C@@]([H])(N([H])C(=O)[C@@]([H])(N([H])C(=O)[C@@]([H])(N([H])C(=O)[C@@]([H])(N([H])C(=O)[C@@]([H])(N([H])C(=O)C([H])([H])[H])C([H])(C([H])([H])[H])C([H])([H])[H])C([H])([H])c1c([H])n([H])c2c([H])c([H])c([H])c([H])c12)C([H])([H])C([H])(C([H])([H])[H])C([H])([H])[H])C([H])([H])c1c([H])c([H])c([H])c([H])c1[H])C([H])([H])C([H])(C([H])([H])[H])C([H])([H])[H])C([H])([H])C([H])(C([H])([H])[H])C([H])([H])[H]


 68 70  0  0  0  0  0  0  0  0999 V2000
    4.5033    5.5831   17.3643 N   0  0  0  0  0  0  0  0  0  0  0  0
    3.5245    5.9527   16.4516 C   0  0  0  0  0  0  0  0  0  0  0  0
    2.3432    5.4591   16.6205 O   0  0  0  0  0  0  0  0  0  0  0  0
    5.4783    5.8870   17.2984 H   0  0  0  0  0  0  0  0  0  0  0  0
    3.7336    6.8590   15.3086 C   0  0  0  0  0  0  0  0  0  0  0  0
    2.5914    6.8161   14.4197 N   0  0  0  0  0  0  0  0  0  0  0  0
    2.6502    6.3432   13.1011 C   0  0  0  0  0  0  0  0  0  0  0  0
    3.7523    5.9236   12.5898 O   0  0  0  0  0  0  0  0  0  0  0  0
    1.6627    7.1759   14.7791 H   0  0  0  0  0  0  0  0  0  0  0  0
    1.4216    6.3246   12.2695 C   0  0  0  0  0  0  0  0  0  0  0  0
    1.8203    5.8784   10.9134 N   0  0  0  0  0  0  0  0  0  0  0  0
    1.2898    6.4218    9.7646 C   0  0  0  0  0  0  0  0  0  0  0  0
    0.4150    7.3631    9.9286 O   0  0  0  0  0  0  0  0  0  0  0  0
    2.5202    5.1216   10.9148 H   0  0  0  0  0  0  0  0  0  0  0  0
    1.5971    6.0560    8.3950 C   0  0  0  0  0  0  0  0  0  0  0  0
    2.5929    6.9943    7.8276 N   0  0  0  0  0  0  0  0  0  0  0  0
    2.2199    7.9990    6.9150 C   0  0  0  0  0  0  0  0  0  0  0  0
    3.1800    8.9662    6.3256 C   0  0  0  0  0  0  0  0  0  0  0  0
    1.0136    8.0919    6.5794 O   0  0  0  0  0  0  0  0  0  0  0  0
    3.5738    6.8839    8.1296 H   0  0  0  0  0  0  0  0  0  0  0  0
    2.1333    4.6561    8.2828 C   0  0  0  0  0  0  0  0  0  0  0  0
    2.5639    4.3865    6.8274 C   0  0  0  0  0  0  0  0  0  0  0  0
    1.1023    3.5825    8.5634 C   0  0  0  0  0  0  0  0  0  0  0  0
    0.3608    5.3929   12.7439 C   0  0  0  0  0  0  0  0  0  0  0  0
   -0.9448    5.9514   13.1029 C   0  0  0  0  0  0  0  0  0  0  0  0
   -1.2333    6.6959   14.2471 C   0  0  0  0  0  0  0  0  0  0  0  0
   -2.5148    7.0303   14.2389 N   0  0  0  0  0  0  0  0  0  0  0  0
   -3.1315    6.5623   13.1583 C   0  0  0  0  0  0  0  0  0  0  0  0
   -4.4303    6.6447   12.7219 C   0  0  0  0  0  0  0  0  0  0  0  0
   -4.8296    6.0541   11.5407 C   0  0  0  0  0  0  0  0  0  0  0  0
   -3.8437    5.3812   10.8342 C   0  0  0  0  0  0  0  0  0  0  0  0
   -2.5360    5.2868   11.2550 C   0  0  0  0  0  0  0  0  0  0  0  0
   -2.1628    5.8856   12.4395 C   0  0  0  0  0  0  0  0  0  0  0  0
   -3.0306    7.5967   14.9811 H   0  0  0  0  0  0  0  0  0  0  0  0
    4.0259    8.2751   15.6008 C   0  0  0  0  0  0  0  0  0  0  0  0
    4.4956    8.6831   16.9445 C   0  0  0  0  0  0  0  0  0  0  0  0
    3.6410    9.9236   17.3310 C   0  0  0  0  0  0  0  0  0  0  0  0
    5.9295    9.1496   16.9731 C   0  0  0  0  0  0  0  0  0  0  0  0
    4.2240    4.6820   18.5042 C   0  0  0  0  0  0  0  0  0  0  0  0
    5.0740    5.1766   20.8959 N   0  0  0  0  0  0  0  0  0  0  0  0
    4.4251    5.4494   19.7475 C   0  0  0  0  0  0  0  0  0  0  0  0
    3.8159    6.6286   19.6247 O   0  0  0  0  0  0  0  0  0  0  0  0
    4.8311    6.4529   21.3505 H   0  0  0  0  0  0  0  0  0  0  0  0
    5.7531    4.8934   22.1000 C   0  0  0  0  0  0  0  0  0  0  0  0
    6.1120    7.3456   22.9512 N   0  0  0  0  0  0  0  0  0  0  0  0
    6.4977    6.1190   22.4909 C   0  0  0  0  0  0  0  0  0  0  0  0
    7.8110    5.9729   22.3523 O   0  0  0  0  0  0  0  0  0  0  0  0
    5.1801    7.7175   23.1272 H   0  0  0  0  0  0  0  0  0  0  0  0
    7.1876    8.3813   23.2520 C   0  0  0  0  0  0  0  0  0  0  0  0
    7.3267    8.4852   24.6777 C   0  0  0  0  0  0  0  0  0  0  0  0
    6.4443    8.9419   25.6056 O   0  0  0  0  0  0  0  0  0  0  0  0
    8.4766    8.0970   25.2067 O   0  0  0  0  0  0  0  0  0  0  0  0
    6.2789    8.5541   26.5362 H   0  0  0  0  0  0  0  0  0  0  0  0
    6.7959    9.6046   22.5246 C   0  0  0  0  0  0  0  0  0  0  0  0
    7.5359   10.0031   20.2288 C   0  0  0  0  0  0  0  0  0  0  0  0
    6.4283    9.4420   21.0988 C   0  0  0  0  0  0  0  0  0  0  0  0
    5.0488    9.8019   20.7389 C   0  0  0  0  0  0  0  0  0  0  0  0
    6.5617    3.6525   22.0523 C   0  0  0  0  0  0  0  0  0  0  0  0
    5.8669    2.3474   22.0257 C   0  0  0  0  0  0  0  0  0  0  0  0
    5.4119    2.0907   23.4880 C   0  0  0  0  0  0  0  0  0  0  0  0
    6.6413    1.1928   21.4977 C   0  0  0  0  0  0  0  0  0  0  0  0
    4.9687    3.4469   18.2416 C   0  0  0  0  0  0  0  0  0  0  0  0
    4.2636    2.2069   17.9137 C   0  0  0  0  0  0  0  0  0  0  0  0
    3.8667    1.3295   18.9217 C   0  0  0  0  0  0  0  0  0  0  0  0
    3.1195    0.2028   18.6904 C   0  0  0  0  0  0  0  0  0  0  0  0
    2.7068   -0.1318   17.3946 C   0  0  0  0  0  0  0  0  0  0  0  0
    3.0970    0.7314   16.3961 C   0  0  0  0  0  0  0  0  0  0  0  0
    3.8478    1.8593   16.6473 C   0  0  0  0  0  0  0  0  0  0  0  0
 55 56  1  0  0  0
 56 57  1  0  0  0
 56 54  1  0  0  0
 54 49  1  0  0  0
 49 45  1  0  0  0
 45 46  1  0  0  0
 46 47  2  0  0  0
 46 44  1  0  0  0
 44 58  1  0  0  0
 58 59  1  0  0  0
 59 60  1  0  0  0
 59 61  1  0  0  0
 44 40  1  0  0  0
 40 41  1  0  0  0
 41 42  2  0  0  0
 41 39  1  0  0  0
 39 62  1  0  0  0
 62 63  1  0  0  0
 63 64  2  0  0  0
 64 65  1  0  0  0
 65 66  2  0  0  0
 66 67  1  0  0  0
 67 68  2  0  0  0
 39  1  1  0  0  0
  1  2  1  0  0  0
  2  3  2  0  0  0
  2  5  1  0  0  0
  5 35  1  0  0  0
 35 36  1  0  0  0
 36 37  1  0  0  0
 36 38  1  0  0  0
  5  6  1  0  0  0
  6  7  1  0  0  0
  7  8  2  0  0  0
  7 10  1  0  0  0
 10 24  1  0  0  0
 24 25  1  0  0  0
 25 26  2  0  0  0
 26 27  1  0  0  0
 27 28  1  0  0  0
 28 29  2  0  0  0
 29 30  1  0  0  0
 30 31  2  0  0  0
 31 32  1  0  0  0
 32 33  2  0  0  0
 10 11  1  0  0  0
 11 12  1  0  0  0
 12 13  2  0  0  0
 12 15  1  0  0  0
 15 16  1  0  0  0
 16 17  1  0  0  0
 17 18  1  0  0  0
 17 19  2  0  0  0
 15 21  1  0  0  0
 21 22  1  0  0  0
 21 23  1  0  0  0
 49 50  1  0  0  0
 50 51  1  0  0  0
 50 52  2  0  0  0
 68 63  1  0  0  0
 33 25  1  0  0  0
 33 28  1  0  0  0
 45 48  1  0  0  0
 40 43  1  0  0  0
  1  4  1  0  0  0
  6  9  1  0  0  0
 27 34  1  0  0  0
 11 14  1  0  0  0
 16 20  1  0  0  0
 51 53  1  0  0  0
M  END
> <minimizedAffinity>
-9.22479

> <CNNscore>
0.2531385124

> <CNNaffinity>
7.5258803368

> <CNN_VS>
1.9050900936

> <CNNaffinity_variance>
0.4990589023

$$$$
[H]OC(=O)[C@@]([H])(N([H])C(=O)[C@@]([H])(N([H])C(=O)[C@@]([H])(N([H])C(=O)[C@@]([H])(N([H])C(=O)[C@@]([H])(N([H])C(=O)[C@@]([H])(N([H])C(=O)C([H])([H])[H])C([H])(C([H])([H])[H])C([H])([H])[H])C([H])([H])c1c([H])n([H])c2c([H])c([H])c([H])c([H])c12)C([H])([H])C([H])(C([H])([H])[H])C([H])([H])[H])C([H])([H])c1c([H])c([H])c([H])c([H])c1[H])C([H])([H])C([H])(C([H])([H])[H])C([H])([H])[H])C([H])([H])C([H])(C([H])([H])[H])C([H])([H])[H]


 68 70  0  0  0  0  0  0  0  0999 V2000
    4.0259    5.9016   14.6499 N   0  0  0  0  0  0  0  0  0  0  0  0
    3.3878    6.9547   14.0083 C   0  0  0  0  0  0  0  0  0  0  0  0
    2.0964    6.9459   14.0008 O   0  0  0  0  0  0  0  0  0  0  0  0
    5.0431    5.7940   14.6802 H   0  0  0  0  0  0  0  0  0  0  0  0
    4.0714    8.0737   13.3360 C   0  0  0  0  0  0  0  0  0  0  0  0
    4.0096    7.9077   11.8989 N   0  0  0  0  0  0  0  0  0  0  0  0
    4.6114    6.8434   11.2130 C   0  0  0  0  0  0  0  0  0  0  0  0
    5.2805    5.9397   11.8357 O   0  0  0  0  0  0  0  0  0  0  0  0
    3.4947    8.6386   11.3316 H   0  0  0  0  0  0  0  0  0  0  0  0
    4.4815    6.7499    9.7379 C   0  0  0  0  0  0  0  0  0  0  0  0
    5.4447    5.7205    9.2802 N   0  0  0  0  0  0  0  0  0  0  0  0
    6.2687    5.9030    8.1920 C   0  0  0  0  0  0  0  0  0  0  0  0
    6.1648    7.0405    7.5806 O   0  0  0  0  0  0  0  0  0  0  0  0
    5.4305    4.8585    9.8454 H   0  0  0  0  0  0  0  0  0  0  0  0
    7.2346    4.9649    7.6525 C   0  0  0  0  0  0  0  0  0  0  0  0
    8.4681    4.9747    8.4726 N   0  0  0  0  0  0  0  0  0  0  0  0
    9.6500    5.5874    8.0155 C   0  0  0  0  0  0  0  0  0  0  0  0
   10.9076    5.6290    8.8038 C   0  0  0  0  0  0  0  0  0  0  0  0
    9.6485    6.1334    6.8848 O   0  0  0  0  0  0  0  0  0  0  0  0
    8.4269    4.5150    9.3959 H   0  0  0  0  0  0  0  0  0  0  0  0
    6.7008    3.5606    7.5993 C   0  0  0  0  0  0  0  0  0  0  0  0
    7.2361    2.7619    8.8041 C   0  0  0  0  0  0  0  0  0  0  0  0
    7.1766    2.7711    6.3974 C   0  0  0  0  0  0  0  0  0  0  0  0
    3.1345    6.3363    9.2549 C   0  0  0  0  0  0  0  0  0  0  0  0
    2.1807    5.8020   10.2295 C   0  0  0  0  0  0  0  0  0  0  0  0
    1.0582    6.4638   10.7283 C   0  0  0  0  0  0  0  0  0  0  0  0
    0.4338    5.6756   11.5904 N   0  0  0  0  0  0  0  0  0  0  0  0
    1.0561    4.5081   11.7192 C   0  0  0  0  0  0  0  0  0  0  0  0
    0.7961    3.3967   12.4817 C   0  0  0  0  0  0  0  0  0  0  0  0
    1.6175    2.2890   12.4396 C   0  0  0  0  0  0  0  0  0  0  0  0
    2.7080    2.3732   11.5867 C   0  0  0  0  0  0  0  0  0  0  0  0
    2.9863    3.4787   10.8142 C   0  0  0  0  0  0  0  0  0  0  0  0
    2.1498    4.5730   10.8750 C   0  0  0  0  0  0  0  0  0  0  0  0
   -0.4530    5.9047   12.1369 H   0  0  0  0  0  0  0  0  0  0  0  0
    3.6208    9.4422   13.6527 C   0  0  0  0  0  0  0  0  0  0  0  0
    4.3255   10.2466   14.6770 C   0  0  0  0  0  0  0  0  0  0  0  0
    3.6833    9.8526   16.0375 C   0  0  0  0  0  0  0  0  0  0  0  0
    4.1104   11.7329   14.5386 C   0  0  0  0  0  0  0  0  0  0  0  0
    3.2802    4.8159   15.3242 C   0  0  0  0  0  0  0  0  0  0  0  0
    3.5808    5.8918   17.6564 N   0  0  0  0  0  0  0  0  0  0  0  0
    2.8922    5.2972   16.6632 C   0  0  0  0  0  0  0  0  0  0  0  0
    1.5928    5.0603   16.8421 O   0  0  0  0  0  0  0  0  0  0  0  0
    2.4197    6.0616   18.3760 H   0  0  0  0  0  0  0  0  0  0  0  0
    4.2998    6.5149   18.6986 C   0  0  0  0  0  0  0  0  0  0  0  0
    5.3722    4.9795   20.5314 N   0  0  0  0  0  0  0  0  0  0  0  0
    4.3497    5.5616   19.8379 C   0  0  0  0  0  0  0  0  0  0  0  0
    3.1367    5.2103   20.2508 O   0  0  0  0  0  0  0  0  0  0  0  0
    6.3799    5.0638   20.4092 H   0  0  0  0  0  0  0  0  0  0  0  0
    5.0300    4.0258   21.6687 C   0  0  0  0  0  0  0  0  0  0  0  0
    4.7696    4.8048   22.8469 C   0  0  0  0  0  0  0  0  0  0  0  0
    5.3398    5.9663   23.2640 O   0  0  0  0  0  0  0  0  0  0  0  0
    3.8490    4.3526   23.6840 O   0  0  0  0  0  0  0  0  0  0  0  0
    4.8676    6.7543   23.7110 H   0  0  0  0  0  0  0  0  0  0  0  0
    6.1386    3.0535   21.7382 C   0  0  0  0  0  0  0  0  0  0  0  0
    4.4833    1.2549   21.7848 C   0  0  0  0  0  0  0  0  0  0  0  0
    5.8466    1.6774   21.2737 C   0  0  0  0  0  0  0  0  0  0  0  0
    6.9401    0.7029   21.4031 C   0  0  0  0  0  0  0  0  0  0  0  0
    3.8101    7.8728   19.0336 C   0  0  0  0  0  0  0  0  0  0  0  0
    4.7647    8.8627   19.5771 C   0  0  0  0  0  0  0  0  0  0  0  0
    6.1313    8.5225   18.9230 C   0  0  0  0  0  0  0  0  0  0  0  0
    4.8839    8.9275   21.0581 C   0  0  0  0  0  0  0  0  0  0  0  0
    4.0827    3.6010   15.1536 C   0  0  0  0  0  0  0  0  0  0  0  0
    3.8260    2.4168   15.9746 C   0  0  0  0  0  0  0  0  0  0  0  0
    4.4630    2.2552   17.2040 C   0  0  0  0  0  0  0  0  0  0  0  0
    4.1938    1.2205   18.0631 C   0  0  0  0  0  0  0  0  0  0  0  0
    3.2395    0.2479   17.7393 C   0  0  0  0  0  0  0  0  0  0  0  0
    2.6086    0.4031   16.5260 C   0  0  0  0  0  0  0  0  0  0  0  0
    2.8920    1.4497   15.6754 C   0  0  0  0  0  0  0  0  0  0  0  0
 55 56  1  0  0  0
 56 57  1  0  0  0
 56 54  1  0  0  0
 54 49  1  0  0  0
 49 45  1  0  0  0
 45 46  1  0  0  0
 46 47  2  0  0  0
 46 44  1  0  0  0
 44 58  1  0  0  0
 58 59  1  0  0  0
 59 60  1  0  0  0
 59 61  1  0  0  0
 44 40  1  0  0  0
 40 41  1  0  0  0
 41 42  2  0  0  0
 41 39  1  0  0  0
 39 62  1  0  0  0
 62 63  1  0  0  0
 63 64  2  0  0  0
 64 65  1  0  0  0
 65 66  2  0  0  0
 66 67  1  0  0  0
 67 68  2  0  0  0
 39  1  1  0  0  0
  1  2  1  0  0  0
  2  3  2  0  0  0
  2  5  1  0  0  0
  5 35  1  0  0  0
 35 36  1  0  0  0
 36 37  1  0  0  0
 36 38  1  0  0  0
  5  6  1  0  0  0
  6  7  1  0  0  0
  7  8  2  0  0  0
  7 10  1  0  0  0
 10 24  1  0  0  0
 24 25  1  0  0  0
 25 26  2  0  0  0
 26 27  1  0  0  0
 27 28  1  0  0  0
 28 29  2  0  0  0
 29 30  1  0  0  0
 30 31  2  0  0  0
 31 32  1  0  0  0
 32 33  2  0  0  0
 10 11  1  0  0  0
 11 12  1  0  0  0
 12 13  2  0  0  0
 12 15  1  0  0  0
 15 16  1  0  0  0
 16 17  1  0  0  0
 17 18  1  0  0  0
 17 19  2  0  0  0
 15 21  1  0  0  0
 21 22  1  0  0  0
 21 23  1  0  0  0
 49 50  1  0  0  0
 50 51  1  0  0  0
 50 52  2  0  0  0
 68 63  1  0  0  0
 33 25  1  0  0  0
 33 28  1  0  0  0
 45 48  1  0  0  0
 40 43  1  0  0  0
  1  4  1  0  0  0
  6  9  1  0  0  0
 27 34  1  0  0  0
 11 14  1  0  0  0
 16 20  1  0  0  0
 51 53  1  0  0  0
M  END
> <minimizedAffinity>
-8.57848

> <CNNscore>
0.2120734155

> <CNNaffinity>
7.4280891418

> <CNN_VS>
1.5753002167

> <CNNaffinity_variance>
1.1068241596

$$$$
[H]OC(=O)[C@@]([H])(N([H])C(=O)[C@@]([H])(N([H])C(=O)[C@@]([H])(N([H])C(=O)[C@@]([H])(N([H])C(=O)[C@@]([H])(N([H])C(=O)[C@@]([H])(N([H])C(=O)C([H])([H])[H])C([H])(C([H])([H])[H])C([H])([H])[H])C([H])([H])c1c([H])n([H])c2c([H])c([H])c([H])c([H])c12)C([H])([H])C([H])(C([H])([H])[H])C([H])([H])[H])C([H])([H])c1c([H])c([H])c([H])c([H])c1[H])C([H])([H])C([H])(C([H])([H])[H])C([H])([H])[H])C([H])([H])C([H])(C([H])([H])[H])C([H])([H])[H]


 68 70  0  0  0  0  0  0  0  0999 V2000
    3.9365    5.6037   19.4247 N   0  0  0  0  0  0  0  0  0  0  0  0
    4.6833    5.0718   18.3821 C   0  0  0  0  0  0  0  0  0  0  0  0
    5.9352    5.3851   18.3328 O   0  0  0  0  0  0  0  0  0  0  0  0
    2.9307    5.4489   19.5331 H   0  0  0  0  0  0  0  0  0  0  0  0
    4.1552    4.1838   17.3313 C   0  0  0  0  0  0  0  0  0  0  0  0
    3.8768    4.9408   16.1288 N   0  0  0  0  0  0  0  0  0  0  0  0
    2.6059    5.4300   15.7953 C   0  0  0  0  0  0  0  0  0  0  0  0
    1.5880    5.2166   16.5506 O   0  0  0  0  0  0  0  0  0  0  0  0
    4.6733    5.1226   15.4552 H   0  0  0  0  0  0  0  0  0  0  0  0
    2.4207    6.2092   14.5463 C   0  0  0  0  0  0  0  0  0  0  0  0
    3.7554    6.3461   13.9164 N   0  0  0  0  0  0  0  0  0  0  0  0
    4.1409    7.4735   13.2257 C   0  0  0  0  0  0  0  0  0  0  0  0
    3.2681    8.4284   13.1575 O   0  0  0  0  0  0  0  0  0  0  0  0
    4.3578    5.5183   14.0367 H   0  0  0  0  0  0  0  0  0  0  0  0
    5.4101    7.7090   12.5642 C   0  0  0  0  0  0  0  0  0  0  0  0
    5.1884    8.0351   11.1365 N   0  0  0  0  0  0  0  0  0  0  0  0
    5.6489    7.1903   10.1091 C   0  0  0  0  0  0  0  0  0  0  0  0
    5.4444    7.4711    8.6655 C   0  0  0  0  0  0  0  0  0  0  0  0
    6.2621    6.1399   10.4209 O   0  0  0  0  0  0  0  0  0  0  0  0
    4.6799    8.9078   10.9232 H   0  0  0  0  0  0  0  0  0  0  0  0
    6.1884    8.8269   13.2001 C   0  0  0  0  0  0  0  0  0  0  0  0
    7.6685    8.7247   12.7816 C   0  0  0  0  0  0  0  0  0  0  0  0
    6.2311    8.7586   14.7126 C   0  0  0  0  0  0  0  0  0  0  0  0
    1.5240    5.5735   13.5412 C   0  0  0  0  0  0  0  0  0  0  0  0
    1.9036    4.2668   12.9994 C   0  0  0  0  0  0  0  0  0  0  0  0
    1.7517    3.0365   13.6397 C   0  0  0  0  0  0  0  0  0  0  0  0
    2.2069    2.0746   12.8510 N   0  0  0  0  0  0  0  0  0  0  0  0
    2.6651    2.5643   11.7033 C   0  0  0  0  0  0  0  0  0  0  0  0
    3.2267    1.9721   10.5997 C   0  0  0  0  0  0  0  0  0  0  0  0
    3.6354    2.7190    9.5141 C   0  0  0  0  0  0  0  0  0  0  0  0
    3.4430    4.0891    9.6119 C   0  0  0  0  0  0  0  0  0  0  0  0
    2.8822    4.7022   10.7101 C   0  0  0  0  0  0  0  0  0  0  0  0
    2.4825    3.9330   11.7822 C   0  0  0  0  0  0  0  0  0  0  0  0
    2.2274    1.0301   13.0662 H   0  0  0  0  0  0  0  0  0  0  0  0
    4.9681    3.0133   16.9504 C   0  0  0  0  0  0  0  0  0  0  0  0
    4.6147    1.6617   17.4414 C   0  0  0  0  0  0  0  0  0  0  0  0
    3.2825    1.2899   16.7303 C   0  0  0  0  0  0  0  0  0  0  0  0
    4.3180    1.6085   18.9191 C   0  0  0  0  0  0  0  0  0  0  0  0
    4.5318    6.4758   20.4612 C   0  0  0  0  0  0  0  0  0  0  0  0
    5.7397    8.7066   19.9595 N   0  0  0  0  0  0  0  0  0  0  0  0
    4.7398    7.8091   19.8661 C   0  0  0  0  0  0  0  0  0  0  0  0
    3.6886    8.1039   19.1012 O   0  0  0  0  0  0  0  0  0  0  0  0
    5.1287    9.5035   19.0181 H   0  0  0  0  0  0  0  0  0  0  0  0
    6.7859    9.6486   20.0555 C   0  0  0  0  0  0  0  0  0  0  0  0
    9.1768    8.7759   20.6792 N   0  0  0  0  0  0  0  0  0  0  0  0
    7.8548    9.0440   20.8930 C   0  0  0  0  0  0  0  0  0  0  0  0
    7.4113    8.6935   22.0954 O   0  0  0  0  0  0  0  0  0  0  0  0
    9.7519    8.9271   19.8522 H   0  0  0  0  0  0  0  0  0  0  0  0
    9.9793    8.1303   21.8015 C   0  0  0  0  0  0  0  0  0  0  0  0
   10.8776    9.1148   22.3368 C   0  0  0  0  0  0  0  0  0  0  0  0
   10.6291   10.1476   23.1852 O   0  0  0  0  0  0  0  0  0  0  0  0
   12.1463    9.0470   21.9646 O   0  0  0  0  0  0  0  0  0  0  0  0
   11.2270   10.4706   23.9481 H   0  0  0  0  0  0  0  0  0  0  0  0
   10.5833    6.9119   21.2273 C   0  0  0  0  0  0  0  0  0  0  0  0
    9.0678    5.6027   22.6297 C   0  0  0  0  0  0  0  0  0  0  0  0
   10.4551    5.6679   22.0216 C   0  0  0  0  0  0  0  0  0  0  0  0
   11.5864    5.3403   22.9018 C   0  0  0  0  0  0  0  0  0  0  0  0
    6.3393   10.9965   20.4794 C   0  0  0  0  0  0  0  0  0  0  0  0
    5.9397   11.9749   19.4452 C   0  0  0  0  0  0  0  0  0  0  0  0
    4.3916   12.0602   19.5320 C   0  0  0  0  0  0  0  0  0  0  0  0
    6.3807   11.6891   18.0540 C   0  0  0  0  0  0  0  0  0  0  0  0
    5.6441    5.7189   21.0436 C   0  0  0  0  0  0  0  0  0  0  0  0
    5.3915    4.6398   21.9996 C   0  0  0  0  0  0  0  0  0  0  0  0
    4.3183    4.7151   22.8860 C   0  0  0  0  0  0  0  0  0  0  0  0
    3.9700    3.6977   23.7375 C   0  0  0  0  0  0  0  0  0  0  0  0
    4.6950    2.4997   23.7595 C   0  0  0  0  0  0  0  0  0  0  0  0
    5.7560    2.4212   22.8864 C   0  0  0  0  0  0  0  0  0  0  0  0
    6.0912    3.4539   22.0377 C   0  0  0  0  0  0  0  0  0  0  0  0
 55 56  1  0  0  0
 56 57  1  0  0  0
 56 54  1  0  0  0
 54 49  1  0  0  0
 49 45  1  0  0  0
 45 46  1  0  0  0
 46 47  2  0  0  0
 46 44  1  0  0  0
 44 58  1  0  0  0
 58 59  1  0  0  0
 59 60  1  0  0  0
 59 61  1  0  0  0
 44 40  1  0  0  0
 40 41  1  0  0  0
 41 42  2  0  0  0
 41 39  1  0  0  0
 39 62  1  0  0  0
 62 63  1  0  0  0
 63 64  2  0  0  0
 64 65  1  0  0  0
 65 66  2  0  0  0
 66 67  1  0  0  0
 67 68  2  0  0  0
 39  1  1  0  0  0
  1  2  1  0  0  0
  2  3  2  0  0  0
  2  5  1  0  0  0
  5 35  1  0  0  0
 35 36  1  0  0  0
 36 37  1  0  0  0
 36 38  1  0  0  0
  5  6  1  0  0  0
  6  7  1  0  0  0
  7  8  2  0  0  0
  7 10  1  0  0  0
 10 24  1  0  0  0
 24 25  1  0  0  0
 25 26  2  0  0  0
 26 27  1  0  0  0
 27 28  1  0  0  0
 28 29  2  0  0  0
 29 30  1  0  0  0
 30 31  2  0  0  0
 31 32  1  0  0  0
 32 33  2  0  0  0
 10 11  1  0  0  0
 11 12  1  0  0  0
 12 13  2  0  0  0
 12 15  1  0  0  0
 15 16  1  0  0  0
 16 17  1  0  0  0
 17 18  1  0  0  0
 17 19  2  0  0  0
 15 21  1  0  0  0
 21 22  1  0  0  0
 21 23  1  0  0  0
 49 50  1  0  0  0
 50 51  1  0  0  0
 50 52  2  0  0  0
 68 63  1  0  0  0
 33 25  1  0  0  0
 33 28  1  0  0  0
 45 48  1  0  0  0
 40 43  1  0  0  0
  1  4  1  0  0  0
  6  9  1  0  0  0
 27 34  1  0  0  0
 11 14  1  0  0  0
 16 20  1  0  0  0
 51 53  1  0  0  0
M  END
> <minimizedAffinity>
-8.36078

> <CNNscore>
0.1838736236

> <CNNaffinity>
7.3913240433

> <CNN_VS>
1.3590695858

> <CNNaffinity_variance>
0.7453085780

$$$$
[H]OC(=O)[C@@]([H])(N([H])C(=O)[C@@]([H])(N([H])C(=O)[C@@]([H])(N([H])C(=O)[C@@]([H])(N([H])C(=O)[C@@]([H])(N([H])C(=O)[C@@]([H])(N([H])C(=O)C([H])([H])[H])C([H])(C([H])([H])[H])C([H])([H])[H])C([H])([H])c1c([H])n([H])c2c([H])c([H])c([H])c([H])c12)C([H])([H])C([H])(C([H])([H])[H])C([H])([H])[H])C([H])([H])c1c([H])c([H])c([H])c([H])c1[H])C([H])([H])C([H])(C([H])([H])[H])C([H])([H])[H])C([H])([H])C([H])(C([H])([H])[H])C([H])([H])[H]


 68 70  0  0  0  0  0  0  0  0999 V2000
    1.7981    5.4693   14.4370 N   0  0  0  0  0  0  0  0  0  0  0  0
    2.0394    4.1043   14.5160 C   0  0  0  0  0  0  0  0  0  0  0  0
    1.4717    3.3524   13.6328 O   0  0  0  0  0  0  0  0  0  0  0  0
    2.1681    6.1464   15.1093 H   0  0  0  0  0  0  0  0  0  0  0  0
    2.8881    3.4533   15.5296 C   0  0  0  0  0  0  0  0  0  0  0  0
    3.0289    4.3087   16.6895 N   0  0  0  0  0  0  0  0  0  0  0  0
    4.2538    4.8356   17.1223 C   0  0  0  0  0  0  0  0  0  0  0  0
    5.3505    4.5711   16.5063 O   0  0  0  0  0  0  0  0  0  0  0  0
    2.1614    4.5371   17.2521 H   0  0  0  0  0  0  0  0  0  0  0  0
    4.2967    5.7159   18.3159 C   0  0  0  0  0  0  0  0  0  0  0  0
    3.8965    7.0721   17.8715 N   0  0  0  0  0  0  0  0  0  0  0  0
    4.6295    8.1997   18.1682 C   0  0  0  0  0  0  0  0  0  0  0  0
    5.7085    8.0142   18.8608 O   0  0  0  0  0  0  0  0  0  0  0  0
    3.0185    7.0896   17.3317 H   0  0  0  0  0  0  0  0  0  0  0  0
    4.3271    9.5687   17.7964 C   0  0  0  0  0  0  0  0  0  0  0  0
    3.5463    9.5950   16.5380 N   0  0  0  0  0  0  0  0  0  0  0  0
    4.1608    9.8443   15.2964 C   0  0  0  0  0  0  0  0  0  0  0  0
    3.4218    9.8734   14.0089 C   0  0  0  0  0  0  0  0  0  0  0  0
    5.3992   10.0499   15.2664 O   0  0  0  0  0  0  0  0  0  0  0  0
    2.5311    9.4210   16.6065 H   0  0  0  0  0  0  0  0  0  0  0  0
    3.5520   10.2933   18.8613 C   0  0  0  0  0  0  0  0  0  0  0  0
    2.4003   11.0839   18.2097 C   0  0  0  0  0  0  0  0  0  0  0  0
    4.3554   11.3514   19.5888 C   0  0  0  0  0  0  0  0  0  0  0  0
    3.3712    5.3232   19.4148 C   0  0  0  0  0  0  0  0  0  0  0  0
    3.9486    4.9243   20.7004 C   0  0  0  0  0  0  0  0  0  0  0  0
    3.9032    5.6601   21.8850 C   0  0  0  0  0  0  0  0  0  0  0  0
    4.5311    4.9901   22.8395 N   0  0  0  0  0  0  0  0  0  0  0  0
    5.0089    3.8349   22.3877 C   0  0  0  0  0  0  0  0  0  0  0  0
    5.7196    2.8258   22.9882 C   0  0  0  0  0  0  0  0  0  0  0  0
    6.1119    1.7063   22.2837 C   0  0  0  0  0  0  0  0  0  0  0  0
    5.7447    1.6701   20.9467 C   0  0  0  0  0  0  0  0  0  0  0  0
    5.0325    2.6719   20.3258 C   0  0  0  0  0  0  0  0  0  0  0  0
    4.6529    3.7806   21.0523 C   0  0  0  0  0  0  0  0  0  0  0  0
    4.6648    5.2977   23.8520 H   0  0  0  0  0  0  0  0  0  0  0  0
    2.4879    2.1142   16.0015 C   0  0  0  0  0  0  0  0  0  0  0  0
    3.0569    1.5568   17.2498 C   0  0  0  0  0  0  0  0  0  0  0  0
    4.5440    1.2352   16.9283 C   0  0  0  0  0  0  0  0  0  0  0  0
    2.4372    0.2478   17.6706 C   0  0  0  0  0  0  0  0  0  0  0  0
    0.9494    6.0641   13.3809 C   0  0  0  0  0  0  0  0  0  0  0  0
    3.0014    6.7865   11.9828 N   0  0  0  0  0  0  0  0  0  0  0  0
    1.7981    6.9522   12.5649 C   0  0  0  0  0  0  0  0  0  0  0  0
    1.1782    8.1238   12.4238 O   0  0  0  0  0  0  0  0  0  0  0  0
    2.8965    8.0225   11.3861 H   0  0  0  0  0  0  0  0  0  0  0  0
    4.2619    6.6155   11.3720 C   0  0  0  0  0  0  0  0  0  0  0  0
    4.2943    4.5046    9.8196 N   0  0  0  0  0  0  0  0  0  0  0  0
    4.3874    5.1813   11.0023 C   0  0  0  0  0  0  0  0  0  0  0  0
    4.6377    4.4122   12.0564 O   0  0  0  0  0  0  0  0  0  0  0  0
    4.0964    4.8474    8.8810 H   0  0  0  0  0  0  0  0  0  0  0  0
    4.4847    2.9934    9.8289 C   0  0  0  0  0  0  0  0  0  0  0  0
    5.5883    2.6731    8.9674 C   0  0  0  0  0  0  0  0  0  0  0  0
    5.5897    2.1093    7.7304 O   0  0  0  0  0  0  0  0  0  0  0  0
    6.8056    2.9432    9.4123 O   0  0  0  0  0  0  0  0  0  0  0  0
    6.1934    2.3582    6.9447 H   0  0  0  0  0  0  0  0  0  0  0  0
    3.1727    2.4112    9.4839 C   0  0  0  0  0  0  0  0  0  0  0  0
    3.4430    0.0033    9.8096 C   0  0  0  0  0  0  0  0  0  0  0  0
    2.7272    1.2506   10.2897 C   0  0  0  0  0  0  0  0  0  0  0  0
    1.2800    1.1414   10.5258 C   0  0  0  0  0  0  0  0  0  0  0  0
    5.3885    7.1637   12.1632 C   0  0  0  0  0  0  0  0  0  0  0  0
    6.2369    8.2164   11.5642 C   0  0  0  0  0  0  0  0  0  0  0  0
    6.0174    8.1025   10.0312 C   0  0  0  0  0  0  0  0  0  0  0  0
    7.6850    8.1741   11.9001 C   0  0  0  0  0  0  0  0  0  0  0  0
   -0.2519    6.5655   14.0552 C   0  0  0  0  0  0  0  0  0  0  0  0
   -1.5754    6.3740   13.4603 C   0  0  0  0  0  0  0  0  0  0  0  0
   -2.6714    7.1022   13.9205 C   0  0  0  0  0  0  0  0  0  0  0  0
   -3.9140    7.0414   13.3432 C   0  0  0  0  0  0  0  0  0  0  0  0
   -4.1505    6.2223   12.2321 C   0  0  0  0  0  0  0  0  0  0  0  0
   -3.0713    5.5009   11.7747 C   0  0  0  0  0  0  0  0  0  0  0  0
   -1.8294    5.5747   12.3676 C   0  0  0  0  0  0  0  0  0  0  0  0
 55 56  1  0  0  0
 56 57  1  0  0  0
 56 54  1  0  0  0
 54 49  1  0  0  0
 49 45  1  0  0  0
 45 46  1  0  0  0
 46 47  2  0  0  0
 46 44  1  0  0  0
 44 58  1  0  0  0
 58 59  1  0  0  0
 59 60  1  0  0  0
 59 61  1  0  0  0
 44 40  1  0  0  0
 40 41  1  0  0  0
 41 42  2  0  0  0
 41 39  1  0  0  0
 39 62  1  0  0  0
 62 63  1  0  0  0
 63 64  2  0  0  0
 64 65  1  0  0  0
 65 66  2  0  0  0
 66 67  1  0  0  0
 67 68  2  0  0  0
 39  1  1  0  0  0
  1  2  1  0  0  0
  2  3  2  0  0  0
  2  5  1  0  0  0
  5 35  1  0  0  0
 35 36  1  0  0  0
 36 37  1  0  0  0
 36 38  1  0  0  0
  5  6  1  0  0  0
  6  7  1  0  0  0
  7  8  2  0  0  0
  7 10  1  0  0  0
 10 24  1  0  0  0
 24 25  1  0  0  0
 25 26  2  0  0  0
 26 27  1  0  0  0
 27 28  1  0  0  0
 28 29  2  0  0  0
 29 30  1  0  0  0
 30 31  2  0  0  0
 31 32  1  0  0  0
 32 33  2  0  0  0
 10 11  1  0  0  0
 11 12  1  0  0  0
 12 13  2  0  0  0
 12 15  1  0  0  0
 15 16  1  0  0  0
 16 17  1  0  0  0
 17 18  1  0  0  0
 17 19  2  0  0  0
 15 21  1  0  0  0
 21 22  1  0  0  0
 21 23  1  0  0  0
 49 50  1  0  0  0
 50 51  1  0  0  0
 50 52  2  0  0  0
 68 63  1  0  0  0
 33 25  1  0  0  0
 33 28  1  0  0  0
 45 48  1  0  0  0
 40 43  1  0  0  0
  1  4  1  0  0  0
  6  9  1  0  0  0
 27 34  1  0  0  0
 11 14  1  0  0  0
 16 20  1  0  0  0
 51 53  1  0  0  0
M  END
> <minimizedAffinity>
-8.62843

> <CNNscore>
0.1835979968

> <CNNaffinity>
7.5640382767

> <CNN_VS>
1.3887423277

> <CNNaffinity_variance>
0.4553400874

$$$$
[H]c1nc2c(N([H])C3([H])C([H])([H])C3([H])[H])nc(N([H])c3c([H])c(N4C([H])([H])C([H])([H])N(C([H])([H])[H])C([H])([H])C4([H])[H])c([H])c(C4([H])C([H])([H])C4([H])[H])c3[H])nn2c1C#N


 34 39  0  0  0  0  0  0  0  0999 V2000
    5.1638    5.5453   17.2175 N   0  0  0  0  0  0  0  0  0  0  0  0
    5.7778    6.3594   16.8412 H   0  0  0  0  0  0  0  0  0  0  0  0
    4.2833    4.9779   16.3091 C   0  0  0  0  0  0  0  0  0  0  0  0
    3.8074    5.7209   15.2685 N   0  0  0  0  0  0  0  0  0  0  0  0
    2.9749    5.2572   14.3465 C   0  0  0  0  0  0  0  0  0  0  0  0
    2.5532    3.9409   14.4303 C   0  0  0  0  0  0  0  0  0  0  0  0
    1.7332    3.1937   13.6688 N   0  0  0  0  0  0  0  0  0  0  0  0
    1.6753    1.9633   14.2144 C   0  0  0  0  0  0  0  0  0  0  0  0
    2.4839    1.9775   15.3329 C   0  0  0  0  0  0  0  0  0  0  0  0
    3.0247    3.2102   15.4586 N   0  0  0  0  0  0  0  0  0  0  0  0
    3.8594    3.7234   16.3585 N   0  0  0  0  0  0  0  0  0  0  0  0
    2.4906    6.0603   13.2647 N   0  0  0  0  0  0  0  0  0  0  0  0
    2.5643    5.7355   12.2889 H   0  0  0  0  0  0  0  0  0  0  0  0
    1.8841    7.3524   13.5197 C   0  0  0  0  0  0  0  0  0  0  0  0
    1.6488    8.2792   12.3637 C   0  0  0  0  0  0  0  0  0  0  0  0
    2.7267    8.5620   13.3456 C   0  0  0  0  0  0  0  0  0  0  0  0
    2.7239    0.8702   16.2303 C   0  0  0  0  0  0  0  0  0  0  0  0
    2.9322   -0.0145   16.9432 N   0  0  0  0  0  0  0  0  0  0  0  0
    6.1306    6.0329   20.7656 C   0  0  0  0  0  0  0  0  0  0  0  0
    5.8938    6.2251   19.4241 C   0  0  0  0  0  0  0  0  0  0  0  0
    5.3825    5.2259   18.5780 C   0  0  0  0  0  0  0  0  0  0  0  0
    5.1241    4.0154   19.1744 C   0  0  0  0  0  0  0  0  0  0  0  0
    5.3423    3.7599   20.5238 C   0  0  0  0  0  0  0  0  0  0  0  0
    5.8449    4.7914   21.2833 C   0  0  0  0  0  0  0  0  0  0  0  0
    7.8090    9.6212   24.4931 C   0  0  0  0  0  0  0  0  0  0  0  0
    7.7078    9.2811   23.0858 N   0  0  0  0  0  0  0  0  0  0  0  0
    6.3583    9.2088   22.6291 C   0  0  0  0  0  0  0  0  0  0  0  0
    6.1886    8.4185   21.3457 C   0  0  0  0  0  0  0  0  0  0  0  0
    6.6496    7.0867   21.5887 N   0  0  0  0  0  0  0  0  0  0  0  0
    7.6044    6.8726   22.6309 C   0  0  0  0  0  0  0  0  0  0  0  0
    8.4817    8.0963   22.7797 C   0  0  0  0  0  0  0  0  0  0  0  0
    5.0460    2.4319   21.1211 C   0  0  0  0  0  0  0  0  0  0  0  0
    6.1344    1.4575   21.3693 C   0  0  0  0  0  0  0  0  0  0  0  0
    5.0880    1.2136   20.3022 C   0  0  0  0  0  0  0  0  0  0  0  0
 25 26  1  0  0  0
 26 27  1  0  0  0
 27 28  1  0  0  0
 28 29  1  0  0  0
 29 30  1  0  0  0
 30 31  1  0  0  0
 29 19  1  0  0  0
 19 20  2  0  0  0
 20 21  1  0  0  0
 21  1  1  0  0  0
  1  3  1  0  0  0
  3  4  1  0  0  0
  4  5  2  0  0  0
  5 12  1  0  0  0
 12 14  1  0  0  0
 14 15  1  0  0  0
 15 16  1  0  0  0
  5  6  1  0  0  0
  6  7  2  0  0  0
  7  8  1  0  0  0
  8  9  2  0  0  0
  9 17  1  0  0  0
 17 18  3  0  0  0
  9 10  1  0  0  0
 10 11  1  0  0  0
 21 22  2  0  0  0
 22 23  1  0  0  0
 23 24  2  0  0  0
 23 32  1  0  0  0
 32 33  1  0  0  0
 33 34  1  0  0  0
 31 26  1  0  0  0
 24 19  1  0  0  0
 34 32  1  0  0  0
 11  3  2  0  0  0
 16 14  1  0  0  0
 10  6  1  0  0  0
  1  2  1  0  0  0
 12 13  1  0  0  0
M  END
> <minimizedAffinity>
-7.66798

> <CNNscore>
0.4357463717

> <CNNaffinity>
6.7973661423

> <CNN_VS>
2.9619276524

> <CNNaffinity_variance>
0.3322414458

$$$$
[H]c1nc2c(N([H])C3([H])C([H])([H])C3([H])[H])nc(N([H])c3c([H])c(N4C([H])([H])C([H])([H])N(C([H])([H])[H])C([H])([H])C4([H])[H])c([H])c(C4([H])C([H])([H])C4([H])[H])c3[H])nn2c1C#N


 34 39  0  0  0  0  0  0  0  0999 V2000
    4.3689    2.7289   17.7245 N   0  0  0  0  0  0  0  0  0  0  0  0
    4.8886    1.7749   17.7580 H   0  0  0  0  0  0  0  0  0  0  0  0
    4.2245    3.3855   18.9371 C   0  0  0  0  0  0  0  0  0  0  0  0
    4.1281    4.7461   18.9665 N   0  0  0  0  0  0  0  0  0  0  0  0
    3.9743    5.4543   20.0768 C   0  0  0  0  0  0  0  0  0  0  0  0
    3.9054    4.7878   21.2887 C   0  0  0  0  0  0  0  0  0  0  0  0
    3.7556    5.2111   22.5571 N   0  0  0  0  0  0  0  0  0  0  0  0
    3.7545    4.1249   23.3541 C   0  0  0  0  0  0  0  0  0  0  0  0
    3.9081    3.0229   22.5374 C   0  0  0  0  0  0  0  0  0  0  0  0
    4.0010    3.4450   21.2564 N   0  0  0  0  0  0  0  0  0  0  0  0
    4.1548    2.7805   20.1140 N   0  0  0  0  0  0  0  0  0  0  0  0
    3.8764    6.8827   20.0781 N   0  0  0  0  0  0  0  0  0  0  0  0
    2.9808    7.3529   19.8785 H   0  0  0  0  0  0  0  0  0  0  0  0
    5.0395    7.7011   20.3611 C   0  0  0  0  0  0  0  0  0  0  0  0
    5.0424    8.5454   21.6013 C   0  0  0  0  0  0  0  0  0  0  0  0
    4.8920    9.1750   20.2645 C   0  0  0  0  0  0  0  0  0  0  0  0
    3.9626    1.6427   22.9627 C   0  0  0  0  0  0  0  0  0  0  0  0
    4.0231    0.5396   23.3003 N   0  0  0  0  0  0  0  0  0  0  0  0
    3.7856    4.9197   14.7881 C   0  0  0  0  0  0  0  0  0  0  0  0
    4.1532    4.4393   16.0237 C   0  0  0  0  0  0  0  0  0  0  0  0
    3.9316    3.1137   16.4355 C   0  0  0  0  0  0  0  0  0  0  0  0
    3.3131    2.3004   15.5170 C   0  0  0  0  0  0  0  0  0  0  0  0
    2.9181    2.7270   14.2537 C   0  0  0  0  0  0  0  0  0  0  0  0
    3.1713    4.0398   13.9283 C   0  0  0  0  0  0  0  0  0  0  0  0
    5.4029    9.8094   13.0381 C   0  0  0  0  0  0  0  0  0  0  0  0
    4.4141    9.0424   13.7733 N   0  0  0  0  0  0  0  0  0  0  0  0
    4.9519    8.4166   14.9370 C   0  0  0  0  0  0  0  0  0  0  0  0
    4.1151    7.2611   15.4517 C   0  0  0  0  0  0  0  0  0  0  0  0
    4.0380    6.2810   14.4132 N   0  0  0  0  0  0  0  0  0  0  0  0
    4.2097    6.7045   13.0586 C   0  0  0  0  0  0  0  0  0  0  0  0
    3.7127    8.1247   12.9003 C   0  0  0  0  0  0  0  0  0  0  0  0
    2.2520    1.8068   13.2959 C   0  0  0  0  0  0  0  0  0  0  0  0
    2.4736    1.9475   11.8375 C   0  0  0  0  0  0  0  0  0  0  0  0
    1.1331    2.2690   12.4644 C   0  0  0  0  0  0  0  0  0  0  0  0
 25 26  1  0  0  0
 26 27  1  0  0  0
 27 28  1  0  0  0
 28 29  1  0  0  0
 29 30  1  0  0  0
 30 31  1  0  0  0
 29 19  1  0  0  0
 19 20  2  0  0  0
 20 21  1  0  0  0
 21  1  1  0  0  0
  1  3  1  0  0  0
  3  4  1  0  0  0
  4  5  2  0  0  0
  5 12  1  0  0  0
 12 14  1  0  0  0
 14 15  1  0  0  0
 15 16  1  0  0  0
  5  6  1  0  0  0
  6  7  2  0  0  0
  7  8  1  0  0  0
  8  9  2  0  0  0
  9 17  1  0  0  0
 17 18  3  0  0  0
  9 10  1  0  0  0
 10 11  1  0  0  0
 21 22  2  0  0  0
 22 23  1  0  0  0
 23 24  2  0  0  0
 23 32  1  0  0  0
 32 33  1  0  0  0
 33 34  1  0  0  0
 31 26  1  0  0  0
 24 19  1  0  0  0
 34 32  1  0  0  0
 11  3  2  0  0  0
 16 14  1  0  0  0
 10  6  1  0  0  0
  1  2  1  0  0  0
 12 13  1  0  0  0
M  END
> <minimizedAffinity>
-7.62798

> <CNNscore>
0.3210478127

> <CNNaffinity>
6.7864227295

> <CNN_VS>
2.1787662506

> <CNNaffinity_variance>
1.2013090849

$$$$
[H]c1nc2c(N([H])C3([H])C([H])([H])C3([H])[H])nc(N([H])c3c([H])c(N4C([H])([H])C([H])([H])N(C([H])([H])[H])C([H])([H])C4([H])[H])c([H])c(C4([H])C([H])([H])C4([H])[H])c3[H])nn2c1C#N


 34 39  0  0  0  0  0  0  0  0999 V2000
    5.7885    4.7144   18.7394 N   0  0  0  0  0  0  0  0  0  0  0  0
    6.8620    4.6365   18.5885 H   0  0  0  0  0  0  0  0  0  0  0  0
    5.1369    3.5410   19.0873 C   0  0  0  0  0  0  0  0  0  0  0  0
    4.7000    2.6913   18.1134 N   0  0  0  0  0  0  0  0  0  0  0  0
    4.0815    1.5434   18.3543 C   0  0  0  0  0  0  0  0  0  0  0  0
    3.8576    1.1696   19.6687 C   0  0  0  0  0  0  0  0  0  0  0  0
    3.2725    0.0934   20.2257 N   0  0  0  0  0  0  0  0  0  0  0  0
    3.3287    0.2430   21.5634 C   0  0  0  0  0  0  0  0  0  0  0  0
    3.9655    1.4424   21.8107 C   0  0  0  0  0  0  0  0  0  0  0  0
    4.2900    2.0104   20.6276 N   0  0  0  0  0  0  0  0  0  0  0  0
    4.9062    3.1521   20.3330 N   0  0  0  0  0  0  0  0  0  0  0  0
    3.6328    0.6708   17.3117 N   0  0  0  0  0  0  0  0  0  0  0  0
    4.1214   -0.2156   17.1154 H   0  0  0  0  0  0  0  0  0  0  0  0
    2.4774    1.0168   16.5069 C   0  0  0  0  0  0  0  0  0  0  0  0
    2.6960    1.5218   15.1112 C   0  0  0  0  0  0  0  0  0  0  0  0
    2.2583    2.4494   16.1855 C   0  0  0  0  0  0  0  0  0  0  0  0
    4.2464    2.0110   23.1094 C   0  0  0  0  0  0  0  0  0  0  0  0
    4.4872    2.4682   24.1425 N   0  0  0  0  0  0  0  0  0  0  0  0
    4.1636    7.5503   16.9847 C   0  0  0  0  0  0  0  0  0  0  0  0
    4.7179    6.3275   17.2847 C   0  0  0  0  0  0  0  0  0  0  0  0
    5.2609    6.0119   18.5422 C   0  0  0  0  0  0  0  0  0  0  0  0
    5.2083    7.0131   19.4817 C   0  0  0  0  0  0  0  0  0  0  0  0
    4.6616    8.2684   19.2391 C   0  0  0  0  0  0  0  0  0  0  0  0
    4.1511    8.4970   17.9819 C   0  0  0  0  0  0  0  0  0  0  0  0
    2.6418    8.0866   11.7901 C   0  0  0  0  0  0  0  0  0  0  0  0
    2.4428    8.4962   13.1682 N   0  0  0  0  0  0  0  0  0  0  0  0
    3.5787    9.1615   13.7178 C   0  0  0  0  0  0  0  0  0  0  0  0
    3.6026    9.1789   15.2342 C   0  0  0  0  0  0  0  0  0  0  0  0
    3.6179    7.8222   15.6863 N   0  0  0  0  0  0  0  0  0  0  0  0
    3.0863    6.8092   14.8291 C   0  0  0  0  0  0  0  0  0  0  0  0
    1.9781    7.3897   13.9781 C   0  0  0  0  0  0  0  0  0  0  0  0
    4.6288    9.3181   20.2904 C   0  0  0  0  0  0  0  0  0  0  0  0
    5.8869    9.8367   20.8770 C   0  0  0  0  0  0  0  0  0  0  0  0
    4.9303    8.9896   21.6897 C   0  0  0  0  0  0  0  0  0  0  0  0
 25 26  1  0  0  0
 26 27  1  0  0  0
 27 28  1  0  0  0
 28 29  1  0  0  0
 29 30  1  0  0  0
 30 31  1  0  0  0
 29 19  1  0  0  0
 19 20  2  0  0  0
 20 21  1  0  0  0
 21  1  1  0  0  0
  1  3  1  0  0  0
  3  4  1  0  0  0
  4  5  2  0  0  0
  5 12  1  0  0  0
 12 14  1  0  0  0
 14 15  1  0  0  0
 15 16  1  0  0  0
  5  6  1  0  0  0
  6  7  2  0  0  0
  7  8  1  0  0  0
  8  9  2  0  0  0
  9 17  1  0  0  0
 17 18  3  0  0  0
  9 10  1  0  0  0
 10 11  1  0  0  0
 21 22  2  0  0  0
 22 23  1  0  0  0
 23 24  2  0  0  0
 23 32  1  0  0  0
 32 33  1  0  0  0
 33 34  1  0  0  0
 31 26  1  0  0  0
 24 19  1  0  0  0
 34 32  1  0  0  0
 11  3  2  0  0  0
 16 14  1  0  0  0
 10  6  1  0  0  0
  1  2  1  0  0  0
 12 13  1  0  0  0
M  END
> <minimizedAffinity>
-8.77890

> <CNNscore>
0.2944340408

> <CNNaffinity>
6.7796835899

> <CNN_VS>
1.9961696863

> <CNNaffinity_variance>
0.3952177167

$$$$
[H]c1nc2c(N([H])C3([H])C([H])([H])C3([H])[H])nc(N([H])c3c([H])c(N4C([H])([H])C([H])([H])N(C([H])([H])[H])C([H])([H])C4([H])[H])c([H])c(C4([H])C([H])([H])C4([H])[H])c3[H])nn2c1C#N


 34 39  0  0  0  0  0  0  0  0999 V2000
    3.5500    1.9717   15.9369 N   0  0  0  0  0  0  0  0  0  0  0  0
    3.2435    0.9308   15.8745 H   0  0  0  0  0  0  0  0  0  0  0  0
    4.0389    2.3888   17.1655 C   0  0  0  0  0  0  0  0  0  0  0  0
    4.6445    3.6061   17.2787 N   0  0  0  0  0  0  0  0  0  0  0  0
    5.1275    4.0907   18.4145 C   0  0  0  0  0  0  0  0  0  0  0  0
    5.0187    3.3276   19.5648 C   0  0  0  0  0  0  0  0  0  0  0  0
    5.3995    3.5353   20.8387 N   0  0  0  0  0  0  0  0  0  0  0  0
    5.0413    2.4520   21.5551 C   0  0  0  0  0  0  0  0  0  0  0  0
    4.4296    1.5738   20.6835 C   0  0  0  0  0  0  0  0  0  0  0  0
    4.4205    2.1266   19.4499 N   0  0  0  0  0  0  0  0  0  0  0  0
    3.9519    1.6856   18.2854 N   0  0  0  0  0  0  0  0  0  0  0  0
    5.7593    5.3723   18.5041 N   0  0  0  0  0  0  0  0  0  0  0  0
    6.7680    5.4535   18.7017 H   0  0  0  0  0  0  0  0  0  0  0  0
    4.9908    6.5878   18.3184 C   0  0  0  0  0  0  0  0  0  0  0  0
    4.6467    7.4143   19.5222 C   0  0  0  0  0  0  0  0  0  0  0  0
    3.5995    6.6159   18.8352 C   0  0  0  0  0  0  0  0  0  0  0  0
    3.8848    0.2771   21.0163 C   0  0  0  0  0  0  0  0  0  0  0  0
    3.4575   -0.7586   21.2973 N   0  0  0  0  0  0  0  0  0  0  0  0
    2.7385    2.6323   12.3779 C   0  0  0  0  0  0  0  0  0  0  0  0
    2.9513    2.0192   13.5909 C   0  0  0  0  0  0  0  0  0  0  0  0
    3.3815    2.7057   14.7396 C   0  0  0  0  0  0  0  0  0  0  0  0
    3.5837    4.0560   14.5855 C   0  0  0  0  0  0  0  0  0  0  0  0
    3.3861    4.7321   13.3866 C   0  0  0  0  0  0  0  0  0  0  0  0
    2.9646    3.9869   12.3093 C   0  0  0  0  0  0  0  0  0  0  0  0
    0.8255   -0.7371    8.5601 C   0  0  0  0  0  0  0  0  0  0  0  0
    1.4988    0.5139    8.8569 N   0  0  0  0  0  0  0  0  0  0  0  0
    2.7591    0.3260    9.4984 C   0  0  0  0  0  0  0  0  0  0  0  0
    3.2599    1.5543   10.2338 C   0  0  0  0  0  0  0  0  0  0  0  0
    2.2948    1.8878   11.2349 N   0  0  0  0  0  0  0  0  0  0  0  0
    0.9407    1.4700   11.0461 C   0  0  0  0  0  0  0  0  0  0  0  0
    0.6224    1.4209    9.5678 C   0  0  0  0  0  0  0  0  0  0  0  0
    3.6190    6.1952   13.2720 C   0  0  0  0  0  0  0  0  0  0  0  0
    3.8091    7.0253   14.4847 C   0  0  0  0  0  0  0  0  0  0  0  0
    2.5657    7.1539   13.6299 C   0  0  0  0  0  0  0  0  0  0  0  0
 25 26  1  0  0  0
 26 27  1  0  0  0
 27 28  1  0  0  0
 28 29  1  0  0  0
 29 30  1  0  0  0
 30 31  1  0  0  0
 29 19  1  0  0  0
 19 20  2  0  0  0
 20 21  1  0  0  0
 21  1  1  0  0  0
  1  3  1  0  0  0
  3  4  1  0  0  0
  4  5  2  0  0  0
  5 12  1  0  0  0
 12 14  1  0  0  0
 14 15  1  0  0  0
 15 16  1  0  0  0
  5  6  1  0  0  0
  6  7  2  0  0  0
  7  8  1  0  0  0
  8  9  2  0  0  0
  9 17  1  0  0  0
 17 18  3  0  0  0
  9 10  1  0  0  0
 10 11  1  0  0  0
 21 22  2  0  0  0
 22 23  1  0  0  0
 23 24  2  0  0  0
 23 32  1  0  0  0
 32 33  1  0  0  0
 33 34  1  0  0  0
 31 26  1  0  0  0
 24 19  1  0  0  0
 34 32  1  0  0  0
 11  3  2  0  0  0
 16 14  1  0  0  0
 10  6  1  0  0  0
  1  2  1  0  0  0
 12 13  1  0  0  0
M  END
> <minimizedAffinity>
-7.04109

> <CNNscore>
0.2595282197

> <CNNaffinity>
6.5121903419

> <CNN_VS>
1.6900972128

> <CNNaffinity_variance>
0.6572425961

$$$$
[H]c1nc2c(N([H])C3([H])C([H])([H])C3([H])[H])nc(N([H])c3c([H])c(N4C([H])([H])C([H])([H])N(C([H])([H])[H])C([H])([H])C4([H])[H])c([H])c(C4([H])C([H])([H])C4([H])[H])c3[H])nn2c1C#N


 34 39  0  0  0  0  0  0  0  0999 V2000
    3.5942    2.7915   15.3400 N   0  0  0  0  0  0  0  0  0  0  0  0
    3.5481    1.7410   15.0648 H   0  0  0  0  0  0  0  0  0  0  0  0
    4.0483    3.0650   16.6212 C   0  0  0  0  0  0  0  0  0  0  0  0
    4.7238    4.2239   16.8703 N   0  0  0  0  0  0  0  0  0  0  0  0
    5.1809    4.5731   18.0650 C   0  0  0  0  0  0  0  0  0  0  0  0
    4.9680    3.7209   19.1355 C   0  0  0  0  0  0  0  0  0  0  0  0
    5.2989    3.7896   20.4380 N   0  0  0  0  0  0  0  0  0  0  0  0
    4.8383    2.6743   21.0371 C   0  0  0  0  0  0  0  0  0  0  0  0
    4.2151    1.9194   20.0640 C   0  0  0  0  0  0  0  0  0  0  0  0
    4.3011    2.5779   18.8864 N   0  0  0  0  0  0  0  0  0  0  0  0
    3.8625    2.2736   17.6677 N   0  0  0  0  0  0  0  0  0  0  0  0
    5.8877    5.7962   18.2976 N   0  0  0  0  0  0  0  0  0  0  0  0
    6.8889    5.7913   18.5440 H   0  0  0  0  0  0  0  0  0  0  0  0
    5.2076    7.0724   18.1913 C   0  0  0  0  0  0  0  0  0  0  0  0
    4.9918    7.8803   19.4369 C   0  0  0  0  0  0  0  0  0  0  0  0
    3.8514    7.1884   18.7835 C   0  0  0  0  0  0  0  0  0  0  0  0
    3.5735    0.6384   20.2540 C   0  0  0  0  0  0  0  0  0  0  0  0
    3.0681   -0.3868   20.4212 N   0  0  0  0  0  0  0  0  0  0  0  0
    3.7775    4.8696   12.2725 C   0  0  0  0  0  0  0  0  0  0  0  0
    4.0842    4.0264   13.3153 C   0  0  0  0  0  0  0  0  0  0  0  0
    3.1704    3.6826   14.3265 C   0  0  0  0  0  0  0  0  0  0  0  0
    1.9220    4.2461   14.2176 C   0  0  0  0  0  0  0  0  0  0  0  0
    1.5522    5.1048   13.1883 C   0  0  0  0  0  0  0  0  0  0  0  0
    2.5056    5.3910   12.2382 C   0  0  0  0  0  0  0  0  0  0  0  0
    7.9484    5.6446    8.8679 C   0  0  0  0  0  0  0  0  0  0  0  0
    6.5628    5.9369    9.1863 N   0  0  0  0  0  0  0  0  0  0  0  0
    6.4154    6.6544   10.4104 C   0  0  0  0  0  0  0  0  0  0  0  0
    5.0238    6.5658   11.0072 C   0  0  0  0  0  0  0  0  0  0  0  0
    4.7448    5.1865   11.2618 N   0  0  0  0  0  0  0  0  0  0  0  0
    5.4358    4.1960   10.4968 C   0  0  0  0  0  0  0  0  0  0  0  0
    5.7500    4.7406    9.1206 C   0  0  0  0  0  0  0  0  0  0  0  0
    0.1876    5.6884   13.1157 C   0  0  0  0  0  0  0  0  0  0  0  0
   -0.3651    6.1539   11.8220 C   0  0  0  0  0  0  0  0  0  0  0  0
   -0.0029    7.1314   12.9204 C   0  0  0  0  0  0  0  0  0  0  0  0
 25 26  1  0  0  0
 26 27  1  0  0  0
 27 28  1  0  0  0
 28 29  1  0  0  0
 29 30  1  0  0  0
 30 31  1  0  0  0
 29 19  1  0  0  0
 19 20  2  0  0  0
 20 21  1  0  0  0
 21  1  1  0  0  0
  1  3  1  0  0  0
  3  4  1  0  0  0
  4  5  2  0  0  0
  5 12  1  0  0  0
 12 14  1  0  0  0
 14 15  1  0  0  0
 15 16  1  0  0  0
  5  6  1  0  0  0
  6  7  2  0  0  0
  7  8  1  0  0  0
  8  9  2  0  0  0
  9 17  1  0  0  0
 17 18  3  0  0  0
  9 10  1  0  0  0
 10 11  1  0  0  0
 21 22  2  0  0  0
 22 23  1  0  0  0
 23 24  2  0  0  0
 23 32  1  0  0  0
 32 33  1  0  0  0
 33 34  1  0  0  0
 31 26  1  0  0  0
 24 19  1  0  0  0
 34 32  1  0  0  0
 11  3  2  0  0  0
 16 14  1  0  0  0
 10  6  1  0  0  0
  1  2  1  0  0  0
 12 13  1  0  0  0
M  END
> <minimizedAffinity>
-6.73730

> <CNNscore>
0.2254515141

> <CNNaffinity>
6.4153966904

> <CNN_VS>
1.4463609457

> <CNNaffinity_variance>
0.6874631047

$$$$
[H]c1nc2c(N([H])C3([H])C([H])([H])C3([H])[H])nc(N([H])c3c([H])c(N4C([H])([H])C([H])([H])N(C([H])([H])[H])C([H])([H])C4([H])[H])c([H])c(C4([H])C([H])([H])C4([H])[H])c3[H])nn2c1C#N


 34 39  0  0  0  0  0  0  0  0999 V2000
    3.1718    3.1135   15.2938 N   0  0  0  0  0  0  0  0  0  0  0  0
    2.8538    2.0746   15.2667 H   0  0  0  0  0  0  0  0  0  0  0  0
    3.5725    3.5945   16.5309 C   0  0  0  0  0  0  0  0  0  0  0  0
    3.8758    4.9162   16.6809 N   0  0  0  0  0  0  0  0  0  0  0  0
    4.2530    5.4645   17.8278 C   0  0  0  0  0  0  0  0  0  0  0  0
    4.3499    4.6606   18.9511 C   0  0  0  0  0  0  0  0  0  0  0  0
    4.6959    4.9112   20.2271 N   0  0  0  0  0  0  0  0  0  0  0  0
    4.6177    3.7514   20.9082 C   0  0  0  0  0  0  0  0  0  0  0  0
    4.2135    2.7820   20.0126 C   0  0  0  0  0  0  0  0  0  0  0  0
    4.0500    3.3565   18.7998 N   0  0  0  0  0  0  0  0  0  0  0  0
    3.6759    2.8550   17.6256 N   0  0  0  0  0  0  0  0  0  0  0  0
    4.5661    6.8556   17.9562 N   0  0  0  0  0  0  0  0  0  0  0  0
    5.3839    7.2614   17.4771 H   0  0  0  0  0  0  0  0  0  0  0  0
    3.7364    7.7263   18.7662 C   0  0  0  0  0  0  0  0  0  0  0  0
    3.7984    9.2065   18.5291 C   0  0  0  0  0  0  0  0  0  0  0  0
    4.4108    8.6145   19.7459 C   0  0  0  0  0  0  0  0  0  0  0  0
    3.9967    1.3833   20.3047 C   0  0  0  0  0  0  0  0  0  0  0  0
    3.8247    0.2687   20.5549 N   0  0  0  0  0  0  0  0  0  0  0  0
    1.6603    4.7909   12.3504 C   0  0  0  0  0  0  0  0  0  0  0  0
    1.8428    4.1281   13.5420 C   0  0  0  0  0  0  0  0  0  0  0  0
    3.1072    3.7796   14.0476 C   0  0  0  0  0  0  0  0  0  0  0  0
    4.1802    4.1443   13.2708 C   0  0  0  0  0  0  0  0  0  0  0  0
    4.0604    4.8147   12.0584 C   0  0  0  0  0  0  0  0  0  0  0  0
    2.7873    5.1191   11.6341 C   0  0  0  0  0  0  0  0  0  0  0  0
   -3.3920    5.3053   10.4017 C   0  0  0  0  0  0  0  0  0  0  0  0
   -2.2211    5.9678   10.9464 N   0  0  0  0  0  0  0  0  0  0  0  0
   -1.0738    5.8429   10.1079 C   0  0  0  0  0  0  0  0  0  0  0  0
    0.2386    6.0902   10.8267 C   0  0  0  0  0  0  0  0  0  0  0  0
    0.3482    5.1284   11.8792 N   0  0  0  0  0  0  0  0  0  0  0  0
   -0.8493    4.5573   12.4117 C   0  0  0  0  0  0  0  0  0  0  0  0
   -1.9800    5.5578   12.3139 C   0  0  0  0  0  0  0  0  0  0  0  0
    5.2538    5.1872   11.2552 C   0  0  0  0  0  0  0  0  0  0  0  0
    5.1882    5.2117    9.7750 C   0  0  0  0  0  0  0  0  0  0  0  0
    6.0050    4.1693   10.5095 C   0  0  0  0  0  0  0  0  0  0  0  0
 25 26  1  0  0  0
 26 27  1  0  0  0
 27 28  1  0  0  0
 28 29  1  0  0  0
 29 30  1  0  0  0
 30 31  1  0  0  0
 29 19  1  0  0  0
 19 20  2  0  0  0
 20 21  1  0  0  0
 21  1  1  0  0  0
  1  3  1  0  0  0
  3  4  1  0  0  0
  4  5  2  0  0  0
  5 12  1  0  0  0
 12 14  1  0  0  0
 14 15  1  0  0  0
 15 16  1  0  0  0
  5  6  1  0  0  0
  6  7  2  0  0  0
  7  8  1  0  0  0
  8  9  2  0  0  0
  9 17  1  0  0  0
 17 18  3  0  0  0
  9 10  1  0  0  0
 10 11  1  0  0  0
 21 22  2  0  0  0
 22 23  1  0  0  0
 23 24  2  0  0  0
 23 32  1  0  0  0
 32 33  1  0  0  0
 33 34  1  0  0  0
 31 26  1  0  0  0
 24 19  1  0  0  0
 34 32  1  0  0  0
 11  3  2  0  0  0
 16 14  1  0  0  0
 10  6  1  0  0  0
  1  2  1  0  0  0
 12 13  1  0  0  0
M  END
> <minimizedAffinity>
-6.81233

> <CNNscore>
0.1948151290

> <CNNaffinity>
6.4535751343

> <CNN_VS>
1.2572541237

> <CNNaffinity_variance>
1.5040102005

$$$$
[H]c1nc2c(N([H])C3([H])C([H])([H])C3([H])[H])nc(N([H])c3c([H])c(N4C([H])([H])C([H])([H])N(C([H])([H])[H])C([H])([H])C4([H])[H])c([H])c(C4([H])C([H])([H])C4([H])[H])c3[H])nn2c1C#N


 34 39  0  0  0  0  0  0  0  0999 V2000
    2.1725    1.7365   14.9363 N   0  0  0  0  0  0  0  0  0  0  0  0
    1.8898    0.6925   15.0435 H   0  0  0  0  0  0  0  0  0  0  0  0
    1.7099    2.3777   13.7973 C   0  0  0  0  0  0  0  0  0  0  0  0
    1.9933    1.8642   12.5654 N   0  0  0  0  0  0  0  0  0  0  0  0
    1.5809    2.4019   11.4257 C   0  0  0  0  0  0  0  0  0  0  0  0
    0.8151    3.5547   11.4709 C   0  0  0  0  0  0  0  0  0  0  0  0
    0.2589    4.3204   10.5143 N   0  0  0  0  0  0  0  0  0  0  0  0
   -0.3871    5.3331   11.1243 C   0  0  0  0  0  0  0  0  0  0  0  0
   -0.2109    5.1663   12.4830 C   0  0  0  0  0  0  0  0  0  0  0  0
    0.5372    4.0591   12.6882 N   0  0  0  0  0  0  0  0  0  0  0  0
    0.9755    3.4807   13.8033 N   0  0  0  0  0  0  0  0  0  0  0  0
    1.8940    1.8415   10.1460 N   0  0  0  0  0  0  0  0  0  0  0  0
    1.4139    2.1662    9.2932 H   0  0  0  0  0  0  0  0  0  0  0  0
    2.8967    0.8015   10.0219 C   0  0  0  0  0  0  0  0  0  0  0  0
    4.1763    1.1156    9.3043 C   0  0  0  0  0  0  0  0  0  0  0  0
    3.1548    0.2428    8.6711 C   0  0  0  0  0  0  0  0  0  0  0  0
   -0.7313    6.0216   13.5255 C   0  0  0  0  0  0  0  0  0  0  0  0
   -1.1628    6.6987   14.3559 N   0  0  0  0  0  0  0  0  0  0  0  0
    4.1392    4.1841   16.9121 C   0  0  0  0  0  0  0  0  0  0  0  0
    3.3756    3.5845   15.9373 C   0  0  0  0  0  0  0  0  0  0  0  0
    2.9716    2.2391   15.9896 C   0  0  0  0  0  0  0  0  0  0  0  0
    3.3888    1.5347   17.0930 C   0  0  0  0  0  0  0  0  0  0  0  0
    4.1613    2.0841   18.1104 C   0  0  0  0  0  0  0  0  0  0  0  0
    4.5147    3.4079   17.9832 C   0  0  0  0  0  0  0  0  0  0  0  0
    5.2073    9.5086   17.2219 C   0  0  0  0  0  0  0  0  0  0  0  0
    5.3328    8.2816   16.4569 N   0  0  0  0  0  0  0  0  0  0  0  0
    4.0742    7.7652   16.0278 C   0  0  0  0  0  0  0  0  0  0  0  0
    4.1107    6.2949   15.6573 C   0  0  0  0  0  0  0  0  0  0  0  0
    4.5223    5.5629   16.8148 N   0  0  0  0  0  0  0  0  0  0  0  0
    5.2963    6.2359   17.8106 C   0  0  0  0  0  0  0  0  0  0  0  0
    6.1421    7.3094   17.1614 C   0  0  0  0  0  0  0  0  0  0  0  0
    4.5869    1.2787   19.2843 C   0  0  0  0  0  0  0  0  0  0  0  0
    3.8343    1.3484   20.5589 C   0  0  0  0  0  0  0  0  0  0  0  0
    5.2328    1.9166   20.4387 C   0  0  0  0  0  0  0  0  0  0  0  0
 25 26  1  0  0  0
 26 27  1  0  0  0
 27 28  1  0  0  0
 28 29  1  0  0  0
 29 30  1  0  0  0
 30 31  1  0  0  0
 29 19  1  0  0  0
 19 20  2  0  0  0
 20 21  1  0  0  0
 21  1  1  0  0  0
  1  3  1  0  0  0
  3  4  1  0  0  0
  4  5  2  0  0  0
  5 12  1  0  0  0
 12 14  1  0  0  0
 14 15  1  0  0  0
 15 16  1  0  0  0
  5  6  1  0  0  0
  6  7  2  0  0  0
  7  8  1  0  0  0
  8  9  2  0  0  0
  9 17  1  0  0  0
 17 18  3  0  0  0
  9 10  1  0  0  0
 10 11  1  0  0  0
 21 22  2  0  0  0
 22 23  1  0  0  0
 23 24  2  0  0  0
 23 32  1  0  0  0
 32 33  1  0  0  0
 33 34  1  0  0  0
 31 26  1  0  0  0
 24 19  1  0  0  0
 34 32  1  0  0  0
 11  3  2  0  0  0
 16 14  1  0  0  0
 10  6  1  0  0  0
  1  2  1  0  0  0
 12 13  1  0  0  0
M  END
> <minimizedAffinity>
-6.75760

> <CNNscore>
0.1650510728

> <CNNaffinity>
6.4378304482

> <CNN_VS>
1.0625708103

> <CNNaffinity_variance>
0.0591675155

$$$$
[H]c1nc2c(N([H])C3([H])C([H])([H])C3([H])[H])nc(N([H])c3c([H])c(N4C([H])([H])C([H])([H])N(C([H])([H])[H])C([H])([H])C4([H])[H])c([H])c(C4([H])C([H])([H])C4([H])[H])c3[H])nn2c1C#N


 34 39  0  0  0  0  0  0  0  0999 V2000
    4.0933    4.5762   14.5951 N   0  0  0  0  0  0  0  0  0  0  0  0
    4.9438    5.0751   14.1379 H   0  0  0  0  0  0  0  0  0  0  0  0
    4.2488    4.2017   15.9210 C   0  0  0  0  0  0  0  0  0  0  0  0
    4.7918    5.0771   16.8156 N   0  0  0  0  0  0  0  0  0  0  0  0
    4.9646    4.8096   18.1027 C   0  0  0  0  0  0  0  0  0  0  0  0
    4.5756    3.5710   18.5843 C   0  0  0  0  0  0  0  0  0  0  0  0
    4.6176    3.0118   19.8076 N   0  0  0  0  0  0  0  0  0  0  0  0
    4.1014    1.7713   19.7089 C   0  0  0  0  0  0  0  0  0  0  0  0
    3.7415    1.5858   18.3894 C   0  0  0  0  0  0  0  0  0  0  0  0
    4.0401    2.7092   17.6990 N   0  0  0  0  0  0  0  0  0  0  0  0
    3.8880    3.0266   16.4159 N   0  0  0  0  0  0  0  0  0  0  0  0
    5.5382    5.7478   19.0195 N   0  0  0  0  0  0  0  0  0  0  0  0
    6.5596    5.8762   19.0770 H   0  0  0  0  0  0  0  0  0  0  0  0
    4.6913    6.5402   19.8898 C   0  0  0  0  0  0  0  0  0  0  0  0
    4.9255    8.0198   19.9718 C   0  0  0  0  0  0  0  0  0  0  0  0
    5.3055    7.1354   21.1031 C   0  0  0  0  0  0  0  0  0  0  0  0
    3.1448    0.3974   17.8234 C   0  0  0  0  0  0  0  0  0  0  0  0
    2.6666   -0.5445   17.3558 N   0  0  0  0  0  0  0  0  0  0  0  0
    2.0119    3.0916   11.9070 C   0  0  0  0  0  0  0  0  0  0  0  0
    3.0363    3.3659   12.7833 C   0  0  0  0  0  0  0  0  0  0  0  0
    2.9846    4.3995   13.7346 C   0  0  0  0  0  0  0  0  0  0  0  0
    1.8283    5.1415   13.7453 C   0  0  0  0  0  0  0  0  0  0  0  0
    0.7592    4.9134   12.8858 C   0  0  0  0  0  0  0  0  0  0  0  0
    0.8896    3.8823   11.9839 C   0  0  0  0  0  0  0  0  0  0  0  0
    2.2034   -1.4388    8.9026 C   0  0  0  0  0  0  0  0  0  0  0  0
    2.3843    0.0004    8.9528 N   0  0  0  0  0  0  0  0  0  0  0  0
    3.4372    0.3961    9.8301 C   0  0  0  0  0  0  0  0  0  0  0  0
    3.3537    1.8449   10.2711 C   0  0  0  0  0  0  0  0  0  0  0  0
    2.1112    2.0218   10.9566 N   0  0  0  0  0  0  0  0  0  0  0  0
    1.0326    1.1322   10.6588 C   0  0  0  0  0  0  0  0  0  0  0  0
    1.1307    0.6736    9.2203 C   0  0  0  0  0  0  0  0  0  0  0  0
   -0.4708    5.7454   12.9379 C   0  0  0  0  0  0  0  0  0  0  0  0
   -0.4104    7.1985   12.6538 C   0  0  0  0  0  0  0  0  0  0  0  0
   -0.6991    6.6803   14.0472 C   0  0  0  0  0  0  0  0  0  0  0  0
 25 26  1  0  0  0
 26 27  1  0  0  0
 27 28  1  0  0  0
 28 29  1  0  0  0
 29 30  1  0  0  0
 30 31  1  0  0  0
 29 19  1  0  0  0
 19 20  2  0  0  0
 20 21  1  0  0  0
 21  1  1  0  0  0
  1  3  1  0  0  0
  3  4  1  0  0  0
  4  5  2  0  0  0
  5 12  1  0  0  0
 12 14  1  0  0  0
 14 15  1  0  0  0
 15 16  1  0  0  0
  5  6  1  0  0  0
  6  7  2  0  0  0
  7  8  1  0  0  0
  8  9  2  0  0  0
  9 17  1  0  0  0
 17 18  3  0  0  0
  9 10  1  0  0  0
 10 11  1  0  0  0
 21 22  2  0  0  0
 22 23  1  0  0  0
 23 24  2  0  0  0
 23 32  1  0  0  0
 32 33  1  0  0  0
 33 34  1  0  0  0
 31 26  1  0  0  0
 24 19  1  0  0  0
 34 32  1  0  0  0
 11  3  2  0  0  0
 16 14  1  0  0  0
 10  6  1  0  0  0
  1  2  1  0  0  0
 12 13  1  0  0  0
M  END
> <minimizedAffinity>
-6.98522

> <CNNscore>
0.1597030759

> <CNNaffinity>
6.4476814270

> <CNN_VS>
1.0297145844

> <CNNaffinity_variance>
0.2435289919

$$$$
[H]c1nc2c(N([H])C3([H])C([H])([H])C3([H])[H])nc(N([H])c3c([H])c(N4C([H])([H])C([H])([H])N(C([H])([H])[H])C([H])([H])C4([H])[H])c([H])c(C4([H])C([H])([H])C4([H])[H])c3[H])nn2c1C#N


 34 39  0  0  0  0  0  0  0  0999 V2000
    3.5828    3.7783   16.2123 N   0  0  0  0  0  0  0  0  0  0  0  0
    3.8554    2.7387   16.0505 H   0  0  0  0  0  0  0  0  0  0  0  0
    3.6762    4.2350   17.5181 C   0  0  0  0  0  0  0  0  0  0  0  0
    3.4740    5.5560   17.7926 N   0  0  0  0  0  0  0  0  0  0  0  0
    3.5295    6.0768   19.0108 C   0  0  0  0  0  0  0  0  0  0  0  0
    3.8086    5.2428   20.0803 C   0  0  0  0  0  0  0  0  0  0  0  0
    3.9300    5.4617   21.4025 N   0  0  0  0  0  0  0  0  0  0  0  0
    4.2115    4.2820   21.9890 C   0  0  0  0  0  0  0  0  0  0  0  0
    4.2592    3.3329   20.9880 C   0  0  0  0  0  0  0  0  0  0  0  0
    4.0078    3.9395   19.8062 N   0  0  0  0  0  0  0  0  0  0  0  0
    3.9409    3.4663   18.5645 N   0  0  0  0  0  0  0  0  0  0  0  0
    3.3135    7.4682   19.2698 N   0  0  0  0  0  0  0  0  0  0  0  0
    2.3629    7.8382   19.4199 H   0  0  0  0  0  0  0  0  0  0  0  0
    4.4315    8.3898   19.3264 C   0  0  0  0  0  0  0  0  0  0  0  0
    4.7137    9.1024   20.6162 C   0  0  0  0  0  0  0  0  0  0  0  0
    4.1323    9.8373   19.4638 C   0  0  0  0  0  0  0  0  0  0  0  0
    4.5309    1.9234   21.1564 C   0  0  0  0  0  0  0  0  0  0  0  0
    4.7639    0.8008   21.2966 N   0  0  0  0  0  0  0  0  0  0  0  0
    3.5091    4.7722   12.6390 C   0  0  0  0  0  0  0  0  0  0  0  0
    3.8316    4.1771   13.8368 C   0  0  0  0  0  0  0  0  0  0  0  0
    3.1753    4.4664   15.0456 C   0  0  0  0  0  0  0  0  0  0  0  0
    2.1684    5.3981   14.9684 C   0  0  0  0  0  0  0  0  0  0  0  0
    1.7965    6.0336   13.7887 C   0  0  0  0  0  0  0  0  0  0  0  0
    2.4890    5.6942   12.6491 C   0  0  0  0  0  0  0  0  0  0  0  0
    6.0638    4.2670    7.8635 C   0  0  0  0  0  0  0  0  0  0  0  0
    5.5752    3.6090    9.0613 N   0  0  0  0  0  0  0  0  0  0  0  0
    4.1546    3.6602    9.1810 C   0  0  0  0  0  0  0  0  0  0  0  0
    3.6510    3.4231   10.5919 C   0  0  0  0  0  0  0  0  0  0  0  0
    4.2066    4.4394   11.4306 N   0  0  0  0  0  0  0  0  0  0  0  0
    5.4266    5.0669   11.0287 C   0  0  0  0  0  0  0  0  0  0  0  0
    6.2681    4.0890   10.2384 C   0  0  0  0  0  0  0  0  0  0  0  0
    0.6992    7.0351   13.7582 C   0  0  0  0  0  0  0  0  0  0  0  0
   -0.7047    6.6223   13.9917 C   0  0  0  0  0  0  0  0  0  0  0  0
   -0.2378    7.0888   12.6287 C   0  0  0  0  0  0  0  0  0  0  0  0
 25 26  1  0  0  0
 26 27  1  0  0  0
 27 28  1  0  0  0
 28 29  1  0  0  0
 29 30  1  0  0  0
 30 31  1  0  0  0
 29 19  1  0  0  0
 19 20  2  0  0  0
 20 21  1  0  0  0
 21  1  1  0  0  0
  1  3  1  0  0  0
  3  4  1  0  0  0
  4  5  2  0  0  0
  5 12  1  0  0  0
 12 14  1  0  0  0
 14 15  1  0  0  0
 15 16  1  0  0  0
  5  6  1  0  0  0
  6  7  2  0  0  0
  7  8  1  0  0  0
  8  9  2  0  0  0
  9 17  1  0  0  0
 17 18  3  0  0  0
  9 10  1  0  0  0
 10 11  1  0  0  0
 21 22  2  0  0  0
 22 23  1  0  0  0
 23 24  2  0  0  0
 23 32  1  0  0  0
 32 33  1  0  0  0
 33 34  1  0  0  0
 31 26  1  0  0  0
 24 19  1  0  0  0
 34 32  1  0  0  0
 11  3  2  0  0  0
 16 14  1  0  0  0
 10  6  1  0  0  0
  1  2  1  0  0  0
 12 13  1  0  0  0
M  END
> <minimizedAffinity>
-7.76342

> <CNNscore>
0.1537057310

> <CNNaffinity>
6.2241821289

> <CNN_VS>
0.9566924572

> <CNNaffinity_variance>
0.8346779943

$$$$
[H]OC(=O)[C@@]([H])(N([H])C(=O)C([H])([H])P(=O)(O[H])[C@@]([H])(C([H])([H])[H])[N+]([H])([H])[H])C([H])([H])C([H])(C([H])([H])[H])C([H])([H])[H]


 24 23  0  0  0  0  0  0  0  0999 V2000
    4.4169    2.6320   18.6981 C   0  0  0  0  0  0  0  0  0  0  0  0
    3.8463    1.7085   19.3884 O   0  0  0  0  0  0  0  0  0  0  0  0
    4.7974    3.8257   19.3053 N   0  0  0  0  0  0  0  0  0  0  0  0
    5.2585    4.6130   18.8235 H   0  0  0  0  0  0  0  0  0  0  0  0
    4.6045    2.2913   17.2793 C   0  0  0  0  0  0  0  0  0  0  0  0
    3.4755    3.2669   16.2657 P   0  0  0  0  0  0  0  0  0  0  0  0
    4.4161    4.1957   15.1947 O   0  0  0  0  0  0  0  0  0  0  0  0
    2.6497    4.1683   17.1492 O   0  0  0  0  0  0  0  0  0  0  0  0
    3.8792    4.5000   14.4373 H   0  0  0  0  0  0  0  0  0  0  0  0
    2.7605    2.0162   13.9145 C   0  0  0  0  0  0  0  0  0  0  0  0
    2.3343    2.1986   15.3361 C   0  0  0  0  0  0  0  0  0  0  0  0
    2.2374    0.9159   16.0203 N   0  0  0  0  0  0  0  0  0  0  0  0
    3.1884    0.5996   16.3230 H   0  0  0  0  0  0  0  0  0  0  0  0
    1.8413    0.1888   15.4046 H   0  0  0  0  0  0  0  0  0  0  0  0
    1.6094    1.0562   16.8499 H   0  0  0  0  0  0  0  0  0  0  0  0
    4.5634    4.0732   20.7454 C   0  0  0  0  0  0  0  0  0  0  0  0
    3.9773    5.3927   20.9546 C   0  0  0  0  0  0  0  0  0  0  0  0
    3.8221    5.9816   22.1856 O   0  0  0  0  0  0  0  0  0  0  0  0
    3.5766    6.0541   19.9362 O   0  0  0  0  0  0  0  0  0  0  0  0
    4.2082    6.8932   22.4054 H   0  0  0  0  0  0  0  0  0  0  0  0
    5.8436    3.8534   21.4753 C   0  0  0  0  0  0  0  0  0  0  0  0
    5.8592    2.6771   22.4132 C   0  0  0  0  0  0  0  0  0  0  0  0
    6.5756    1.5270   21.6772 C   0  0  0  0  0  0  0  0  0  0  0  0
    4.5065    2.2469   22.8762 C   0  0  0  0  0  0  0  0  0  0  0  0
 10 11  1  0  0  0
 11 12  1  0  0  0
 11  6  1  0  0  0
  6  7  1  0  0  0
  6  8  2  0  0  0
  6  5  1  0  0  0
  5  1  1  0  0  0
  1  2  2  0  0  0
  1  3  1  0  0  0
  3 16  1  0  0  0
 16 21  1  0  0  0
 21 22  1  0  0  0
 22 23  1  0  0  0
 22 24  1  0  0  0
 16 17  1  0  0  0
 17 18  1  0  0  0
 17 19  2  0  0  0
 12 13  1  0  0  0
 12 14  1  0  0  0
 12 15  1  0  0  0
  7  9  1  0  0  0
  3  4  1  0  0  0
 18 20  1  0  0  0
M  CHG 1  12   1
M  END
> <minimizedAffinity>
-6.10701

> <CNNscore>
0.3451984823

> <CNNaffinity>
4.2335557938

> <CNN_VS>
1.4614170790

> <CNNaffinity_variance>
0.2582608461

$$$$
[H]OC(=O)[C@@]([H])(N([H])C(=O)C([H])([H])P(=O)(O[H])[C@@]([H])(C([H])([H])[H])[N+]([H])([H])[H])C([H])([H])C([H])(C([H])([H])[H])C([H])([H])[H]


 24 23  0  0  0  0  0  0  0  0999 V2000
    7.3015    6.1417   22.4489 C   0  0  0  0  0  0  0  0  0  0  0  0
    8.0897    5.1339   22.3154 O   0  0  0  0  0  0  0  0  0  0  0  0
    5.9522    6.0225   22.1269 N   0  0  0  0  0  0  0  0  0  0  0  0
    5.2567    6.7806   22.2056 H   0  0  0  0  0  0  0  0  0  0  0  0
    7.9611    7.3569   22.9513 C   0  0  0  0  0  0  0  0  0  0  0  0
    7.6934    8.7157   21.7955 P   0  0  0  0  0  0  0  0  0  0  0  0
    7.5081    8.0434   20.2438 O   0  0  0  0  0  0  0  0  0  0  0  0
    8.8805    9.6459   21.8214 O   0  0  0  0  0  0  0  0  0  0  0  0
    7.0669    8.6753   19.6432 H   0  0  0  0  0  0  0  0  0  0  0  0
    5.0043    9.2424   21.4882 C   0  0  0  0  0  0  0  0  0  0  0  0
    6.2183    9.6807   22.2432 C   0  0  0  0  0  0  0  0  0  0  0  0
    6.0077    9.5675   23.6805 N   0  0  0  0  0  0  0  0  0  0  0  0
    6.1490    8.5759   23.9854 H   0  0  0  0  0  0  0  0  0  0  0  0
    5.0507    9.8483   23.9449 H   0  0  0  0  0  0  0  0  0  0  0  0
    6.7028   10.2031   24.1444 H   0  0  0  0  0  0  0  0  0  0  0  0
    5.3828    4.7515   21.6267 C   0  0  0  0  0  0  0  0  0  0  0  0
    4.4251    5.0005   20.5547 C   0  0  0  0  0  0  0  0  0  0  0  0
    3.4486    5.9650   20.6013 O   0  0  0  0  0  0  0  0  0  0  0  0
    4.4857    4.2813   19.4991 O   0  0  0  0  0  0  0  0  0  0  0  0
    3.3609    6.6855   19.8929 H   0  0  0  0  0  0  0  0  0  0  0  0
    4.8195    4.0000   22.7834 C   0  0  0  0  0  0  0  0  0  0  0  0
    5.6416    2.8329   23.2582 C   0  0  0  0  0  0  0  0  0  0  0  0
    6.1843    2.1259   22.0000 C   0  0  0  0  0  0  0  0  0  0  0  0
    4.8955    1.8721   24.1240 C   0  0  0  0  0  0  0  0  0  0  0  0
 10 11  1  0  0  0
 11 12  1  0  0  0
 11  6  1  0  0  0
  6  7  1  0  0  0
  6  8  2  0  0  0
  6  5  1  0  0  0
  5  1  1  0  0  0
  1  2  2  0  0  0
  1  3  1  0  0  0
  3 16  1  0  0  0
 16 21  1  0  0  0
 21 22  1  0  0  0
 22 23  1  0  0  0
 22 24  1  0  0  0
 16 17  1  0  0  0
 17 18  1  0  0  0
 17 19  2  0  0  0
 12 13  1  0  0  0
 12 14  1  0  0  0
 12 15  1  0  0  0
  7  9  1  0  0  0
  3  4  1  0  0  0
 18 20  1  0  0  0
M  CHG 1  12   1
M  END
> <minimizedAffinity>
-5.75791

> <CNNscore>
0.3120329678

> <CNNaffinity>
3.9805305004

> <CNN_VS>
1.2420567274

> <CNNaffinity_variance>
0.1239829659

$$$$
[H]OC(=O)[C@@]([H])(N([H])C(=O)C([H])([H])P(=O)(O[H])[C@@]([H])(C([H])([H])[H])[N+]([H])([H])[H])C([H])([H])C([H])(C([H])([H])[H])C([H])([H])[H]


 24 23  0  0  0  0  0  0  0  0999 V2000
    3.1289    5.3464   17.4678 C   0  0  0  0  0  0  0  0  0  0  0  0
    1.8776    5.0736   17.3466 O   0  0  0  0  0  0  0  0  0  0  0  0
    3.8898    5.6561   16.3437 N   0  0  0  0  0  0  0  0  0  0  0  0
    4.8957    5.8857   16.3559 H   0  0  0  0  0  0  0  0  0  0  0  0
    3.6233    5.2933   18.8524 C   0  0  0  0  0  0  0  0  0  0  0  0
    4.3401    6.8861   19.3030 P   0  0  0  0  0  0  0  0  0  0  0  0
    3.1181    8.0608   19.1575 O   0  0  0  0  0  0  0  0  0  0  0  0
    5.4852    7.2084   18.3756 O   0  0  0  0  0  0  0  0  0  0  0  0
    3.3468    8.8630   19.6663 H   0  0  0  0  0  0  0  0  0  0  0  0
    5.3720    8.2227   21.4829 C   0  0  0  0  0  0  0  0  0  0  0  0
    4.9882    6.8599   21.0021 C   0  0  0  0  0  0  0  0  0  0  0  0
    3.9843    6.2630   21.8731 N   0  0  0  0  0  0  0  0  0  0  0  0
    3.0362    6.6380   21.6351 H   0  0  0  0  0  0  0  0  0  0  0  0
    4.1708    6.4761   22.8653 H   0  0  0  0  0  0  0  0  0  0  0  0
    4.0236    5.2248   21.7219 H   0  0  0  0  0  0  0  0  0  0  0  0
    3.2968    5.6827   14.9881 C   0  0  0  0  0  0  0  0  0  0  0  0
    3.6387    4.4714   14.2504 C   0  0  0  0  0  0  0  0  0  0  0  0
    4.5336    4.4287   13.2095 O   0  0  0  0  0  0  0  0  0  0  0  0
    3.0757    3.3721   14.5819 O   0  0  0  0  0  0  0  0  0  0  0  0
    5.3388    3.8121   13.2090 H   0  0  0  0  0  0  0  0  0  0  0  0
    3.7165    6.9439   14.3149 C   0  0  0  0  0  0  0  0  0  0  0  0
    2.6150    7.9348   14.0538 C   0  0  0  0  0  0  0  0  0  0  0  0
    2.1208    7.6862   12.6145 C   0  0  0  0  0  0  0  0  0  0  0  0
    3.0201    9.3605   14.2348 C   0  0  0  0  0  0  0  0  0  0  0  0
 10 11  1  0  0  0
 11 12  1  0  0  0
 11  6  1  0  0  0
  6  7  1  0  0  0
  6  8  2  0  0  0
  6  5  1  0  0  0
  5  1  1  0  0  0
  1  2  2  0  0  0
  1  3  1  0  0  0
  3 16  1  0  0  0
 16 21  1  0  0  0
 21 22  1  0  0  0
 22 23  1  0  0  0
 22 24  1  0  0  0
 16 17  1  0  0  0
 17 18  1  0  0  0
 17 19  2  0  0  0
 12 13  1  0  0  0
 12 14  1  0  0  0
 12 15  1  0  0  0
  7  9  1  0  0  0
  3  4  1  0  0  0
 18 20  1  0  0  0
M  CHG 1  12   1
M  END
> <minimizedAffinity>
-5.38008

> <CNNscore>
0.3030511141

> <CNNaffinity>
3.9479751587

> <CNN_VS>
1.1964383125

> <CNNaffinity_variance>
0.2952356339

$$$$
[H]OC(=O)[C@@]([H])(N([H])C(=O)C([H])([H])P(=O)(O[H])[C@@]([H])(C([H])([H])[H])[N+]([H])([H])[H])C([H])([H])C([H])(C([H])([H])[H])C([H])([H])[H]


 24 23  0  0  0  0  0  0  0  0999 V2000
    5.6614    4.9596   20.5463 C   0  0  0  0  0  0  0  0  0  0  0  0
    6.4394    4.9951   21.5701 O   0  0  0  0  0  0  0  0  0  0  0  0
    4.9386    3.8054   20.2562 N   0  0  0  0  0  0  0  0  0  0  0  0
    4.2953    3.6964   19.4568 H   0  0  0  0  0  0  0  0  0  0  0  0
    5.6328    6.2093   19.7707 C   0  0  0  0  0  0  0  0  0  0  0  0
    3.9547    6.5256   19.1895 P   0  0  0  0  0  0  0  0  0  0  0  0
    2.8806    5.9082   20.3555 O   0  0  0  0  0  0  0  0  0  0  0  0
    3.7376    5.8368   17.8653 O   0  0  0  0  0  0  0  0  0  0  0  0
    1.9947    6.3082   20.2562 H   0  0  0  0  0  0  0  0  0  0  0  0
    4.5109    9.1439   19.8513 C   0  0  0  0  0  0  0  0  0  0  0  0
    3.6656    8.3047   18.9474 C   0  0  0  0  0  0  0  0  0  0  0  0
    3.9151    8.6299   17.5492 N   0  0  0  0  0  0  0  0  0  0  0  0
    4.7843    8.1481   17.2199 H   0  0  0  0  0  0  0  0  0  0  0  0
    4.0436    9.6448   17.4150 H   0  0  0  0  0  0  0  0  0  0  0  0
    3.0789    8.3049   17.0037 H   0  0  0  0  0  0  0  0  0  0  0  0
    5.0368    2.5949   21.1016 C   0  0  0  0  0  0  0  0  0  0  0  0
    5.2392    1.4060   20.2806 C   0  0  0  0  0  0  0  0  0  0  0  0
    4.7262    1.2445   19.0170 O   0  0  0  0  0  0  0  0  0  0  0  0
    5.9352    0.4441   20.7556 O   0  0  0  0  0  0  0  0  0  0  0  0
    5.3108    1.0380   18.2144 H   0  0  0  0  0  0  0  0  0  0  0  0
    3.8323    2.5323   21.9765 C   0  0  0  0  0  0  0  0  0  0  0  0
    4.0886    2.7371   23.4447 C   0  0  0  0  0  0  0  0  0  0  0  0
    3.7886    4.2186   23.7494 C   0  0  0  0  0  0  0  0  0  0  0  0
    5.4709    2.3774   23.8797 C   0  0  0  0  0  0  0  0  0  0  0  0
 10 11  1  0  0  0
 11 12  1  0  0  0
 11  6  1  0  0  0
  6  7  1  0  0  0
  6  8  2  0  0  0
  6  5  1  0  0  0
  5  1  1  0  0  0
  1  2  2  0  0  0
  1  3  1  0  0  0
  3 16  1  0  0  0
 16 21  1  0  0  0
 21 22  1  0  0  0
 22 23  1  0  0  0
 22 24  1  0  0  0
 16 17  1  0  0  0
 17 18  1  0  0  0
 17 19  2  0  0  0
 12 13  1  0  0  0
 12 14  1  0  0  0
 12 15  1  0  0  0
  7  9  1  0  0  0
  3  4  1  0  0  0
 18 20  1  0  0  0
M  CHG 1  12   1
M  END
> <minimizedAffinity>
-5.62360

> <CNNscore>
0.2596668005

> <CNNaffinity>
4.0204153061

> <CNN_VS>
1.0439683199

> <CNNaffinity_variance>
0.1286871135

$$$$
[H]OC(=O)[C@@]([H])(N([H])C(=O)C([H])([H])P(=O)(O[H])[C@@]([H])(C([H])([H])[H])[N+]([H])([H])[H])C([H])([H])C([H])(C([H])([H])[H])C([H])([H])[H]


 24 23  0  0  0  0  0  0  0  0999 V2000
    4.3656    3.6586   18.2699 C   0  0  0  0  0  0  0  0  0  0  0  0
    5.6027    3.6770   17.9179 O   0  0  0  0  0  0  0  0  0  0  0  0
    3.3708    3.9737   17.3482 N   0  0  0  0  0  0  0  0  0  0  0  0
    2.3590    3.9820   17.5504 H   0  0  0  0  0  0  0  0  0  0  0  0
    4.1475    3.2875   19.6767 C   0  0  0  0  0  0  0  0  0  0  0  0
    4.9997    4.4576   20.7530 P   0  0  0  0  0  0  0  0  0  0  0  0
    5.6492    5.6841   19.7690 O   0  0  0  0  0  0  0  0  0  0  0  0
    6.1030    3.7503   21.4996 O   0  0  0  0  0  0  0  0  0  0  0  0
    5.8478    6.4822   20.2964 H   0  0  0  0  0  0  0  0  0  0  0  0
    3.9362    4.4662   23.2970 C   0  0  0  0  0  0  0  0  0  0  0  0
    3.8636    5.1717   21.9806 C   0  0  0  0  0  0  0  0  0  0  0  0
    4.1715    6.5879   22.1301 N   0  0  0  0  0  0  0  0  0  0  0  0
    5.2085    6.7257   22.1716 H   0  0  0  0  0  0  0  0  0  0  0  0
    3.7644    6.9731   22.9963 H   0  0  0  0  0  0  0  0  0  0  0  0
    3.7626    7.0812   21.2983 H   0  0  0  0  0  0  0  0  0  0  0  0
    3.6943    4.3360   15.9503 C   0  0  0  0  0  0  0  0  0  0  0  0
    2.8125    5.3962   15.4738 C   0  0  0  0  0  0  0  0  0  0  0  0
    1.5739    5.6653   16.0024 O   0  0  0  0  0  0  0  0  0  0  0  0
    3.2041    6.1285   14.5014 O   0  0  0  0  0  0  0  0  0  0  0  0
    1.3215    6.5805   16.3593 H   0  0  0  0  0  0  0  0  0  0  0  0
    3.6594    3.0977   15.1225 C   0  0  0  0  0  0  0  0  0  0  0  0
    2.4136    2.2651   15.2570 C   0  0  0  0  0  0  0  0  0  0  0  0
    2.8312    0.9384   15.9227 C   0  0  0  0  0  0  0  0  0  0  0  0
    1.7072    2.0096   13.9666 C   0  0  0  0  0  0  0  0  0  0  0  0
 10 11  1  0  0  0
 11 12  1  0  0  0
 11  6  1  0  0  0
  6  7  1  0  0  0
  6  8  2  0  0  0
  6  5  1  0  0  0
  5  1  1  0  0  0
  1  2  2  0  0  0
  1  3  1  0  0  0
  3 16  1  0  0  0
 16 21  1  0  0  0
 21 22  1  0  0  0
 22 23  1  0  0  0
 22 24  1  0  0  0
 16 17  1  0  0  0
 17 18  1  0  0  0
 17 19  2  0  0  0
 12 13  1  0  0  0
 12 14  1  0  0  0
 12 15  1  0  0  0
  7  9  1  0  0  0
  3  4  1  0  0  0
 18 20  1  0  0  0
M  CHG 1  12   1
M  END
> <minimizedAffinity>
-5.87874

> <CNNscore>
0.2367668897

> <CNNaffinity>
4.0683012009

> <CNN_VS>
0.9632390141

> <CNNaffinity_variance>
0.3550812602

$$$$
[H]OC(=O)[C@@]([H])(N([H])C(=O)C([H])([H])P(=O)(O[H])[C@@]([H])(C([H])([H])[H])[N+]([H])([H])[H])C([H])([H])C([H])(C([H])([H])[H])C([H])([H])[H]


 24 23  0  0  0  0  0  0  0  0999 V2000
    3.8923    0.9006   19.9525 C   0  0  0  0  0  0  0  0  0  0  0  0
    2.6524    0.7084   20.2361 O   0  0  0  0  0  0  0  0  0  0  0  0
    4.2531    1.4400   18.7207 N   0  0  0  0  0  0  0  0  0  0  0  0
    5.2220    1.6247   18.4174 H   0  0  0  0  0  0  0  0  0  0  0  0
    4.8209    0.5049   21.0227 C   0  0  0  0  0  0  0  0  0  0  0  0
    5.6348    1.9685   21.6931 P   0  0  0  0  0  0  0  0  0  0  0  0
    5.4453    3.2264   20.5634 O   0  0  0  0  0  0  0  0  0  0  0  0
    7.0993    1.6804   21.9107 O   0  0  0  0  0  0  0  0  0  0  0  0
    5.5866    4.0957   20.9864 H   0  0  0  0  0  0  0  0  0  0  0  0
    5.7024    1.9153   24.4491 C   0  0  0  0  0  0  0  0  0  0  0  0
    4.9161    2.4471   23.2937 C   0  0  0  0  0  0  0  0  0  0  0  0
    4.8281    3.9004   23.3475 N   0  0  0  0  0  0  0  0  0  0  0  0
    5.7082    4.3259   22.9728 H   0  0  0  0  0  0  0  0  0  0  0  0
    4.6998    4.2351   24.3151 H   0  0  0  0  0  0  0  0  0  0  0  0
    4.0008    4.1804   22.7648 H   0  0  0  0  0  0  0  0  0  0  0  0
    3.2395    1.8068   17.7069 C   0  0  0  0  0  0  0  0  0  0  0  0
    2.8887    0.6531   16.8856 C   0  0  0  0  0  0  0  0  0  0  0  0
    2.4867   -0.5594   17.3900 O   0  0  0  0  0  0  0  0  0  0  0  0
    2.9569    0.7628   15.6134 O   0  0  0  0  0  0  0  0  0  0  0  0
    1.6078   -0.9930   17.1292 H   0  0  0  0  0  0  0  0  0  0  0  0
    3.7486    2.9730   16.9319 C   0  0  0  0  0  0  0  0  0  0  0  0
    2.7404    4.0547   16.6545 C   0  0  0  0  0  0  0  0  0  0  0  0
    3.1199    4.6837   15.2988 C   0  0  0  0  0  0  0  0  0  0  0  0
    2.6576    5.0999   17.7176 C   0  0  0  0  0  0  0  0  0  0  0  0
 10 11  1  0  0  0
 11 12  1  0  0  0
 11  6  1  0  0  0
  6  7  1  0  0  0
  6  8  2  0  0  0
  6  5  1  0  0  0
  5  1  1  0  0  0
  1  2  2  0  0  0
  1  3  1  0  0  0
  3 16  1  0  0  0
 16 21  1  0  0  0
 21 22  1  0  0  0
 22 23  1  0  0  0
 22 24  1  0  0  0
 16 17  1  0  0  0
 17 18  1  0  0  0
 17 19  2  0  0  0
 12 13  1  0  0  0
 12 14  1  0  0  0
 12 15  1  0  0  0
  7  9  1  0  0  0
  3  4  1  0  0  0
 18 20  1  0  0  0
M  CHG 1  12   1
M  END
> <minimizedAffinity>
-5.17017

> <CNNscore>
0.2356911302

> <CNNaffinity>
4.0029397011

> <CNN_VS>
0.9434573650

> <CNNaffinity_variance>
0.1150902510

$$$$
[H]OC(=O)[C@@]([H])(N([H])C(=O)C([H])([H])P(=O)(O[H])[C@@]([H])(C([H])([H])[H])[N+]([H])([H])[H])C([H])([H])C([H])(C([H])([H])[H])C([H])([H])[H]


 24 23  0  0  0  0  0  0  0  0999 V2000
    4.7670    5.4588   19.8042 C   0  0  0  0  0  0  0  0  0  0  0  0
    3.4921    5.2872   19.7952 O   0  0  0  0  0  0  0  0  0  0  0  0
    5.5595    4.7696   20.7182 N   0  0  0  0  0  0  0  0  0  0  0  0
    6.5856    4.8511   20.7900 H   0  0  0  0  0  0  0  0  0  0  0  0
    5.2512    6.4123   18.7940 C   0  0  0  0  0  0  0  0  0  0  0  0
    4.8541    8.0953   19.3073 P   0  0  0  0  0  0  0  0  0  0  0  0
    3.1591    8.2373   19.3412 O   0  0  0  0  0  0  0  0  0  0  0  0
    5.4392    9.0778   18.3236 O   0  0  0  0  0  0  0  0  0  0  0  0
    2.8865    8.9984   19.8899 H   0  0  0  0  0  0  0  0  0  0  0  0
    6.1508    9.8330   21.0108 C   0  0  0  0  0  0  0  0  0  0  0  0
    5.5493    8.4656   20.9466 C   0  0  0  0  0  0  0  0  0  0  0  0
    4.4975    8.3110   21.9429 N   0  0  0  0  0  0  0  0  0  0  0  0
    3.6092    8.7421   21.5947 H   0  0  0  0  0  0  0  0  0  0  0  0
    4.7483    8.7726   22.8310 H   0  0  0  0  0  0  0  0  0  0  0  0
    4.3744    7.2807   22.1032 H   0  0  0  0  0  0  0  0  0  0  0  0
    4.9742    3.8283   21.6986 C   0  0  0  0  0  0  0  0  0  0  0  0
    4.5213    4.5381   22.8900 C   0  0  0  0  0  0  0  0  0  0  0  0
    5.0602    5.7202   23.3353 O   0  0  0  0  0  0  0  0  0  0  0  0
    3.5632    4.0387   23.5741 O   0  0  0  0  0  0  0  0  0  0  0  0
    4.4994    6.5519   23.4851 H   0  0  0  0  0  0  0  0  0  0  0  0
    5.9693    2.7536   21.9721 C   0  0  0  0  0  0  0  0  0  0  0  0
    5.8432    1.5228   21.1162 C   0  0  0  0  0  0  0  0  0  0  0  0
    4.4529    0.9197   21.4011 C   0  0  0  0  0  0  0  0  0  0  0  0
    6.9157    0.5089   21.3424 C   0  0  0  0  0  0  0  0  0  0  0  0
 10 11  1  0  0  0
 11 12  1  0  0  0
 11  6  1  0  0  0
  6  7  1  0  0  0
  6  8  2  0  0  0
  6  5  1  0  0  0
  5  1  1  0  0  0
  1  2  2  0  0  0
  1  3  1  0  0  0
  3 16  1  0  0  0
 16 21  1  0  0  0
 21 22  1  0  0  0
 22 23  1  0  0  0
 22 24  1  0  0  0
 16 17  1  0  0  0
 17 18  1  0  0  0
 17 19  2  0  0  0
 12 13  1  0  0  0
 12 14  1  0  0  0
 12 15  1  0  0  0
  7  9  1  0  0  0
  3  4  1  0  0  0
 18 20  1  0  0  0
M  CHG 1  12   1
M  END
> <minimizedAffinity>
-6.61247

> <CNNscore>
0.2344636023

> <CNNaffinity>
4.1167516708

> <CNN_VS>
0.9652284384

> <CNNaffinity_variance>
0.3351752162

$$$$
[H]OC(=O)[C@@]([H])(N([H])C(=O)C([H])([H])P(=O)(O[H])[C@@]([H])(C([H])([H])[H])[N+]([H])([H])[H])C([H])([H])C([H])(C([H])([H])[H])C([H])([H])[H]


 24 23  0  0  0  0  0  0  0  0999 V2000
    5.1456    5.0679   21.0053 C   0  0  0  0  0  0  0  0  0  0  0  0
    6.3427    4.7192   21.3222 O   0  0  0  0  0  0  0  0  0  0  0  0
    4.4379    4.3485   20.0461 N   0  0  0  0  0  0  0  0  0  0  0  0
    3.4770    4.5625   19.7369 H   0  0  0  0  0  0  0  0  0  0  0  0
    4.6505    6.2452   21.7354 C   0  0  0  0  0  0  0  0  0  0  0  0
    5.1001    7.7470   20.8431 P   0  0  0  0  0  0  0  0  0  0  0  0
    6.7670    7.6701   20.5120 O   0  0  0  0  0  0  0  0  0  0  0  0
    4.7935    8.9543   21.6938 O   0  0  0  0  0  0  0  0  0  0  0  0
    7.0045    8.2811   19.7874 H   0  0  0  0  0  0  0  0  0  0  0  0
    3.6297    9.2845   19.0890 C   0  0  0  0  0  0  0  0  0  0  0  0
    4.1577    7.9009   19.2953 C   0  0  0  0  0  0  0  0  0  0  0  0
    5.0148    7.4992   18.1876 N   0  0  0  0  0  0  0  0  0  0  0  0
    5.9716    7.9063   18.3102 H   0  0  0  0  0  0  0  0  0  0  0  0
    4.6424    7.8287   17.2836 H   0  0  0  0  0  0  0  0  0  0  0  0
    5.0524    6.4499   18.1924 H   0  0  0  0  0  0  0  0  0  0  0  0
    5.0269    3.1739   19.3655 C   0  0  0  0  0  0  0  0  0  0  0  0
    5.1350    3.4088   17.9297 C   0  0  0  0  0  0  0  0  0  0  0  0
    4.6717    2.5433   16.9693 O   0  0  0  0  0  0  0  0  0  0  0  0
    5.6961    4.4842   17.5249 O   0  0  0  0  0  0  0  0  0  0  0  0
    4.0114    2.8271   16.2537 H   0  0  0  0  0  0  0  0  0  0  0  0
    4.2268    1.9700   19.7265 C   0  0  0  0  0  0  0  0  0  0  0  0
    4.4576    1.4322   21.1124 C   0  0  0  0  0  0  0  0  0  0  0  0
    5.9203    0.9475   21.1670 C   0  0  0  0  0  0  0  0  0  0  0  0
    3.5226    0.3366   21.5062 C   0  0  0  0  0  0  0  0  0  0  0  0
 10 11  1  0  0  0
 11 12  1  0  0  0
 11  6  1  0  0  0
  6  7  1  0  0  0
  6  8  2  0  0  0
  6  5  1  0  0  0
  5  1  1  0  0  0
  1  2  2  0  0  0
  1  3  1  0  0  0
  3 16  1  0  0  0
 16 21  1  0  0  0
 21 22  1  0  0  0
 22 23  1  0  0  0
 22 24  1  0  0  0
 16 17  1  0  0  0
 17 18  1  0  0  0
 17 19  2  0  0  0
 12 13  1  0  0  0
 12 14  1  0  0  0
 12 15  1  0  0  0
  7  9  1  0  0  0
  3  4  1  0  0  0
 18 20  1  0  0  0
M  CHG 1  12   1
M  END
> <minimizedAffinity>
-5.50158

> <CNNscore>
0.2316581458

> <CNNaffinity>
4.1015863419

> <CNN_VS>
0.9501658678

> <CNNaffinity_variance>
0.1953659952

$$$$
[H]OC(=O)[C@@]([H])(N([H])C(=O)C([H])([H])P(=O)(O[H])[C@@]([H])(C([H])([H])[H])[N+]([H])([H])[H])C([H])([H])C([H])(C([H])([H])[H])C([H])([H])[H]


 24 23  0  0  0  0  0  0  0  0999 V2000
    3.9601    5.7728   17.8765 C   0  0  0  0  0  0  0  0  0  0  0  0
    5.0220    5.0851   17.6434 O   0  0  0  0  0  0  0  0  0  0  0  0
    3.0134    5.9603   16.8730 N   0  0  0  0  0  0  0  0  0  0  0  0
    2.1382    6.4966   16.9790 H   0  0  0  0  0  0  0  0  0  0  0  0
    3.8767    6.3020   19.2467 C   0  0  0  0  0  0  0  0  0  0  0  0
    5.3948    7.1894   19.6488 P   0  0  0  0  0  0  0  0  0  0  0  0
    6.2568    7.4187   18.2001 O   0  0  0  0  0  0  0  0  0  0  0  0
    6.2154    6.3778   20.6199 O   0  0  0  0  0  0  0  0  0  0  0  0
    6.9117    8.1372   18.2971 H   0  0  0  0  0  0  0  0  0  0  0  0
    4.0553    9.5995   19.6345 C   0  0  0  0  0  0  0  0  0  0  0  0
    5.0342    8.7932   20.4268 C   0  0  0  0  0  0  0  0  0  0  0  0
    4.5414    8.5543   21.7769 N   0  0  0  0  0  0  0  0  0  0  0  0
    3.8580    7.7611   21.7728 H   0  0  0  0  0  0  0  0  0  0  0  0
    4.0619    9.3854   22.1562 H   0  0  0  0  0  0  0  0  0  0  0  0
    5.3751    8.3253   22.3728 H   0  0  0  0  0  0  0  0  0  0  0  0
    3.1903    5.3845   15.5214 C   0  0  0  0  0  0  0  0  0  0  0  0
    2.7420    6.3219   14.4973 C   0  0  0  0  0  0  0  0  0  0  0  0
    1.5759    7.0438   14.5695 O   0  0  0  0  0  0  0  0  0  0  0  0
    3.4703    6.4913   13.4600 O   0  0  0  0  0  0  0  0  0  0  0  0
    1.5573    8.0558   14.5054 H   0  0  0  0  0  0  0  0  0  0  0  0
    2.5039    4.0628   15.4787 C   0  0  0  0  0  0  0  0  0  0  0  0
    3.4007    2.8755   15.2563 C   0  0  0  0  0  0  0  0  0  0  0  0
    2.8103    2.0836   14.0723 C   0  0  0  0  0  0  0  0  0  0  0  0
    3.5594    1.9970   16.4532 C   0  0  0  0  0  0  0  0  0  0  0  0
 10 11  1  0  0  0
 11 12  1  0  0  0
 11  6  1  0  0  0
  6  7  1  0  0  0
  6  8  2  0  0  0
  6  5  1  0  0  0
  5  1  1  0  0  0
  1  2  2  0  0  0
  1  3  1  0  0  0
  3 16  1  0  0  0
 16 21  1  0  0  0
 21 22  1  0  0  0
 22 23  1  0  0  0
 22 24  1  0  0  0
 16 17  1  0  0  0
 17 18  1  0  0  0
 17 19  2  0  0  0
 12 13  1  0  0  0
 12 14  1  0  0  0
 12 15  1  0  0  0
  7  9  1  0  0  0
  3  4  1  0  0  0
 18 20  1  0  0  0
M  CHG 1  12   1
M  END
> <minimizedAffinity>
-5.28378

> <CNNscore>
0.2210918516

> <CNNaffinity>
3.8938841820

> <CNN_VS>
0.8609060645

> <CNNaffinity_variance>
0.1166830063

$$$$
[H]c1c([H])c([H])c(C([H])([H])[H])c(-n2nnc(C([H])([H])N(C([H])([H])C([H])(C([H])([H])[H])C([H])([H])[H])S(=O)(=O)c3c([H])c([H])c4c([H])c([H])c([H])c([H])c4c3[H])c2[H])c1[H]


 31 34  0  0  0  0  0  0  0  0999 V2000
    3.1957    2.4730   16.5368 N   0  0  0  0  0  0  0  0  0  0  0  0
    3.0542    1.0194   17.3689 S   0  0  0  0  0  0  0  0  0  0  0  0
    4.0658    0.0322   16.7700 O   0  0  0  0  0  0  0  0  0  0  0  0
    1.7428    0.3371   17.2802 O   0  0  0  0  0  0  0  0  0  0  0  0
    3.5087    1.1545   19.0657 C   0  0  0  0  0  0  0  0  0  0  0  0
    2.9540    0.3761   20.0536 C   0  0  0  0  0  0  0  0  0  0  0  0
    3.3023    0.4733   21.3828 C   0  0  0  0  0  0  0  0  0  0  0  0
    4.2658    1.4038   21.7662 C   0  0  0  0  0  0  0  0  0  0  0  0
    4.6260    1.5132   23.0976 C   0  0  0  0  0  0  0  0  0  0  0  0
    5.5840    2.4397   23.4717 C   0  0  0  0  0  0  0  0  0  0  0  0
    6.1811    3.2537   22.5271 C   0  0  0  0  0  0  0  0  0  0  0  0
    5.7964    3.1163   21.2090 C   0  0  0  0  0  0  0  0  0  0  0  0
    4.8454    2.2051   20.7943 C   0  0  0  0  0  0  0  0  0  0  0  0
    4.4659    2.0754   19.4641 C   0  0  0  0  0  0  0  0  0  0  0  0
    3.8488    2.5246   15.3078 C   0  0  0  0  0  0  0  0  0  0  0  0
    3.8365    3.9941   13.2539 C   0  0  0  0  0  0  0  0  0  0  0  0
    3.0561    3.0553   14.1517 C   0  0  0  0  0  0  0  0  0  0  0  0
    2.3854    2.0216   13.2945 C   0  0  0  0  0  0  0  0  0  0  0  0
    2.3910    3.5354   16.9769 C   0  0  0  0  0  0  0  0  0  0  0  0
    3.0811    4.7328   17.4940 C   0  0  0  0  0  0  0  0  0  0  0  0
    4.2272    5.3562   17.0526 C   0  0  0  0  0  0  0  0  0  0  0  0
    4.5087    6.4196   17.8250 N   0  0  0  0  0  0  0  0  0  0  0  0
    3.5346    6.4445   18.7369 N   0  0  0  0  0  0  0  0  0  0  0  0
    2.6832    5.4555   18.5561 N   0  0  0  0  0  0  0  0  0  0  0  0
    5.6023    7.3345   17.7136 C   0  0  0  0  0  0  0  0  0  0  0  0
    5.6208    8.2225   16.6674 C   0  0  0  0  0  0  0  0  0  0  0  0
    6.6303    9.1437   16.4729 C   0  0  0  0  0  0  0  0  0  0  0  0
    7.6590    9.1485   17.3924 C   0  0  0  0  0  0  0  0  0  0  0  0
    7.6417    8.2565   18.4445 C   0  0  0  0  0  0  0  0  0  0  0  0
    6.6269    7.3372   18.6318 C   0  0  0  0  0  0  0  0  0  0  0  0
    6.6621    6.3981   19.7874 C   0  0  0  0  0  0  0  0  0  0  0  0
 16 17  1  0  0  0
 17 18  1  0  0  0
 17 15  1  0  0  0
 15  1  1  0  0  0
  1 19  1  0  0  0
 19 20  1  0  0  0
 20 21  2  0  0  0
 21 22  1  0  0  0
 22 23  1  0  0  0
 23 24  2  0  0  0
 22 25  1  0  0  0
 25 26  2  0  0  0
 26 27  1  0  0  0
 27 28  2  0  0  0
 28 29  1  0  0  0
 29 30  2  0  0  0
 30 31  1  0  0  0
  1  2  1  0  0  0
  2  3  2  0  0  0
  2  4  2  0  0  0
  2  5  1  0  0  0
  5  6  2  0  0  0
  6  7  1  0  0  0
  7  8  2  0  0  0
  8  9  1  0  0  0
  9 10  2  0  0  0
 10 11  1  0  0  0
 11 12  2  0  0  0
 12 13  1  0  0  0
 13 14  2  0  0  0
 24 20  1  0  0  0
 30 25  1  0  0  0
 14  5  1  0  0  0
 13  8  1  0  0  0
M  END
> <minimizedAffinity>
-7.95011

> <CNNscore>
0.7115611434

> <CNNaffinity>
7.1468734741

> <CNN_VS>
5.0854372978

> <CNNaffinity_variance>
0.0697391033

$$$$
[H]c1c([H])c([H])c(C([H])([H])[H])c(-n2nnc(C([H])([H])N(C([H])([H])C([H])(C([H])([H])[H])C([H])([H])[H])S(=O)(=O)c3c([H])c([H])c4c([H])c([H])c([H])c([H])c4c3[H])c2[H])c1[H]


 31 34  0  0  0  0  0  0  0  0999 V2000
    3.1896    2.5792   16.5241 N   0  0  0  0  0  0  0  0  0  0  0  0
    3.0593    1.1157   17.3406 S   0  0  0  0  0  0  0  0  0  0  0  0
    4.0680    0.1382   16.7212 O   0  0  0  0  0  0  0  0  0  0  0  0
    1.7490    0.4310   17.2559 O   0  0  0  0  0  0  0  0  0  0  0  0
    3.5289    1.2325   19.0346 C   0  0  0  0  0  0  0  0  0  0  0  0
    3.0133    0.4155   20.0125 C   0  0  0  0  0  0  0  0  0  0  0  0
    3.3737    0.4981   21.3394 C   0  0  0  0  0  0  0  0  0  0  0  0
    4.3088    1.4538   21.7311 C   0  0  0  0  0  0  0  0  0  0  0  0
    4.6807    1.5489   23.0603 C   0  0  0  0  0  0  0  0  0  0  0  0
    5.6104    2.5006   23.4427 C   0  0  0  0  0  0  0  0  0  0  0  0
    6.1676    3.3538   22.5084 C   0  0  0  0  0  0  0  0  0  0  0  0
    5.7724    3.2295   21.1921 C   0  0  0  0  0  0  0  0  0  0  0  0
    4.8487    2.2942   20.7694 C   0  0  0  0  0  0  0  0  0  0  0  0
    4.4583    2.1781   19.4411 C   0  0  0  0  0  0  0  0  0  0  0  0
    3.8540    2.6515   15.3022 C   0  0  0  0  0  0  0  0  0  0  0  0
    3.8077    3.9775   13.1532 C   0  0  0  0  0  0  0  0  0  0  0  0
    3.0421    3.1032   14.1259 C   0  0  0  0  0  0  0  0  0  0  0  0
    2.3570    2.0144   13.3526 C   0  0  0  0  0  0  0  0  0  0  0  0
    2.3665    3.6265   16.9664 C   0  0  0  0  0  0  0  0  0  0  0  0
    3.0315    4.8802   17.3704 C   0  0  0  0  0  0  0  0  0  0  0  0
    3.3183    5.3676   18.6263 C   0  0  0  0  0  0  0  0  0  0  0  0
    3.9298    6.5612   18.5368 N   0  0  0  0  0  0  0  0  0  0  0  0
    4.0158    6.8014   17.2269 N   0  0  0  0  0  0  0  0  0  0  0  0
    3.4901    5.8191   16.5238 N   0  0  0  0  0  0  0  0  0  0  0  0
    4.3936    7.4038   19.5952 C   0  0  0  0  0  0  0  0  0  0  0  0
    5.0391    6.8332   20.6634 C   0  0  0  0  0  0  0  0  0  0  0  0
    5.5233    7.5598   21.7327 C   0  0  0  0  0  0  0  0  0  0  0  0
    5.3342    8.9260   21.6980 C   0  0  0  0  0  0  0  0  0  0  0  0
    4.6856    9.5010   20.6248 C   0  0  0  0  0  0  0  0  0  0  0  0
    4.2037    8.7660   19.5583 C   0  0  0  0  0  0  0  0  0  0  0  0
    3.5107    9.4423   18.4264 C   0  0  0  0  0  0  0  0  0  0  0  0
 16 17  1  0  0  0
 17 18  1  0  0  0
 17 15  1  0  0  0
 15  1  1  0  0  0
  1 19  1  0  0  0
 19 20  1  0  0  0
 20 21  2  0  0  0
 21 22  1  0  0  0
 22 23  1  0  0  0
 23 24  2  0  0  0
 22 25  1  0  0  0
 25 26  2  0  0  0
 26 27  1  0  0  0
 27 28  2  0  0  0
 28 29  1  0  0  0
 29 30  2  0  0  0
 30 31  1  0  0  0
  1  2  1  0  0  0
  2  3  2  0  0  0
  2  4  2  0  0  0
  2  5  1  0  0  0
  5  6  2  0  0  0
  6  7  1  0  0  0
  7  8  2  0  0  0
  8  9  1  0  0  0
  9 10  2  0  0  0
 10 11  1  0  0  0
 11 12  2  0  0  0
 12 13  1  0  0  0
 13 14  2  0  0  0
 24 20  1  0  0  0
 30 25  1  0  0  0
 14  5  1  0  0  0
 13  8  1  0  0  0
M  END
> <minimizedAffinity>
-8.91026

> <CNNscore>
0.4891725779

> <CNNaffinity>
6.8341164589

> <CNN_VS>
3.3430624008

> <CNNaffinity_variance>
0.1264864951

$$$$
[H]c1c([H])c([H])c(C([H])([H])[H])c(-n2nnc(C([H])([H])N(C([H])([H])C([H])(C([H])([H])[H])C([H])([H])[H])S(=O)(=O)c3c([H])c([H])c4c([H])c([H])c([H])c([H])c4c3[H])c2[H])c1[H]


 31 34  0  0  0  0  0  0  0  0999 V2000
    3.8831    4.0172   15.6368 N   0  0  0  0  0  0  0  0  0  0  0  0
    2.9616    5.3013   16.2091 S   0  0  0  0  0  0  0  0  0  0  0  0
    1.9104    4.7349   17.1738 O   0  0  0  0  0  0  0  0  0  0  0  0
    2.1936    6.0609   15.1962 O   0  0  0  0  0  0  0  0  0  0  0  0
    3.8966    6.4362   17.1795 C   0  0  0  0  0  0  0  0  0  0  0  0
    3.6340    6.6803   18.5065 C   0  0  0  0  0  0  0  0  0  0  0  0
    4.3587    7.5651   19.2742 C   0  0  0  0  0  0  0  0  0  0  0  0
    5.4179    8.2591   18.6931 C   0  0  0  0  0  0  0  0  0  0  0  0
    6.1550    9.1512   19.4514 C   0  0  0  0  0  0  0  0  0  0  0  0
    7.2062    9.8374   18.8679 C   0  0  0  0  0  0  0  0  0  0  0  0
    7.5230    9.6380   17.5370 C   0  0  0  0  0  0  0  0  0  0  0  0
    6.7656    8.7406   16.8122 C   0  0  0  0  0  0  0  0  0  0  0  0
    5.7097    8.0363   17.3560 C   0  0  0  0  0  0  0  0  0  0  0  0
    4.9539    7.1350   16.6165 C   0  0  0  0  0  0  0  0  0  0  0  0
    3.7155    3.5502   14.3354 C   0  0  0  0  0  0  0  0  0  0  0  0
    2.3909    2.2147   12.6502 C   0  0  0  0  0  0  0  0  0  0  0  0
    2.5050    2.7040   14.0799 C   0  0  0  0  0  0  0  0  0  0  0  0
    2.3245    1.5331   15.0017 C   0  0  0  0  0  0  0  0  0  0  0  0
    4.9999    3.6484   16.4028 C   0  0  0  0  0  0  0  0  0  0  0  0
    4.7399    3.0046   17.7049 C   0  0  0  0  0  0  0  0  0  0  0  0
    5.0668    3.4149   18.9784 C   0  0  0  0  0  0  0  0  0  0  0  0
    4.6431    2.5156   19.8830 N   0  0  0  0  0  0  0  0  0  0  0  0
    4.0582    1.5575   19.1613 N   0  0  0  0  0  0  0  0  0  0  0  0
    4.1064    1.8303   17.8733 N   0  0  0  0  0  0  0  0  0  0  0  0
    4.7778    2.5554   21.3063 C   0  0  0  0  0  0  0  0  0  0  0  0
    3.9572    3.3857   22.0277 C   0  0  0  0  0  0  0  0  0  0  0  0
    4.0093    3.4952   23.4028 C   0  0  0  0  0  0  0  0  0  0  0  0
    4.9432    2.7189   24.0576 C   0  0  0  0  0  0  0  0  0  0  0  0
    5.7688    1.8838   23.3337 C   0  0  0  0  0  0  0  0  0  0  0  0
    5.7100    1.7802   21.9568 C   0  0  0  0  0  0  0  0  0  0  0  0
    6.6280    0.8606   21.2285 C   0  0  0  0  0  0  0  0  0  0  0  0
 16 17  1  0  0  0
 17 18  1  0  0  0
 17 15  1  0  0  0
 15  1  1  0  0  0
  1 19  1  0  0  0
 19 20  1  0  0  0
 20 21  2  0  0  0
 21 22  1  0  0  0
 22 23  1  0  0  0
 23 24  2  0  0  0
 22 25  1  0  0  0
 25 26  2  0  0  0
 26 27  1  0  0  0
 27 28  2  0  0  0
 28 29  1  0  0  0
 29 30  2  0  0  0
 30 31  1  0  0  0
  1  2  1  0  0  0
  2  3  2  0  0  0
  2  4  2  0  0  0
  2  5  1  0  0  0
  5  6  2  0  0  0
  6  7  1  0  0  0
  7  8  2  0  0  0
  8  9  1  0  0  0
  9 10  2  0  0  0
 10 11  1  0  0  0
 11 12  2  0  0  0
 12 13  1  0  0  0
 13 14  2  0  0  0
 24 20  1  0  0  0
 30 25  1  0  0  0
 14  5  1  0  0  0
 13  8  1  0  0  0
M  END
> <minimizedAffinity>
-8.17601

> <CNNscore>
0.4712845981

> <CNNaffinity>
6.6251382828

> <CNN_VS>
3.1223256588

> <CNNaffinity_variance>
0.3425855637

$$$$
[H]c1c([H])c([H])c(C([H])([H])[H])c(-n2nnc(C([H])([H])N(C([H])([H])C([H])(C([H])([H])[H])C([H])([H])[H])S(=O)(=O)c3c([H])c([H])c4c([H])c([H])c([H])c([H])c4c3[H])c2[H])c1[H]


 31 34  0  0  0  0  0  0  0  0999 V2000
    6.0473    7.1542   20.4721 N   0  0  0  0  0  0  0  0  0  0  0  0
    6.5724    6.2217   21.7683 S   0  0  0  0  0  0  0  0  0  0  0  0
    6.4003    7.0524   23.0478 O   0  0  0  0  0  0  0  0  0  0  0  0
    7.9973    5.8187   21.7526 O   0  0  0  0  0  0  0  0  0  0  0  0
    5.5812    4.7882   22.0266 C   0  0  0  0  0  0  0  0  0  0  0  0
    4.5059    4.7658   22.8827 C   0  0  0  0  0  0  0  0  0  0  0  0
    3.7244    3.6509   23.0917 C   0  0  0  0  0  0  0  0  0  0  0  0
    4.0235    2.4740   22.4087 C   0  0  0  0  0  0  0  0  0  0  0  0
    3.2477    1.3459   22.6083 C   0  0  0  0  0  0  0  0  0  0  0  0
    3.5503    0.1798   21.9264 C   0  0  0  0  0  0  0  0  0  0  0  0
    4.6190    0.1352   21.0505 C   0  0  0  0  0  0  0  0  0  0  0  0
    5.3702    1.2797   20.8770 C   0  0  0  0  0  0  0  0  0  0  0  0
    5.1020    2.4624   21.5373 C   0  0  0  0  0  0  0  0  0  0  0  0
    5.8653    3.6088   21.3548 C   0  0  0  0  0  0  0  0  0  0  0  0
    6.8864    8.1071   19.8997 C   0  0  0  0  0  0  0  0  0  0  0  0
    5.5046    9.8374   21.1144 C   0  0  0  0  0  0  0  0  0  0  0  0
    6.8419    9.4813   20.4968 C   0  0  0  0  0  0  0  0  0  0  0  0
    7.9247    9.7944   21.4880 C   0  0  0  0  0  0  0  0  0  0  0  0
    4.8764    6.7334   19.8226 C   0  0  0  0  0  0  0  0  0  0  0  0
    5.0325    5.7914   18.6976 C   0  0  0  0  0  0  0  0  0  0  0  0
    4.0789    5.1720   17.9203 C   0  0  0  0  0  0  0  0  0  0  0  0
    4.6635    4.3807   17.0044 N   0  0  0  0  0  0  0  0  0  0  0  0
    5.9728    4.5176   17.2233 N   0  0  0  0  0  0  0  0  0  0  0  0
    6.2083    5.3469   18.2195 N   0  0  0  0  0  0  0  0  0  0  0  0
    4.0415    3.5649   16.0079 C   0  0  0  0  0  0  0  0  0  0  0  0
    3.8330    4.0887   14.7567 C   0  0  0  0  0  0  0  0  0  0  0  0
    3.2416    3.3828   13.7284 C   0  0  0  0  0  0  0  0  0  0  0  0
    2.8507    2.0881   14.0017 C   0  0  0  0  0  0  0  0  0  0  0  0
    3.0597    1.5603   15.2590 C   0  0  0  0  0  0  0  0  0  0  0  0
    3.6527    2.2742   16.2830 C   0  0  0  0  0  0  0  0  0  0  0  0
    3.8523    1.6512   17.6212 C   0  0  0  0  0  0  0  0  0  0  0  0
 16 17  1  0  0  0
 17 18  1  0  0  0
 17 15  1  0  0  0
 15  1  1  0  0  0
  1 19  1  0  0  0
 19 20  1  0  0  0
 20 21  2  0  0  0
 21 22  1  0  0  0
 22 23  1  0  0  0
 23 24  2  0  0  0
 22 25  1  0  0  0
 25 26  2  0  0  0
 26 27  1  0  0  0
 27 28  2  0  0  0
 28 29  1  0  0  0
 29 30  2  0  0  0
 30 31  1  0  0  0
  1  2  1  0  0  0
  2  3  2  0  0  0
  2  4  2  0  0  0
  2  5  1  0  0  0
  5  6  2  0  0  0
  6  7  1  0  0  0
  7  8  2  0  0  0
  8  9  1  0  0  0
  9 10  2  0  0  0
 10 11  1  0  0  0
 11 12  2  0  0  0
 12 13  1  0  0  0
 13 14  2  0  0  0
 24 20  1  0  0  0
 30 25  1  0  0  0
 14  5  1  0  0  0
 13  8  1  0  0  0
M  END
> <minimizedAffinity>
-9.12070

> <CNNscore>
0.3756129742

> <CNNaffinity>
6.4449744225

> <CNN_VS>
2.4208159447

> <CNNaffinity_variance>
0.3139656186

$$$$
[H]c1c([H])c([H])c(C([H])([H])[H])c(-n2nnc(C([H])([H])N(C([H])([H])C([H])(C([H])([H])[H])C([H])([H])[H])S(=O)(=O)c3c([H])c([H])c4c([H])c([H])c([H])c([H])c4c3[H])c2[H])c1[H]


 31 34  0  0  0  0  0  0  0  0999 V2000
    4.3658    3.9455   16.7869 N   0  0  0  0  0  0  0  0  0  0  0  0
    3.6917    2.4930   17.2982 S   0  0  0  0  0  0  0  0  0  0  0  0
    4.4648    1.3508   16.6243 O   0  0  0  0  0  0  0  0  0  0  0  0
    2.2720    2.2671   16.9428 O   0  0  0  0  0  0  0  0  0  0  0  0
    3.8943    2.2146   19.0260 C   0  0  0  0  0  0  0  0  0  0  0  0
    3.9223    0.9585   19.5837 C   0  0  0  0  0  0  0  0  0  0  0  0
    4.0805    0.7297   20.9328 C   0  0  0  0  0  0  0  0  0  0  0  0
    4.2211    1.8158   21.7941 C   0  0  0  0  0  0  0  0  0  0  0  0
    4.3806    1.6019   23.1517 C   0  0  0  0  0  0  0  0  0  0  0  0
    4.5199    2.6854   24.0018 C   0  0  0  0  0  0  0  0  0  0  0  0
    4.5005    3.9755   23.5050 C   0  0  0  0  0  0  0  0  0  0  0  0
    4.3393    4.1500   22.1457 C   0  0  0  0  0  0  0  0  0  0  0  0
    4.1972    3.0968   21.2640 C   0  0  0  0  0  0  0  0  0  0  0  0
    4.0356    3.2845   19.8969 C   0  0  0  0  0  0  0  0  0  0  0  0
    3.5516    5.0238   16.4494 C   0  0  0  0  0  0  0  0  0  0  0  0
    2.7370    6.4300   14.5161 C   0  0  0  0  0  0  0  0  0  0  0  0
    3.0077    5.0388   15.0526 C   0  0  0  0  0  0  0  0  0  0  0  0
    3.8101    4.2817   14.0348 C   0  0  0  0  0  0  0  0  0  0  0  0
    5.7431    4.1135   16.9983 C   0  0  0  0  0  0  0  0  0  0  0  0
    6.1650    5.2917   17.7802 C   0  0  0  0  0  0  0  0  0  0  0  0
    5.7550    5.7261   19.0213 C   0  0  0  0  0  0  0  0  0  0  0  0
    6.3965    6.8587   19.3562 N   0  0  0  0  0  0  0  0  0  0  0  0
    7.1973    7.1147   18.3198 N   0  0  0  0  0  0  0  0  0  0  0  0
    7.0732    6.1994   17.3804 N   0  0  0  0  0  0  0  0  0  0  0  0
    6.2662    7.6340   20.5509 C   0  0  0  0  0  0  0  0  0  0  0  0
    5.4655    8.7485   20.5349 C   0  0  0  0  0  0  0  0  0  0  0  0
    5.2751    9.5608   21.6346 C   0  0  0  0  0  0  0  0  0  0  0  0
    5.9358    9.2099   22.7939 C   0  0  0  0  0  0  0  0  0  0  0  0
    6.7410    8.0899   22.8114 C   0  0  0  0  0  0  0  0  0  0  0  0
    6.9262    7.2820   21.7056 C   0  0  0  0  0  0  0  0  0  0  0  0
    7.8085    6.0844   21.7842 C   0  0  0  0  0  0  0  0  0  0  0  0
 16 17  1  0  0  0
 17 18  1  0  0  0
 17 15  1  0  0  0
 15  1  1  0  0  0
  1 19  1  0  0  0
 19 20  1  0  0  0
 20 21  2  0  0  0
 21 22  1  0  0  0
 22 23  1  0  0  0
 23 24  2  0  0  0
 22 25  1  0  0  0
 25 26  2  0  0  0
 26 27  1  0  0  0
 27 28  2  0  0  0
 28 29  1  0  0  0
 29 30  2  0  0  0
 30 31  1  0  0  0
  1  2  1  0  0  0
  2  3  2  0  0  0
  2  4  2  0  0  0
  2  5  1  0  0  0
  5  6  2  0  0  0
  6  7  1  0  0  0
  7  8  2  0  0  0
  8  9  1  0  0  0
  9 10  2  0  0  0
 10 11  1  0  0  0
 11 12  2  0  0  0
 12 13  1  0  0  0
 13 14  2  0  0  0
 24 20  1  0  0  0
 30 25  1  0  0  0
 14  5  1  0  0  0
 13  8  1  0  0  0
M  END
> <minimizedAffinity>
-7.25526

> <CNNscore>
0.3476453424

> <CNNaffinity>
6.5109815598

> <CNN_VS>
2.2635123730

> <CNNaffinity_variance>
0.1485833526

$$$$
[H]c1c([H])c([H])c(C([H])([H])[H])c(-n2nnc(C([H])([H])N(C([H])([H])C([H])(C([H])([H])[H])C([H])([H])[H])S(=O)(=O)c3c([H])c([H])c4c([H])c([H])c([H])c([H])c4c3[H])c2[H])c1[H]


 31 34  0  0  0  0  0  0  0  0999 V2000
    7.0730    7.4127   20.5827 N   0  0  0  0  0  0  0  0  0  0  0  0
    7.3976    6.3651   21.8565 S   0  0  0  0  0  0  0  0  0  0  0  0
    7.2747    7.1598   23.1642 O   0  0  0  0  0  0  0  0  0  0  0  0
    8.7529    5.7691   21.8872 O   0  0  0  0  0  0  0  0  0  0  0  0
    6.2076    5.0742   22.0018 C   0  0  0  0  0  0  0  0  0  0  0  0
    4.9486    5.2710   22.5172 C   0  0  0  0  0  0  0  0  0  0  0  0
    4.0107    4.2690   22.6349 C   0  0  0  0  0  0  0  0  0  0  0  0
    4.3362    2.9811   22.2149 C   0  0  0  0  0  0  0  0  0  0  0  0
    3.4048    1.9642   22.3269 C   0  0  0  0  0  0  0  0  0  0  0  0
    3.7347    0.6869   21.9075 C   0  0  0  0  0  0  0  0  0  0  0  0
    4.9846    0.4216   21.3796 C   0  0  0  0  0  0  0  0  0  0  0  0
    5.8876    1.4606   21.2835 C   0  0  0  0  0  0  0  0  0  0  0  0
    5.5983    2.7482   21.6900 C   0  0  0  0  0  0  0  0  0  0  0  0
    6.5156    3.7868   21.5884 C   0  0  0  0  0  0  0  0  0  0  0  0
    7.0875    8.7915   20.7787 C   0  0  0  0  0  0  0  0  0  0  0  0
    5.1024    9.8374   19.6193 C   0  0  0  0  0  0  0  0  0  0  0  0
    5.7540    9.4583   20.9339 C   0  0  0  0  0  0  0  0  0  0  0  0
    4.7504    8.7174   21.7687 C   0  0  0  0  0  0  0  0  0  0  0  0
    7.0849    6.8624   19.2916 C   0  0  0  0  0  0  0  0  0  0  0  0
    5.9195    6.0479   18.8965 C   0  0  0  0  0  0  0  0  0  0  0  0
    5.8648    4.8263   18.2628 C   0  0  0  0  0  0  0  0  0  0  0  0
    4.5873    4.4469   18.0873 N   0  0  0  0  0  0  0  0  0  0  0  0
    3.8636    5.4369   18.6137 N   0  0  0  0  0  0  0  0  0  0  0  0
    4.6344    6.3903   19.0960 N   0  0  0  0  0  0  0  0  0  0  0  0
    4.0906    3.2534   17.4756 C   0  0  0  0  0  0  0  0  0  0  0  0
    3.9739    2.1170   18.2361 C   0  0  0  0  0  0  0  0  0  0  0  0
    3.5058    0.9172   17.7391 C   0  0  0  0  0  0  0  0  0  0  0  0
    3.1448    0.8893   16.4077 C   0  0  0  0  0  0  0  0  0  0  0  0
    3.2617    2.0309   15.6421 C   0  0  0  0  0  0  0  0  0  0  0  0
    3.7314    3.2282   16.1478 C   0  0  0  0  0  0  0  0  0  0  0  0
    3.8358    4.4289   15.2724 C   0  0  0  0  0  0  0  0  0  0  0  0
 16 17  1  0  0  0
 17 18  1  0  0  0
 17 15  1  0  0  0
 15  1  1  0  0  0
  1 19  1  0  0  0
 19 20  1  0  0  0
 20 21  2  0  0  0
 21 22  1  0  0  0
 22 23  1  0  0  0
 23 24  2  0  0  0
 22 25  1  0  0  0
 25 26  2  0  0  0
 26 27  1  0  0  0
 27 28  2  0  0  0
 28 29  1  0  0  0
 29 30  2  0  0  0
 30 31  1  0  0  0
  1  2  1  0  0  0
  2  3  2  0  0  0
  2  4  2  0  0  0
  2  5  1  0  0  0
  5  6  2  0  0  0
  6  7  1  0  0  0
  7  8  2  0  0  0
  8  9  1  0  0  0
  9 10  2  0  0  0
 10 11  1  0  0  0
 11 12  2  0  0  0
 12 13  1  0  0  0
 13 14  2  0  0  0
 24 20  1  0  0  0
 30 25  1  0  0  0
 14  5  1  0  0  0
 13  8  1  0  0  0
M  END
> <minimizedAffinity>
-8.87251

> <CNNscore>
0.2943659127

> <CNNaffinity>
6.4496750832

> <CNN_VS>
1.8985644579

> <CNNaffinity_variance>
0.2743442059

$$$$
[H]c1c([H])c([H])c(C([H])([H])[H])c(-n2nnc(C([H])([H])N(C([H])([H])C([H])(C([H])([H])[H])C([H])([H])[H])S(=O)(=O)c3c([H])c([H])c4c([H])c([H])c([H])c([H])c4c3[H])c2[H])c1[H]


 31 34  0  0  0  0  0  0  0  0999 V2000
    1.7376    5.0854   11.7495 N   0  0  0  0  0  0  0  0  0  0  0  0
    2.3589    3.5343   11.9324 S   0  0  0  0  0  0  0  0  0  0  0  0
    3.6006    3.4145   11.0377 O   0  0  0  0  0  0  0  0  0  0  0  0
    1.4734    2.4200   11.5233 O   0  0  0  0  0  0  0  0  0  0  0  0
    2.9479    3.2203   13.5629 C   0  0  0  0  0  0  0  0  0  0  0  0
    3.7541    4.0969   14.2494 C   0  0  0  0  0  0  0  0  0  0  0  0
    4.2198    3.8615   15.5242 C   0  0  0  0  0  0  0  0  0  0  0  0
    3.8662    2.6781   16.1688 C   0  0  0  0  0  0  0  0  0  0  0  0
    4.3263    2.4275   17.4493 C   0  0  0  0  0  0  0  0  0  0  0  0
    3.9710    1.2497   18.0841 C   0  0  0  0  0  0  0  0  0  0  0  0
    3.1625    0.3254   17.4491 C   0  0  0  0  0  0  0  0  0  0  0  0
    2.7229    0.6095   16.1723 C   0  0  0  0  0  0  0  0  0  0  0  0
    3.0539    1.7718   15.5043 C   0  0  0  0  0  0  0  0  0  0  0  0
    2.6053    2.0474   14.2186 C   0  0  0  0  0  0  0  0  0  0  0  0
    0.3666    5.3139   11.8379 C   0  0  0  0  0  0  0  0  0  0  0  0
   -1.5869    6.4456   12.9699 C   0  0  0  0  0  0  0  0  0  0  0  0
   -0.0819    6.2906   12.8827 C   0  0  0  0  0  0  0  0  0  0  0  0
    0.4554    6.0563   14.2645 C   0  0  0  0  0  0  0  0  0  0  0  0
    2.6557    6.1456   11.8036 C   0  0  0  0  0  0  0  0  0  0  0  0
    2.7003    7.0569   10.6438 C   0  0  0  0  0  0  0  0  0  0  0  0
    3.6181    7.1465    9.6207 C   0  0  0  0  0  0  0  0  0  0  0  0
    3.2772    8.1306    8.7710 N   0  0  0  0  0  0  0  0  0  0  0  0
    2.1521    8.6408    9.2759 N   0  0  0  0  0  0  0  0  0  0  0  0
    1.7974    8.0185   10.3817 N   0  0  0  0  0  0  0  0  0  0  0  0
    3.9538    8.5545    7.5844 C   0  0  0  0  0  0  0  0  0  0  0  0
    5.0482    9.3742    7.7013 C   0  0  0  0  0  0  0  0  0  0  0  0
    5.7679    9.8367    6.6179 C   0  0  0  0  0  0  0  0  0  0  0  0
    5.3420    9.4385    5.3674 C   0  0  0  0  0  0  0  0  0  0  0  0
    4.2420    8.6145    5.2485 C   0  0  0  0  0  0  0  0  0  0  0  0
    3.5270    8.1560    6.3386 C   0  0  0  0  0  0  0  0  0  0  0  0
    2.3465    7.2677    6.1484 C   0  0  0  0  0  0  0  0  0  0  0  0
 16 17  1  0  0  0
 17 18  1  0  0  0
 17 15  1  0  0  0
 15  1  1  0  0  0
  1 19  1  0  0  0
 19 20  1  0  0  0
 20 21  2  0  0  0
 21 22  1  0  0  0
 22 23  1  0  0  0
 23 24  2  0  0  0
 22 25  1  0  0  0
 25 26  2  0  0  0
 26 27  1  0  0  0
 27 28  2  0  0  0
 28 29  1  0  0  0
 29 30  2  0  0  0
 30 31  1  0  0  0
  1  2  1  0  0  0
  2  3  2  0  0  0
  2  4  2  0  0  0
  2  5  1  0  0  0
  5  6  2  0  0  0
  6  7  1  0  0  0
  7  8  2  0  0  0
  8  9  1  0  0  0
  9 10  2  0  0  0
 10 11  1  0  0  0
 11 12  2  0  0  0
 12 13  1  0  0  0
 13 14  2  0  0  0
 24 20  1  0  0  0
 30 25  1  0  0  0
 14  5  1  0  0  0
 13  8  1  0  0  0
M  END
> <minimizedAffinity>
-7.80263

> <CNNscore>
0.2539465725

> <CNNaffinity>
5.4921073914

> <CNN_VS>
1.3947018385

> <CNNaffinity_variance>
0.1060999781

$$$$
[H]c1c([H])c([H])c(C([H])([H])[H])c(-n2nnc(C([H])([H])N(C([H])([H])C([H])(C([H])([H])[H])C([H])([H])[H])S(=O)(=O)c3c([H])c([H])c4c([H])c([H])c([H])c([H])c4c3[H])c2[H])c1[H]


 31 34  0  0  0  0  0  0  0  0999 V2000
    6.4188    7.9143   18.6880 N   0  0  0  0  0  0  0  0  0  0  0  0
    7.0586    7.5607   20.2017 S   0  0  0  0  0  0  0  0  0  0  0  0
    7.0098    8.8420   21.0458 O   0  0  0  0  0  0  0  0  0  0  0  0
    8.4742    7.1270   20.2310 O   0  0  0  0  0  0  0  0  0  0  0  0
    6.0901    6.3942   21.0990 C   0  0  0  0  0  0  0  0  0  0  0  0
    4.7782    6.6176   21.4433 C   0  0  0  0  0  0  0  0  0  0  0  0
    4.0120    5.7125   22.1442 C   0  0  0  0  0  0  0  0  0  0  0  0
    4.5788    4.5008   22.5340 C   0  0  0  0  0  0  0  0  0  0  0  0
    3.8219    3.5817   23.2386 C   0  0  0  0  0  0  0  0  0  0  0  0
    4.3911    2.3797   23.6227 C   0  0  0  0  0  0  0  0  0  0  0  0
    5.7064    2.0928   23.3080 C   0  0  0  0  0  0  0  0  0  0  0  0
    6.4303    3.0336   22.6044 C   0  0  0  0  0  0  0  0  0  0  0  0
    5.9005    4.2438   22.2027 C   0  0  0  0  0  0  0  0  0  0  0  0
    6.6389    5.1836   21.4944 C   0  0  0  0  0  0  0  0  0  0  0  0
    6.1561    9.2318   18.3206 C   0  0  0  0  0  0  0  0  0  0  0  0
    4.0130    9.3072   16.9867 C   0  0  0  0  0  0  0  0  0  0  0  0
    4.7146    9.6414   18.2876 C   0  0  0  0  0  0  0  0  0  0  0  0
    3.8719    9.1452   19.4263 C   0  0  0  0  0  0  0  0  0  0  0  0
    6.4443    6.8854   17.7337 C   0  0  0  0  0  0  0  0  0  0  0  0
    5.3609    5.8853   17.7935 C   0  0  0  0  0  0  0  0  0  0  0  0
    5.3683    4.5486   17.4617 C   0  0  0  0  0  0  0  0  0  0  0  0
    4.1536    4.0096   17.6634 N   0  0  0  0  0  0  0  0  0  0  0  0
    3.4061    5.0174   18.1180 N   0  0  0  0  0  0  0  0  0  0  0  0
    4.1033    6.1321   18.2009 N   0  0  0  0  0  0  0  0  0  0  0  0
    3.7328    2.6601   17.4464 C   0  0  0  0  0  0  0  0  0  0  0  0
    3.2172    2.3143   16.2225 C   0  0  0  0  0  0  0  0  0  0  0  0
    2.7842    1.0401   15.9150 C   0  0  0  0  0  0  0  0  0  0  0  0
    2.8870    0.0875   16.9078 C   0  0  0  0  0  0  0  0  0  0  0  0
    3.4050    0.4337   18.1385 C   0  0  0  0  0  0  0  0  0  0  0  0
    3.8363    1.7120   18.4381 C   0  0  0  0  0  0  0  0  0  0  0  0
    4.3870    2.0272   19.7857 C   0  0  0  0  0  0  0  0  0  0  0  0
 16 17  1  0  0  0
 17 18  1  0  0  0
 17 15  1  0  0  0
 15  1  1  0  0  0
  1 19  1  0  0  0
 19 20  1  0  0  0
 20 21  2  0  0  0
 21 22  1  0  0  0
 22 23  1  0  0  0
 23 24  2  0  0  0
 22 25  1  0  0  0
 25 26  2  0  0  0
 26 27  1  0  0  0
 27 28  2  0  0  0
 28 29  1  0  0  0
 29 30  2  0  0  0
 30 31  1  0  0  0
  1  2  1  0  0  0
  2  3  2  0  0  0
  2  4  2  0  0  0
  2  5  1  0  0  0
  5  6  2  0  0  0
  6  7  1  0  0  0
  7  8  2  0  0  0
  8  9  1  0  0  0
  9 10  2  0  0  0
 10 11  1  0  0  0
 11 12  2  0  0  0
 12 13  1  0  0  0
 13 14  2  0  0  0
 24 20  1  0  0  0
 30 25  1  0  0  0
 14  5  1  0  0  0
 13  8  1  0  0  0
M  END
> <minimizedAffinity>
-8.78849

> <CNNscore>
0.2520234585

> <CNNaffinity>
6.3674273491

> <CNN_VS>
1.6047410965

> <CNNaffinity_variance>
0.3129065335

$$$$
[H]c1c([H])c([H])c(C([H])([H])[H])c(-n2nnc(C([H])([H])N(C([H])([H])C([H])(C([H])([H])[H])C([H])([H])[H])S(=O)(=O)c3c([H])c([H])c4c([H])c([H])c([H])c([H])c4c3[H])c2[H])c1[H]


 31 34  0  0  0  0  0  0  0  0999 V2000
    4.3425    6.5744   18.2150 N   0  0  0  0  0  0  0  0  0  0  0  0
    5.5710    5.5095   18.6420 S   0  0  0  0  0  0  0  0  0  0  0  0
    6.2190    6.0297   19.9328 O   0  0  0  0  0  0  0  0  0  0  0  0
    6.6837    5.3691   17.6750 O   0  0  0  0  0  0  0  0  0  0  0  0
    4.9732    3.9044   19.0547 C   0  0  0  0  0  0  0  0  0  0  0  0
    4.7623    2.9205   18.1182 C   0  0  0  0  0  0  0  0  0  0  0  0
    4.2956    1.6625   18.4300 C   0  0  0  0  0  0  0  0  0  0  0  0
    4.0168    1.3516   19.7592 C   0  0  0  0  0  0  0  0  0  0  0  0
    3.5475    0.0923   20.0879 C   0  0  0  0  0  0  0  0  0  0  0  0
    3.2726   -0.2102   21.4105 C   0  0  0  0  0  0  0  0  0  0  0  0
    3.4632    0.7347   22.4016 C   0  0  0  0  0  0  0  0  0  0  0  0
    3.9324    1.9798   22.0361 C   0  0  0  0  0  0  0  0  0  0  0  0
    4.2187    2.3216   20.7292 C   0  0  0  0  0  0  0  0  0  0  0  0
    4.6909    3.5787   20.3727 C   0  0  0  0  0  0  0  0  0  0  0  0
    3.7434    7.3860   19.1753 C   0  0  0  0  0  0  0  0  0  0  0  0
    3.2621    9.8368   18.8010 C   0  0  0  0  0  0  0  0  0  0  0  0
    4.2530    8.7922   19.2737 C   0  0  0  0  0  0  0  0  0  0  0  0
    4.7733    9.2019   20.6208 C   0  0  0  0  0  0  0  0  0  0  0  0
    4.1634    6.8176   16.8443 C   0  0  0  0  0  0  0  0  0  0  0  0
    3.2775    5.8957   16.1075 C   0  0  0  0  0  0  0  0  0  0  0  0
    3.3687    5.4177   14.8190 C   0  0  0  0  0  0  0  0  0  0  0  0
    2.3360    4.6010   14.5486 N   0  0  0  0  0  0  0  0  0  0  0  0
    1.6155    4.5811   15.6718 N   0  0  0  0  0  0  0  0  0  0  0  0
    2.1572    5.3402   16.6024 N   0  0  0  0  0  0  0  0  0  0  0  0
    2.0519    3.8990   13.3354 C   0  0  0  0  0  0  0  0  0  0  0  0
    1.5099    4.5894   12.2805 C   0  0  0  0  0  0  0  0  0  0  0  0
    1.2006    4.0031   11.0697 C   0  0  0  0  0  0  0  0  0  0  0  0
    1.4603    2.6539   10.9430 C   0  0  0  0  0  0  0  0  0  0  0  0
    2.0052    1.9587   12.0026 C   0  0  0  0  0  0  0  0  0  0  0  0
    2.3119    2.5537   13.2117 C   0  0  0  0  0  0  0  0  0  0  0  0
    2.8990    1.7515   14.3210 C   0  0  0  0  0  0  0  0  0  0  0  0
 16 17  1  0  0  0
 17 18  1  0  0  0
 17 15  1  0  0  0
 15  1  1  0  0  0
  1 19  1  0  0  0
 19 20  1  0  0  0
 20 21  2  0  0  0
 21 22  1  0  0  0
 22 23  1  0  0  0
 23 24  2  0  0  0
 22 25  1  0  0  0
 25 26  2  0  0  0
 26 27  1  0  0  0
 27 28  2  0  0  0
 28 29  1  0  0  0
 29 30  2  0  0  0
 30 31  1  0  0  0
  1  2  1  0  0  0
  2  3  2  0  0  0
  2  4  2  0  0  0
  2  5  1  0  0  0
  5  6  2  0  0  0
  6  7  1  0  0  0
  7  8  2  0  0  0
  8  9  1  0  0  0
  9 10  2  0  0  0
 10 11  1  0  0  0
 11 12  2  0  0  0
 12 13  1  0  0  0
 13 14  2  0  0  0
 24 20  1  0  0  0
 30 25  1  0  0  0
 14  5  1  0  0  0
 13  8  1  0  0  0
M  END
> <minimizedAffinity>
-8.71942

> <CNNscore>
0.2508015633

> <CNNaffinity>
6.5513982773

> <CNN_VS>
1.6431009769

> <CNNaffinity_variance>
0.1409055144

$$$$
[H]c1c([H])c(OC([H])([H])C([H])([H])C([H])([H])n2c(=O)c(OC3([H])C([H])([H])OC([H])([H])C3([H])[H])nc3c2c(Cl)c(N([H])C(=O)N([H])C([H])([H])[H])n3[H])c([H])c([H])c1F


 36 39  0  0  0  0  0  0  0  0999 V2000
    2.1364    2.1733   15.6233 C   0  0  0  0  0  0  0  0  0  0  0  0
    2.6315    1.2553   16.4368 N   0  0  0  0  0  0  0  0  0  0  0  0
    3.4110    1.8090   17.4035 C   0  0  0  0  0  0  0  0  0  0  0  0
    4.1111    1.2951   18.4277 N   0  0  0  0  0  0  0  0  0  0  0  0
    4.8235    2.0660   19.2671 C   0  0  0  0  0  0  0  0  0  0  0  0
    4.7989    3.4153   19.0222 C   0  0  0  0  0  0  0  0  0  0  0  0
    5.4591    4.1863   19.7912 O   0  0  0  0  0  0  0  0  0  0  0  0
    4.1173    3.9997   18.0118 N   0  0  0  0  0  0  0  0  0  0  0  0
    3.4160    3.1916   17.1929 C   0  0  0  0  0  0  0  0  0  0  0  0
    2.6225    3.3858   16.0896 C   0  0  0  0  0  0  0  0  0  0  0  0
    2.2821    4.9476   15.3777 Cl  0  0  0  0  0  0  0  0  0  0  0  0
    2.4752    0.2280   16.3870 H   0  0  0  0  0  0  0  0  0  0  0  0
    1.2268    1.7270   10.7531 C   0  0  0  0  0  0  0  0  0  0  0  0
    0.7770    1.8391   12.1098 N   0  0  0  0  0  0  0  0  0  0  0  0
    1.7237    1.9480   13.1554 C   0  0  0  0  0  0  0  0  0  0  0  0
    2.9491    1.9468   12.9030 O   0  0  0  0  0  0  0  0  0  0  0  0
    1.2841    2.0583   14.4892 N   0  0  0  0  0  0  0  0  0  0  0  0
   -0.2294    1.8413   12.3311 H   0  0  0  0  0  0  0  0  0  0  0  0
    0.2291    2.0522   14.6269 H   0  0  0  0  0  0  0  0  0  0  0  0
    5.5577    1.5497   20.3377 O   0  0  0  0  0  0  0  0  0  0  0  0
    4.9914    0.8196   21.3801 C   0  0  0  0  0  0  0  0  0  0  0  0
    4.4340   -0.5174   20.9421 C   0  0  0  0  0  0  0  0  0  0  0  0
    3.1006   -0.5319   21.6996 C   0  0  0  0  0  0  0  0  0  0  0  0
    2.6599    0.7757   21.4460 O   0  0  0  0  0  0  0  0  0  0  0  0
    3.7405    1.5357   21.8440 C   0  0  0  0  0  0  0  0  0  0  0  0
    4.1309    5.4219   17.8057 C   0  0  0  0  0  0  0  0  0  0  0  0
    3.3038    6.1849   18.8350 C   0  0  0  0  0  0  0  0  0  0  0  0
    3.6985    7.6299   18.7307 C   0  0  0  0  0  0  0  0  0  0  0  0
    4.5106    8.1542   19.6709 O   0  0  0  0  0  0  0  0  0  0  0  0
    5.5112    7.5676   20.3845 C   0  0  0  0  0  0  0  0  0  0  0  0
    6.7717    7.4066   19.8628 C   0  0  0  0  0  0  0  0  0  0  0  0
    7.7545    6.8069   20.6398 C   0  0  0  0  0  0  0  0  0  0  0  0
    7.5017    6.3738   21.9019 C   0  0  0  0  0  0  0  0  0  0  0  0
    8.4711    5.7915   22.6456 F   0  0  0  0  0  0  0  0  0  0  0  0
    6.2309    6.5409   22.4120 C   0  0  0  0  0  0  0  0  0  0  0  0
    5.2541    7.1187   21.6870 C   0  0  0  0  0  0  0  0  0  0  0  0
 13 14  1  0  0  0
 14 15  1  0  0  0
 15 16  2  0  0  0
 15 17  1  0  0  0
 17  1  1  0  0  0
  1  2  1  0  0  0
  2  3  1  0  0  0
  3  4  1  0  0  0
  4  5  2  0  0  0
  5 20  1  0  0  0
 20 21  1  0  0  0
 21 22  1  0  0  0
 22 23  1  0  0  0
 23 24  1  0  0  0
 24 25  1  0  0  0
  5  6  1  0  0  0
  6  7  2  0  0  0
  6  8  1  0  0  0
  8 26  1  0  0  0
 26 27  1  0  0  0
 27 28  1  0  0  0
 28 29  1  0  0  0
 29 30  1  0  0  0
 30 31  2  0  0  0
 31 32  1  0  0  0
 32 33  2  0  0  0
 33 34  1  0  0  0
 33 35  1  0  0  0
 35 36  2  0  0  0
  8  9  1  0  0  0
  9 10  1  0  0  0
 10 11  1  0  0  0
 10  1  2  0  0  0
  9  3  2  0  0  0
 25 21  1  0  0  0
 36 30  1  0  0  0
 14 18  1  0  0  0
 17 19  1  0  0  0
  2 12  1  0  0  0
M  END
> <minimizedAffinity>
-7.64607

> <CNNscore>
0.2871687412

> <CNNaffinity>
6.5742011070

> <CNN_VS>
1.8879050016

> <CNNaffinity_variance>
0.2136257440

$$$$
[H]c1c([H])c(OC([H])([H])C([H])([H])C([H])([H])n2c(=O)c(OC3([H])C([H])([H])OC([H])([H])C3([H])[H])nc3c2c(Cl)c(N([H])C(=O)N([H])C([H])([H])[H])n3[H])c([H])c([H])c1F


 36 39  0  0  0  0  0  0  0  0999 V2000
    4.2638    5.9904   16.1025 C   0  0  0  0  0  0  0  0  0  0  0  0
    4.1178    6.0734   14.7905 N   0  0  0  0  0  0  0  0  0  0  0  0
    3.4397    5.0054   14.2922 C   0  0  0  0  0  0  0  0  0  0  0  0
    3.0598    4.6529   13.0534 N   0  0  0  0  0  0  0  0  0  0  0  0
    2.3829    3.5182   12.8071 C   0  0  0  0  0  0  0  0  0  0  0  0
    2.0975    2.7323   13.8944 C   0  0  0  0  0  0  0  0  0  0  0  0
    1.4574    1.6469   13.7105 O   0  0  0  0  0  0  0  0  0  0  0  0
    2.4484    3.0251   15.1664 N   0  0  0  0  0  0  0  0  0  0  0  0
    3.1262    4.1717   15.3705 C   0  0  0  0  0  0  0  0  0  0  0  0
    3.6466    4.8044   16.4720 C   0  0  0  0  0  0  0  0  0  0  0  0
    3.5436    4.1901   18.1072 Cl  0  0  0  0  0  0  0  0  0  0  0  0
    4.4591    6.8370   14.1719 H   0  0  0  0  0  0  0  0  0  0  0  0
    7.8812    7.2812   19.2637 C   0  0  0  0  0  0  0  0  0  0  0  0
    6.6419    7.5509   18.5952 N   0  0  0  0  0  0  0  0  0  0  0  0
    6.1127    6.6013   17.6899 C   0  0  0  0  0  0  0  0  0  0  0  0
    6.7193    5.5294   17.4698 O   0  0  0  0  0  0  0  0  0  0  0  0
    4.8952    6.8642   17.0319 N   0  0  0  0  0  0  0  0  0  0  0  0
    6.1325    8.4299   18.7676 H   0  0  0  0  0  0  0  0  0  0  0  0
    4.4370    7.7949   17.2685 H   0  0  0  0  0  0  0  0  0  0  0  0
    1.9795    3.1349   11.5256 O   0  0  0  0  0  0  0  0  0  0  0  0
    2.8667    2.7835   10.5109 C   0  0  0  0  0  0  0  0  0  0  0  0
    2.3287    3.0564    9.1230 C   0  0  0  0  0  0  0  0  0  0  0  0
    2.7439    1.7699    8.3988 C   0  0  0  0  0  0  0  0  0  0  0  0
    2.3713    0.8167    9.3584 O   0  0  0  0  0  0  0  0  0  0  0  0
    3.0051    1.2757   10.4946 C   0  0  0  0  0  0  0  0  0  0  0  0
    2.1208    2.1596   16.2659 C   0  0  0  0  0  0  0  0  0  0  0  0
    3.1395    1.0442   16.4751 C   0  0  0  0  0  0  0  0  0  0  0  0
    3.0796    0.6620   17.9260 C   0  0  0  0  0  0  0  0  0  0  0  0
    4.1631    0.8706   18.7012 O   0  0  0  0  0  0  0  0  0  0  0  0
    4.2421    1.1698   20.0274 C   0  0  0  0  0  0  0  0  0  0  0  0
    5.2599    1.9404   20.5345 C   0  0  0  0  0  0  0  0  0  0  0  0
    5.2851    2.2185   21.8952 C   0  0  0  0  0  0  0  0  0  0  0  0
    4.3304    1.7472   22.7382 C   0  0  0  0  0  0  0  0  0  0  0  0
    4.3701    2.0277   24.0617 F   0  0  0  0  0  0  0  0  0  0  0  0
    3.3152    0.9734   22.2149 C   0  0  0  0  0  0  0  0  0  0  0  0
    3.2592    0.6847   20.9008 C   0  0  0  0  0  0  0  0  0  0  0  0
 13 14  1  0  0  0
 14 15  1  0  0  0
 15 16  2  0  0  0
 15 17  1  0  0  0
 17  1  1  0  0  0
  1  2  1  0  0  0
  2  3  1  0  0  0
  3  4  1  0  0  0
  4  5  2  0  0  0
  5 20  1  0  0  0
 20 21  1  0  0  0
 21 22  1  0  0  0
 22 23  1  0  0  0
 23 24  1  0  0  0
 24 25  1  0  0  0
  5  6  1  0  0  0
  6  7  2  0  0  0
  6  8  1  0  0  0
  8 26  1  0  0  0
 26 27  1  0  0  0
 27 28  1  0  0  0
 28 29  1  0  0  0
 29 30  1  0  0  0
 30 31  2  0  0  0
 31 32  1  0  0  0
 32 33  2  0  0  0
 33 34  1  0  0  0
 33 35  1  0  0  0
 35 36  2  0  0  0
  8  9  1  0  0  0
  9 10  1  0  0  0
 10 11  1  0  0  0
 10  1  2  0  0  0
  9  3  2  0  0  0
 25 21  1  0  0  0
 36 30  1  0  0  0
 14 18  1  0  0  0
 17 19  1  0  0  0
  2 12  1  0  0  0
M  END
> <minimizedAffinity>
-7.17211

> <CNNscore>
0.2723186910

> <CNNaffinity>
6.1709585190

> <CNN_VS>
1.6804673672

> <CNNaffinity_variance>
0.1685771644

$$$$
[H]c1c([H])c(OC([H])([H])C([H])([H])C([H])([H])n2c(=O)c(OC3([H])C([H])([H])OC([H])([H])C3([H])[H])nc3c2c(Cl)c(N([H])C(=O)N([H])C([H])([H])[H])n3[H])c([H])c([H])c1F


 36 39  0  0  0  0  0  0  0  0999 V2000
    5.2949    2.3489    9.1855 C   0  0  0  0  0  0  0  0  0  0  0  0
    5.0566    1.2059    8.5637 N   0  0  0  0  0  0  0  0  0  0  0  0
    3.8224    0.7198    8.8622 C   0  0  0  0  0  0  0  0  0  0  0  0
    3.1508   -0.3804    8.4855 N   0  0  0  0  0  0  0  0  0  0  0  0
    1.9110   -0.6500    8.9289 C   0  0  0  0  0  0  0  0  0  0  0  0
    1.3622    0.2633    9.7926 C   0  0  0  0  0  0  0  0  0  0  0  0
    0.1889    0.0506   10.2397 O   0  0  0  0  0  0  0  0  0  0  0  0
    1.9799    1.3897   10.2130 N   0  0  0  0  0  0  0  0  0  0  0  0
    3.2218    1.6228    9.7453 C   0  0  0  0  0  0  0  0  0  0  0  0
    4.1526    2.6155    9.9259 C   0  0  0  0  0  0  0  0  0  0  0  0
    3.9216    4.0145   10.9514 Cl  0  0  0  0  0  0  0  0  0  0  0  0
    5.6978    0.7014    7.9183 H   0  0  0  0  0  0  0  0  0  0  0  0
    9.7872    3.7700    7.5906 C   0  0  0  0  0  0  0  0  0  0  0  0
    8.6375    3.9481    8.4283 N   0  0  0  0  0  0  0  0  0  0  0  0
    7.5643    3.0296    8.3503 C   0  0  0  0  0  0  0  0  0  0  0  0
    7.6131    2.0646    7.5556 O   0  0  0  0  0  0  0  0  0  0  0  0
    6.4336    3.2026    9.1725 N   0  0  0  0  0  0  0  0  0  0  0  0
    8.5849    4.7387    9.0871 H   0  0  0  0  0  0  0  0  0  0  0  0
    6.4629    4.0446    9.8223 H   0  0  0  0  0  0  0  0  0  0  0  0
    1.1970   -1.7889    8.5484 O   0  0  0  0  0  0  0  0  0  0  0  0
    1.1088   -2.9399    9.3282 C   0  0  0  0  0  0  0  0  0  0  0  0
    2.4445   -3.6141    9.5550 C   0  0  0  0  0  0  0  0  0  0  0  0
    2.0622   -5.0834    9.3379 C   0  0  0  0  0  0  0  0  0  0  0  0
    1.2768   -4.9644    8.1814 O   0  0  0  0  0  0  0  0  0  0  0  0
    0.3619   -3.9967    8.5420 C   0  0  0  0  0  0  0  0  0  0  0  0
    1.3521    2.3095   11.1214 C   0  0  0  0  0  0  0  0  0  0  0  0
    1.2903    1.7895   12.5537 C   0  0  0  0  0  0  0  0  0  0  0  0
    1.7291    2.9134   13.4476 C   0  0  0  0  0  0  0  0  0  0  0  0
    2.9700    2.8818   13.9745 O   0  0  0  0  0  0  0  0  0  0  0  0
    3.3817    2.4951   15.2137 C   0  0  0  0  0  0  0  0  0  0  0  0
    4.1819    3.2963   15.9915 C   0  0  0  0  0  0  0  0  0  0  0  0
    4.5652    2.8520   17.2505 C   0  0  0  0  0  0  0  0  0  0  0  0
    4.1708    1.6453   17.7326 C   0  0  0  0  0  0  0  0  0  0  0  0
    4.5534    1.2277   18.9619 F   0  0  0  0  0  0  0  0  0  0  0  0
    3.3685    0.8510   16.9398 C   0  0  0  0  0  0  0  0  0  0  0  0
    2.9774    1.2502   15.7146 C   0  0  0  0  0  0  0  0  0  0  0  0
 13 14  1  0  0  0
 14 15  1  0  0  0
 15 16  2  0  0  0
 15 17  1  0  0  0
 17  1  1  0  0  0
  1  2  1  0  0  0
  2  3  1  0  0  0
  3  4  1  0  0  0
  4  5  2  0  0  0
  5 20  1  0  0  0
 20 21  1  0  0  0
 21 22  1  0  0  0
 22 23  1  0  0  0
 23 24  1  0  0  0
 24 25  1  0  0  0
  5  6  1  0  0  0
  6  7  2  0  0  0
  6  8  1  0  0  0
  8 26  1  0  0  0
 26 27  1  0  0  0
 27 28  1  0  0  0
 28 29  1  0  0  0
 29 30  1  0  0  0
 30 31  2  0  0  0
 31 32  1  0  0  0
 32 33  2  0  0  0
 33 34  1  0  0  0
 33 35  1  0  0  0
 35 36  2  0  0  0
  8  9  1  0  0  0
  9 10  1  0  0  0
 10 11  1  0  0  0
 10  1  2  0  0  0
  9  3  2  0  0  0
 25 21  1  0  0  0
 36 30  1  0  0  0
 14 18  1  0  0  0
 17 19  1  0  0  0
  2 12  1  0  0  0
M  END
> <minimizedAffinity>
-6.07639

> <CNNscore>
0.2102328688

> <CNNaffinity>
5.6480150223

> <CNN_VS>
1.1873984337

> <CNNaffinity_variance>
0.1867583841

$$$$
[H]c1c([H])c(OC([H])([H])C([H])([H])C([H])([H])n2c(=O)c(OC3([H])C([H])([H])OC([H])([H])C3([H])[H])nc3c2c(Cl)c(N([H])C(=O)N([H])C([H])([H])[H])n3[H])c([H])c([H])c1F


 36 39  0  0  0  0  0  0  0  0999 V2000
    3.9275    2.5001   18.2892 C   0  0  0  0  0  0  0  0  0  0  0  0
    4.1469    3.7972   18.1507 N   0  0  0  0  0  0  0  0  0  0  0  0
    3.9949    4.1970   16.8600 C   0  0  0  0  0  0  0  0  0  0  0  0
    4.1116    5.3849   16.2448 N   0  0  0  0  0  0  0  0  0  0  0  0
    3.9082    5.5310   14.9243 C   0  0  0  0  0  0  0  0  0  0  0  0
    3.5726    4.3958   14.2316 C   0  0  0  0  0  0  0  0  0  0  0  0
    3.3699    4.4848   12.9774 O   0  0  0  0  0  0  0  0  0  0  0  0
    3.4379    3.1702   14.7855 N   0  0  0  0  0  0  0  0  0  0  0  0
    3.6506    3.0666   16.1119 C   0  0  0  0  0  0  0  0  0  0  0  0
    3.6169    2.0369   17.0192 C   0  0  0  0  0  0  0  0  0  0  0  0
    3.2379    0.3763   16.6182 Cl  0  0  0  0  0  0  0  0  0  0  0  0
    4.4054    4.4698   18.9010 H   0  0  0  0  0  0  0  0  0  0  0  0
    4.2205    1.6413   23.1801 C   0  0  0  0  0  0  0  0  0  0  0  0
    4.1124    1.1778   21.8278 N   0  0  0  0  0  0  0  0  0  0  0  0
    4.0778    2.1131   20.7669 C   0  0  0  0  0  0  0  0  0  0  0  0
    4.1409    3.3403   21.0021 O   0  0  0  0  0  0  0  0  0  0  0  0
    3.9716    1.6601   19.4373 N   0  0  0  0  0  0  0  0  0  0  0  0
    4.0596    0.1698   21.6205 H   0  0  0  0  0  0  0  0  0  0  0  0
    3.9225    0.6043   19.3145 H   0  0  0  0  0  0  0  0  0  0  0  0
    4.0251    6.7582   14.2669 O   0  0  0  0  0  0  0  0  0  0  0  0
    3.0026    7.7025   14.2093 C   0  0  0  0  0  0  0  0  0  0  0  0
    1.6559    7.1074   13.8592 C   0  0  0  0  0  0  0  0  0  0  0  0
    1.1439    8.1383   12.8458 C   0  0  0  0  0  0  0  0  0  0  0  0
    2.3000    8.3163   12.0711 O   0  0  0  0  0  0  0  0  0  0  0  0
    3.2535    8.6105   13.0238 C   0  0  0  0  0  0  0  0  0  0  0  0
    3.0843    2.0160   14.0056 C   0  0  0  0  0  0  0  0  0  0  0  0
    1.5834    1.8915   13.7658 C   0  0  0  0  0  0  0  0  0  0  0  0
    1.3809    1.8250   12.2793 C   0  0  0  0  0  0  0  0  0  0  0  0
    2.4481    1.6071   11.4843 O   0  0  0  0  0  0  0  0  0  0  0  0
    2.7585    2.1479   10.2736 C   0  0  0  0  0  0  0  0  0  0  0  0
    3.7160    1.5938    9.4594 C   0  0  0  0  0  0  0  0  0  0  0  0
    3.9858    2.1855    8.2319 C   0  0  0  0  0  0  0  0  0  0  0  0
    3.3287    3.2987    7.8159 C   0  0  0  0  0  0  0  0  0  0  0  0
    3.6038    3.8626    6.6167 F   0  0  0  0  0  0  0  0  0  0  0  0
    2.3706    3.8449    8.6449 C   0  0  0  0  0  0  0  0  0  0  0  0
    2.0831    3.2972    9.8411 C   0  0  0  0  0  0  0  0  0  0  0  0
 13 14  1  0  0  0
 14 15  1  0  0  0
 15 16  2  0  0  0
 15 17  1  0  0  0
 17  1  1  0  0  0
  1  2  1  0  0  0
  2  3  1  0  0  0
  3  4  1  0  0  0
  4  5  2  0  0  0
  5 20  1  0  0  0
 20 21  1  0  0  0
 21 22  1  0  0  0
 22 23  1  0  0  0
 23 24  1  0  0  0
 24 25  1  0  0  0
  5  6  1  0  0  0
  6  7  2  0  0  0
  6  8  1  0  0  0
  8 26  1  0  0  0
 26 27  1  0  0  0
 27 28  1  0  0  0
 28 29  1  0  0  0
 29 30  1  0  0  0
 30 31  2  0  0  0
 31 32  1  0  0  0
 32 33  2  0  0  0
 33 34  1  0  0  0
 33 35  1  0  0  0
 35 36  2  0  0  0
  8  9  1  0  0  0
  9 10  1  0  0  0
 10 11  1  0  0  0
 10  1  2  0  0  0
  9  3  2  0  0  0
 25 21  1  0  0  0
 36 30  1  0  0  0
 14 18  1  0  0  0
 17 19  1  0  0  0
  2 12  1  0  0  0
M  END
> <minimizedAffinity>
-6.10489

> <CNNscore>
0.1584800333

> <CNNaffinity>
6.1631746292

> <CNN_VS>
0.9767401218

> <CNNaffinity_variance>
0.2591262460

$$$$
[H]c1c([H])c(OC([H])([H])C([H])([H])C([H])([H])n2c(=O)c(OC3([H])C([H])([H])OC([H])([H])C3([H])[H])nc3c2c(Cl)c(N([H])C(=O)N([H])C([H])([H])[H])n3[H])c([H])c([H])c1F


 36 39  0  0  0  0  0  0  0  0999 V2000
    5.9684    8.3366   22.5244 C   0  0  0  0  0  0  0  0  0  0  0  0
    5.9472    7.0308   22.7345 N   0  0  0  0  0  0  0  0  0  0  0  0
    5.2812    6.3742   21.7475 C   0  0  0  0  0  0  0  0  0  0  0  0
    5.0025    5.0788   21.5295 N   0  0  0  0  0  0  0  0  0  0  0  0
    4.3094    4.6660   20.4545 C   0  0  0  0  0  0  0  0  0  0  0  0
    3.8980    5.6432   19.5844 C   0  0  0  0  0  0  0  0  0  0  0  0
    3.2378    5.3003   18.5508 O   0  0  0  0  0  0  0  0  0  0  0  0
    4.1428    6.9633   19.7412 N   0  0  0  0  0  0  0  0  0  0  0  0
    4.8406    7.3354   20.8321 C   0  0  0  0  0  0  0  0  0  0  0  0
    5.2786    8.5343   21.3374 C   0  0  0  0  0  0  0  0  0  0  0  0
    4.9972   10.0882   20.5836 Cl  0  0  0  0  0  0  0  0  0  0  0  0
    6.3707    6.5210   23.5363 H   0  0  0  0  0  0  0  0  0  0  0  0
    8.8238   10.1974   26.1477 C   0  0  0  0  0  0  0  0  0  0  0  0
    7.9275   10.3683   25.0419 N   0  0  0  0  0  0  0  0  0  0  0  0
    7.4223    9.2322   24.3671 C   0  0  0  0  0  0  0  0  0  0  0  0
    7.7528    8.0812   24.7294 O   0  0  0  0  0  0  0  0  0  0  0  0
    6.5414    9.3977   23.2803 N   0  0  0  0  0  0  0  0  0  0  0  0
    7.6474   11.3108   24.7335 H   0  0  0  0  0  0  0  0  0  0  0  0
    6.3057   10.4045   23.0296 H   0  0  0  0  0  0  0  0  0  0  0  0
    4.0099    3.3234   20.2109 O   0  0  0  0  0  0  0  0  0  0  0  0
    4.5288    2.2695   20.9596 C   0  0  0  0  0  0  0  0  0  0  0  0
    4.6255    0.9736   20.1842 C   0  0  0  0  0  0  0  0  0  0  0  0
    4.0993   -0.0214   21.2258 C   0  0  0  0  0  0  0  0  0  0  0  0
    2.9839    0.6858   21.6994 O   0  0  0  0  0  0  0  0  0  0  0  0
    3.5285    1.9076   22.0372 C   0  0  0  0  0  0  0  0  0  0  0  0
    3.6839    7.9414   18.7935 C   0  0  0  0  0  0  0  0  0  0  0  0
    4.6386    8.1330   17.6199 C   0  0  0  0  0  0  0  0  0  0  0  0
    4.4263    9.5276   17.1051 C   0  0  0  0  0  0  0  0  0  0  0  0
    3.7954    9.6990   15.9256 O   0  0  0  0  0  0  0  0  0  0  0  0
    3.9336    9.0162   14.7555 C   0  0  0  0  0  0  0  0  0  0  0  0
    2.8940    8.3050   14.2073 C   0  0  0  0  0  0  0  0  0  0  0  0
    3.0916    7.6332   13.0077 C   0  0  0  0  0  0  0  0  0  0  0  0
    4.2864    7.6596   12.3628 C   0  0  0  0  0  0  0  0  0  0  0  0
    4.4619    6.9993   11.1944 F   0  0  0  0  0  0  0  0  0  0  0  0
    5.3217    8.3768   12.9259 C   0  0  0  0  0  0  0  0  0  0  0  0
    5.1652    9.0404   14.0873 C   0  0  0  0  0  0  0  0  0  0  0  0
 13 14  1  0  0  0
 14 15  1  0  0  0
 15 16  2  0  0  0
 15 17  1  0  0  0
 17  1  1  0  0  0
  1  2  1  0  0  0
  2  3  1  0  0  0
  3  4  1  0  0  0
  4  5  2  0  0  0
  5 20  1  0  0  0
 20 21  1  0  0  0
 21 22  1  0  0  0
 22 23  1  0  0  0
 23 24  1  0  0  0
 24 25  1  0  0  0
  5  6  1  0  0  0
  6  7  2  0  0  0
  6  8  1  0  0  0
  8 26  1  0  0  0
 26 27  1  0  0  0
 27 28  1  0  0  0
 28 29  1  0  0  0
 29 30  1  0  0  0
 30 31  2  0  0  0
 31 32  1  0  0  0
 32 33  2  0  0  0
 33 34  1  0  0  0
 33 35  1  0  0  0
 35 36  2  0  0  0
  8  9  1  0  0  0
  9 10  1  0  0  0
 10 11  1  0  0  0
 10  1  2  0  0  0
  9  3  2  0  0  0
 25 21  1  0  0  0
 36 30  1  0  0  0
 14 18  1  0  0  0
 17 19  1  0  0  0
  2 12  1  0  0  0
M  END
> <minimizedAffinity>
-7.80609

> <CNNscore>
0.1052594110

> <CNNaffinity>
5.6706819534

> <CNN_VS>
0.5968926549

> <CNNaffinity_variance>
0.1520611495

$$$$
[H]c1c([H])c(OC([H])([H])C([H])([H])C([H])([H])n2c(=O)c(OC3([H])C([H])([H])OC([H])([H])C3([H])[H])nc3c2c(Cl)c(N([H])C(=O)N([H])C([H])([H])[H])n3[H])c([H])c([H])c1F


 36 39  0  0  0  0  0  0  0  0999 V2000
    4.5006    6.8882   16.9198 C   0  0  0  0  0  0  0  0  0  0  0  0
    3.6537    7.3608   16.0203 N   0  0  0  0  0  0  0  0  0  0  0  0
    3.0935    6.3633   15.2855 C   0  0  0  0  0  0  0  0  0  0  0  0
    2.2018    6.3492   14.2815 N   0  0  0  0  0  0  0  0  0  0  0  0
    1.7946    5.2076   13.7007 C   0  0  0  0  0  0  0  0  0  0  0  0
    2.3406    4.0483   14.1897 C   0  0  0  0  0  0  0  0  0  0  0  0
    1.9851    2.9410   13.6708 O   0  0  0  0  0  0  0  0  0  0  0  0
    3.2412    3.9888   15.1959 N   0  0  0  0  0  0  0  0  0  0  0  0
    3.6233    5.1556   15.7509 C   0  0  0  0  0  0  0  0  0  0  0  0
    4.4869    5.5108   16.7572 C   0  0  0  0  0  0  0  0  0  0  0  0
    5.4351    4.3771   17.6941 Cl  0  0  0  0  0  0  0  0  0  0  0  0
    3.4115    8.3589   15.8553 H   0  0  0  0  0  0  0  0  0  0  0  0
    5.1999    9.7606   20.9205 C   0  0  0  0  0  0  0  0  0  0  0  0
    5.7070    8.9544   19.8489 N   0  0  0  0  0  0  0  0  0  0  0  0
    4.8068    8.3442   18.9441 C   0  0  0  0  0  0  0  0  0  0  0  0
    3.5727    8.5038   19.0739 O   0  0  0  0  0  0  0  0  0  0  0  0
    5.3028    7.5516   17.8904 N   0  0  0  0  0  0  0  0  0  0  0  0
    6.7212    8.8149   19.7309 H   0  0  0  0  0  0  0  0  0  0  0  0
    6.3619    7.4612   17.8432 H   0  0  0  0  0  0  0  0  0  0  0  0
    0.8684    5.1731   12.6554 O   0  0  0  0  0  0  0  0  0  0  0  0
   -0.4920    4.9356   12.8382 C   0  0  0  0  0  0  0  0  0  0  0  0
   -1.2734    4.8980   11.5428 C   0  0  0  0  0  0  0  0  0  0  0  0
   -2.5082    5.7204   11.9313 C   0  0  0  0  0  0  0  0  0  0  0  0
   -1.8916    6.7869   12.6027 O   0  0  0  0  0  0  0  0  0  0  0  0
   -1.1011    6.1378   13.5285 C   0  0  0  0  0  0  0  0  0  0  0  0
    3.7788    2.7411   15.6648 C   0  0  0  0  0  0  0  0  0  0  0  0
    2.9299    2.0941   16.7540 C   0  0  0  0  0  0  0  0  0  0  0  0
    3.8066    1.1013   17.4615 C   0  0  0  0  0  0  0  0  0  0  0  0
    3.3989    0.5965   18.6436 O   0  0  0  0  0  0  0  0  0  0  0  0
    3.7813    0.9223   19.9094 C   0  0  0  0  0  0  0  0  0  0  0  0
    3.0482    0.5395   21.0062 C   0  0  0  0  0  0  0  0  0  0  0  0
    3.4907    0.8951   22.2739 C   0  0  0  0  0  0  0  0  0  0  0  0
    4.6288    1.6129   22.4578 C   0  0  0  0  0  0  0  0  0  0  0  0
    5.0458    1.9511   23.7002 F   0  0  0  0  0  0  0  0  0  0  0  0
    5.3539    1.9915   21.3468 C   0  0  0  0  0  0  0  0  0  0  0  0
    4.9547    1.6635   20.1032 C   0  0  0  0  0  0  0  0  0  0  0  0
 13 14  1  0  0  0
 14 15  1  0  0  0
 15 16  2  0  0  0
 15 17  1  0  0  0
 17  1  1  0  0  0
  1  2  1  0  0  0
  2  3  1  0  0  0
  3  4  1  0  0  0
  4  5  2  0  0  0
  5 20  1  0  0  0
 20 21  1  0  0  0
 21 22  1  0  0  0
 22 23  1  0  0  0
 23 24  1  0  0  0
 24 25  1  0  0  0
  5  6  1  0  0  0
  6  7  2  0  0  0
  6  8  1  0  0  0
  8 26  1  0  0  0
 26 27  1  0  0  0
 27 28  1  0  0  0
 28 29  1  0  0  0
 29 30  1  0  0  0
 30 31  2  0  0  0
 31 32  1  0  0  0
 32 33  2  0  0  0
 33 34  1  0  0  0
 33 35  1  0  0  0
 35 36  2  0  0  0
  8  9  1  0  0  0
  9 10  1  0  0  0
 10 11  1  0  0  0
 10  1  2  0  0  0
  9  3  2  0  0  0
 25 21  1  0  0  0
 36 30  1  0  0  0
 14 18  1  0  0  0
 17 19  1  0  0  0
  2 12  1  0  0  0
M  END
> <minimizedAffinity>
-7.90980

> <CNNscore>
0.1012397408

> <CNNaffinity>
6.0971031189

> <CNN_VS>
0.6172691584

> <CNNaffinity_variance>
0.2147685587

$$$$
[H]c1c([H])c(OC([H])([H])C([H])([H])C([H])([H])n2c(=O)c(OC3([H])C([H])([H])OC([H])([H])C3([H])[H])nc3c2c(Cl)c(N([H])C(=O)N([H])C([H])([H])[H])n3[H])c([H])c([H])c1F


 36 39  0  0  0  0  0  0  0  0999 V2000
    2.8509    4.3355   16.8519 C   0  0  0  0  0  0  0  0  0  0  0  0
    2.8361    5.6107   16.5008 N   0  0  0  0  0  0  0  0  0  0  0  0
    3.4739    6.3904   17.4141 C   0  0  0  0  0  0  0  0  0  0  0  0
    3.7101    7.7100   17.4927 N   0  0  0  0  0  0  0  0  0  0  0  0
    4.3787    8.2582   18.5217 C   0  0  0  0  0  0  0  0  0  0  0  0
    4.8110    7.3942   19.4952 C   0  0  0  0  0  0  0  0  0  0  0  0
    5.4493    7.8675   20.4903 O   0  0  0  0  0  0  0  0  0  0  0  0
    4.6089    6.0578   19.4803 N   0  0  0  0  0  0  0  0  0  0  0  0
    3.9341    5.5482   18.4313 C   0  0  0  0  0  0  0  0  0  0  0  0
    3.5354    4.2888   18.0575 C   0  0  0  0  0  0  0  0  0  0  0  0
    3.8486    2.8363   18.9816 Cl  0  0  0  0  0  0  0  0  0  0  0  0
    2.4052    6.0173   15.6457 H   0  0  0  0  0  0  0  0  0  0  0  0
    1.2339    1.7632   12.9133 C   0  0  0  0  0  0  0  0  0  0  0  0
    1.5103    1.8707   14.3159 N   0  0  0  0  0  0  0  0  0  0  0  0
    2.0435    3.0738   14.8351 C   0  0  0  0  0  0  0  0  0  0  0  0
    2.2748    4.0428   14.0782 O   0  0  0  0  0  0  0  0  0  0  0  0
    2.3158    3.1818   16.2131 N   0  0  0  0  0  0  0  0  0  0  0  0
    1.3243    1.0801   14.9501 H   0  0  0  0  0  0  0  0  0  0  0  0
    2.0939    2.3184   16.7939 H   0  0  0  0  0  0  0  0  0  0  0  0
    4.6338    9.6282   18.6208 O   0  0  0  0  0  0  0  0  0  0  0  0
    5.6830   10.2666   17.9635 C   0  0  0  0  0  0  0  0  0  0  0  0
    6.2958    9.4317   16.8601 C   0  0  0  0  0  0  0  0  0  0  0  0
    7.7884    9.6761   17.1138 C   0  0  0  0  0  0  0  0  0  0  0  0
    7.8279    9.5286   18.5084 O   0  0  0  0  0  0  0  0  0  0  0  0
    6.8434   10.3998   18.9272 C   0  0  0  0  0  0  0  0  0  0  0  0
    5.0864    5.2030   20.5323 C   0  0  0  0  0  0  0  0  0  0  0  0
    4.0938    5.0533   21.6803 C   0  0  0  0  0  0  0  0  0  0  0  0
    4.8942    4.7608   22.9167 C   0  0  0  0  0  0  0  0  0  0  0  0
    5.1214    3.4762   23.2584 O   0  0  0  0  0  0  0  0  0  0  0  0
    4.8072    2.3288   22.5955 C   0  0  0  0  0  0  0  0  0  0  0  0
    5.7310    1.6621   21.8281 C   0  0  0  0  0  0  0  0  0  0  0  0
    5.3551    0.4925   21.1800 C   0  0  0  0  0  0  0  0  0  0  0  0
    4.0972   -0.0089   21.2838 C   0  0  0  0  0  0  0  0  0  0  0  0
    3.7475   -1.1501   20.6456 F   0  0  0  0  0  0  0  0  0  0  0  0
    3.1798    0.6723   22.0568 C   0  0  0  0  0  0  0  0  0  0  0  0
    3.5100    1.8087   22.6995 C   0  0  0  0  0  0  0  0  0  0  0  0
 13 14  1  0  0  0
 14 15  1  0  0  0
 15 16  2  0  0  0
 15 17  1  0  0  0
 17  1  1  0  0  0
  1  2  1  0  0  0
  2  3  1  0  0  0
  3  4  1  0  0  0
  4  5  2  0  0  0
  5 20  1  0  0  0
 20 21  1  0  0  0
 21 22  1  0  0  0
 22 23  1  0  0  0
 23 24  1  0  0  0
 24 25  1  0  0  0
  5  6  1  0  0  0
  6  7  2  0  0  0
  6  8  1  0  0  0
  8 26  1  0  0  0
 26 27  1  0  0  0
 27 28  1  0  0  0
 28 29  1  0  0  0
 29 30  1  0  0  0
 30 31  2  0  0  0
 31 32  1  0  0  0
 32 33  2  0  0  0
 33 34  1  0  0  0
 33 35  1  0  0  0
 35 36  2  0  0  0
  8  9  1  0  0  0
  9 10  1  0  0  0
 10 11  1  0  0  0
 10  1  2  0  0  0
  9  3  2  0  0  0
 25 21  1  0  0  0
 36 30  1  0  0  0
 14 18  1  0  0  0
 17 19  1  0  0  0
  2 12  1  0  0  0
M  END
> <minimizedAffinity>
-7.62973

> <CNNscore>
0.0955429375

> <CNNaffinity>
6.2951164246

> <CNN_VS>
0.6014539003

> <CNNaffinity_variance>
0.2440253049

$$$$
[H]c1c([H])c(OC([H])([H])C([H])([H])C([H])([H])n2c(=O)c(OC3([H])C([H])([H])OC([H])([H])C3([H])[H])nc3c2c(Cl)c(N([H])C(=O)N([H])C([H])([H])[H])n3[H])c([H])c([H])c1F


 36 39  0  0  0  0  0  0  0  0999 V2000
    6.3394    8.2898   11.8617 C   0  0  0  0  0  0  0  0  0  0  0  0
    5.3711    8.0042   11.0070 N   0  0  0  0  0  0  0  0  0  0  0  0
    4.1590    7.9511   11.6209 C   0  0  0  0  0  0  0  0  0  0  0  0
    2.9150    7.7015   11.1813 N   0  0  0  0  0  0  0  0  0  0  0  0
    1.8509    7.7043   12.0024 C   0  0  0  0  0  0  0  0  0  0  0  0
    2.1024    7.9773   13.3228 C   0  0  0  0  0  0  0  0  0  0  0  0
    1.1251    7.9911   14.1391 O   0  0  0  0  0  0  0  0  0  0  0  0
    3.3268    8.2370   13.8331 N   0  0  0  0  0  0  0  0  0  0  0  0
    4.3669    8.2243   12.9767 C   0  0  0  0  0  0  0  0  0  0  0  0
    5.7193    8.4286   13.0947 C   0  0  0  0  0  0  0  0  0  0  0  0
    6.5361    8.8066   14.5953 Cl  0  0  0  0  0  0  0  0  0  0  0  0
    5.4708    7.8332    9.9857 H   0  0  0  0  0  0  0  0  0  0  0  0
   10.8690    6.6953   10.5637 C   0  0  0  0  0  0  0  0  0  0  0  0
    9.9883    7.7177   11.0479 N   0  0  0  0  0  0  0  0  0  0  0  0
    8.6086    7.4422   11.1955 C   0  0  0  0  0  0  0  0  0  0  0  0
    8.1536    6.3131   10.9063 O   0  0  0  0  0  0  0  0  0  0  0  0
    7.7413    8.4452   11.6712 N   0  0  0  0  0  0  0  0  0  0  0  0
   10.3503    8.6517   11.2896 H   0  0  0  0  0  0  0  0  0  0  0  0
    8.1989    9.3790   11.8963 H   0  0  0  0  0  0  0  0  0  0  0  0
    0.5497    7.4470   11.5636 O   0  0  0  0  0  0  0  0  0  0  0  0
    0.0424    6.1649   11.3648 C   0  0  0  0  0  0  0  0  0  0  0  0
   -0.4113    5.9135    9.9432 C   0  0  0  0  0  0  0  0  0  0  0  0
   -1.7386    5.1868   10.1923 C   0  0  0  0  0  0  0  0  0  0  0  0
   -2.2787    6.0004   11.1996 O   0  0  0  0  0  0  0  0  0  0  0  0
   -1.2592    6.0396   12.1283 C   0  0  0  0  0  0  0  0  0  0  0  0
    3.5274    8.5157   15.2286 C   0  0  0  0  0  0  0  0  0  0  0  0
    3.5588   10.0075   15.5435 C   0  0  0  0  0  0  0  0  0  0  0  0
    3.8681   10.1404   17.0069 C   0  0  0  0  0  0  0  0  0  0  0  0
    3.3221    9.2616   17.8719 O   0  0  0  0  0  0  0  0  0  0  0  0
    3.8825    8.6225   18.9359 C   0  0  0  0  0  0  0  0  0  0  0  0
    4.4376    9.3155   19.9840 C   0  0  0  0  0  0  0  0  0  0  0  0
    4.9890    8.6099   21.0458 C   0  0  0  0  0  0  0  0  0  0  0  0
    4.9952    7.2522   21.0745 C   0  0  0  0  0  0  0  0  0  0  0  0
    5.5367    6.5801   22.1171 F   0  0  0  0  0  0  0  0  0  0  0  0
    4.4354    6.5697   20.0143 C   0  0  0  0  0  0  0  0  0  0  0  0
    3.8915    7.2215   18.9689 C   0  0  0  0  0  0  0  0  0  0  0  0
 13 14  1  0  0  0
 14 15  1  0  0  0
 15 16  2  0  0  0
 15 17  1  0  0  0
 17  1  1  0  0  0
  1  2  1  0  0  0
  2  3  1  0  0  0
  3  4  1  0  0  0
  4  5  2  0  0  0
  5 20  1  0  0  0
 20 21  1  0  0  0
 21 22  1  0  0  0
 22 23  1  0  0  0
 23 24  1  0  0  0
 24 25  1  0  0  0
  5  6  1  0  0  0
  6  7  2  0  0  0
  6  8  1  0  0  0
  8 26  1  0  0  0
 26 27  1  0  0  0
 27 28  1  0  0  0
 28 29  1  0  0  0
 29 30  1  0  0  0
 30 31  2  0  0  0
 31 32  1  0  0  0
 32 33  2  0  0  0
 33 34  1  0  0  0
 33 35  1  0  0  0
 35 36  2  0  0  0
  8  9  1  0  0  0
  9 10  1  0  0  0
 10 11  1  0  0  0
 10  1  2  0  0  0
  9  3  2  0  0  0
 25 21  1  0  0  0
 36 30  1  0  0  0
 14 18  1  0  0  0
 17 19  1  0  0  0
  2 12  1  0  0  0
M  END
> <minimizedAffinity>
-7.10922

> <CNNscore>
0.0905388445

> <CNNaffinity>
5.1134405136

> <CNN_VS>
0.4629649818

> <CNNaffinity_variance>
0.6100177169

$$$$
[H]c1c([H])c(OC([H])([H])C([H])([H])C([H])([H])n2c(=O)c(OC3([H])C([H])([H])OC([H])([H])C3([H])[H])nc3c2c(Cl)c(N([H])C(=O)N([H])C([H])([H])[H])n3[H])c([H])c([H])c1F


 36 39  0  0  0  0  0  0  0  0999 V2000
    1.2858    2.7973   11.3782 C   0  0  0  0  0  0  0  0  0  0  0  0
    1.8732    3.8852   10.9078 N   0  0  0  0  0  0  0  0  0  0  0  0
    2.5021    4.5815   11.8918 C   0  0  0  0  0  0  0  0  0  0  0  0
    3.2140    5.7201   11.9028 N   0  0  0  0  0  0  0  0  0  0  0  0
    3.7473    6.2210   13.0302 C   0  0  0  0  0  0  0  0  0  0  0  0
    3.5257    5.5041   14.1783 C   0  0  0  0  0  0  0  0  0  0  0  0
    4.0116    5.9395   15.2720 O   0  0  0  0  0  0  0  0  0  0  0  0
    2.8202    4.3527   14.2402 N   0  0  0  0  0  0  0  0  0  0  0  0
    2.3022    3.8846   13.0878 C   0  0  0  0  0  0  0  0  0  0  0  0
    1.5496    2.7905   12.7399 C   0  0  0  0  0  0  0  0  0  0  0  0
    1.0022    1.5673   13.8651 Cl  0  0  0  0  0  0  0  0  0  0  0  0
    1.8827    4.2116    9.9201 H   0  0  0  0  0  0  0  0  0  0  0  0
    0.1253   -0.1196    7.5195 C   0  0  0  0  0  0  0  0  0  0  0  0
   -0.0893    0.3290    8.8641 N   0  0  0  0  0  0  0  0  0  0  0  0
    0.7347    1.3442    9.4043 C   0  0  0  0  0  0  0  0  0  0  0  0
    1.6482    1.8516    8.7163 O   0  0  0  0  0  0  0  0  0  0  0  0
    0.5255    1.7867   10.7253 N   0  0  0  0  0  0  0  0  0  0  0  0
   -0.8382   -0.0806    9.4414 H   0  0  0  0  0  0  0  0  0  0  0  0
   -0.2685    1.3098   11.2490 H   0  0  0  0  0  0  0  0  0  0  0  0
    4.4905    7.4036   13.0612 O   0  0  0  0  0  0  0  0  0  0  0  0
    3.9191    8.6739   13.0443 C   0  0  0  0  0  0  0  0  0  0  0  0
    4.5705    9.6373   14.0127 C   0  0  0  0  0  0  0  0  0  0  0  0
    3.3337   10.3134   14.6169 C   0  0  0  0  0  0  0  0  0  0  0  0
    2.5249    9.1894   14.8422 O   0  0  0  0  0  0  0  0  0  0  0  0
    2.5162    8.5771   13.6059 C   0  0  0  0  0  0  0  0  0  0  0  0
    2.6212    3.6463   15.4758 C   0  0  0  0  0  0  0  0  0  0  0  0
    3.7390    2.6567   15.7873 C   0  0  0  0  0  0  0  0  0  0  0  0
    3.2175    1.7241   16.8423 C   0  0  0  0  0  0  0  0  0  0  0  0
    4.0621    1.2776   17.7941 O   0  0  0  0  0  0  0  0  0  0  0  0
    3.8757    1.1548   19.1375 C   0  0  0  0  0  0  0  0  0  0  0  0
    3.0980    0.1557   19.6702 C   0  0  0  0  0  0  0  0  0  0  0  0
    2.9492    0.0758   21.0489 C   0  0  0  0  0  0  0  0  0  0  0  0
    3.5515    0.9608   21.8847 C   0  0  0  0  0  0  0  0  0  0  0  0
    3.3961    0.8686   23.2260 F   0  0  0  0  0  0  0  0  0  0  0  0
    4.3285    1.9597   21.3352 C   0  0  0  0  0  0  0  0  0  0  0  0
    4.4950    2.0665   20.0032 C   0  0  0  0  0  0  0  0  0  0  0  0
 13 14  1  0  0  0
 14 15  1  0  0  0
 15 16  2  0  0  0
 15 17  1  0  0  0
 17  1  1  0  0  0
  1  2  1  0  0  0
  2  3  1  0  0  0
  3  4  1  0  0  0
  4  5  2  0  0  0
  5 20  1  0  0  0
 20 21  1  0  0  0
 21 22  1  0  0  0
 22 23  1  0  0  0
 23 24  1  0  0  0
 24 25  1  0  0  0
  5  6  1  0  0  0
  6  7  2  0  0  0
  6  8  1  0  0  0
  8 26  1  0  0  0
 26 27  1  0  0  0
 27 28  1  0  0  0
 28 29  1  0  0  0
 29 30  1  0  0  0
 30 31  2  0  0  0
 31 32  1  0  0  0
 32 33  2  0  0  0
 33 34  1  0  0  0
 33 35  1  0  0  0
 35 36  2  0  0  0
  8  9  1  0  0  0
  9 10  1  0  0  0
 10 11  1  0  0  0
 10  1  2  0  0  0
  9  3  2  0  0  0
 25 21  1  0  0  0
 36 30  1  0  0  0
 14 18  1  0  0  0
 17 19  1  0  0  0
  2 12  1  0  0  0
M  END
> <minimizedAffinity>
-6.82223

> <CNNscore>
0.0829176381

> <CNNaffinity>
5.8418259621

> <CNN_VS>
0.4843904078

> <CNNaffinity_variance>
0.1599886268

$$$$
[H]OC([H])([H])C([H])([H])N([H])C(=O)c1nc2c([H])c([H])c(OC3([H])N([H])S(=O)(=O)C3([H])[H])c([H])c2s1


 25 27  0  0  0  0  0  0  0  0999 V2000
    2.2955    3.2369   14.2663 C   0  0  0  0  0  0  0  0  0  0  0  0
    2.0890    2.0558   14.8212 N   0  0  0  0  0  0  0  0  0  0  0  0
    2.6154    1.7796   15.9779 C   0  0  0  0  0  0  0  0  0  0  0  0
    2.4834    0.5727   16.6864 C   0  0  0  0  0  0  0  0  0  0  0  0
    3.0712    0.3848   17.8837 C   0  0  0  0  0  0  0  0  0  0  0  0
    3.8527    1.3565   18.5201 C   0  0  0  0  0  0  0  0  0  0  0  0
    3.9816    2.5388   17.8255 C   0  0  0  0  0  0  0  0  0  0  0  0
    3.3747    2.7491   16.5764 C   0  0  0  0  0  0  0  0  0  0  0  0
    3.2831    4.0109   15.4257 S   0  0  0  0  0  0  0  0  0  0  0  0
    0.6432    3.2152   12.3750 N   0  0  0  0  0  0  0  0  0  0  0  0
    1.7941    3.7477   12.9706 C   0  0  0  0  0  0  0  0  0  0  0  0
    2.4367    4.6662   12.4367 O   0  0  0  0  0  0  0  0  0  0  0  0
    0.0838    2.4323   12.8064 H   0  0  0  0  0  0  0  0  0  0  0  0
    0.1558    3.7160   11.1242 C   0  0  0  0  0  0  0  0  0  0  0  0
   -1.5855    4.2245   12.5723 O   0  0  0  0  0  0  0  0  0  0  0  0
   -1.0475    4.5943   11.3115 C   0  0  0  0  0  0  0  0  0  0  0  0
   -1.4199    3.2585   12.7284 H   0  0  0  0  0  0  0  0  0  0  0  0
    4.4350    1.1415   19.7289 O   0  0  0  0  0  0  0  0  0  0  0  0
    4.2680    1.9662   20.8242 C   0  0  0  0  0  0  0  0  0  0  0  0
    3.6525    1.3096   21.9961 N   0  0  0  0  0  0  0  0  0  0  0  0
    4.3509    2.5780   22.9565 S   0  0  0  0  0  0  0  0  0  0  0  0
    3.7342    3.9173   22.7633 O   0  0  0  0  0  0  0  0  0  0  0  0
    4.7029    2.1942   24.3414 O   0  0  0  0  0  0  0  0  0  0  0  0
    5.5167    2.0995   21.7119 C   0  0  0  0  0  0  0  0  0  0  0  0
    4.1948    0.4271   22.1884 H   0  0  0  0  0  0  0  0  0  0  0  0
 15 16  1  0  0  0
 16 14  1  0  0  0
 14 10  1  0  0  0
 10 11  1  0  0  0
 11 12  2  0  0  0
 11  1  1  0  0  0
  1  2  2  0  0  0
  2  3  1  0  0  0
  3  4  2  0  0  0
  4  5  1  0  0  0
  5  6  2  0  0  0
  6 18  1  0  0  0
 18 19  1  0  0  0
 19 20  1  0  0  0
 20 21  1  0  0  0
 21 22  2  0  0  0
 21 23  2  0  0  0
 21 24  1  0  0  0
  6  7  1  0  0  0
  7  8  2  0  0  0
  8  9  1  0  0  0
  9  1  1  0  0  0
  8  3  1  0  0  0
 24 19  1  0  0  0
 15 17  1  0  0  0
 10 13  1  0  0  0
 20 25  1  0  0  0
M  END
> <minimizedAffinity>
-6.72930

> <CNNscore>
0.4408872128

> <CNNaffinity>
5.1768317223

> <CNN_VS>
2.2823989391

> <CNNaffinity_variance>
0.1532186270

$$$$
[H]OC([H])([H])C([H])([H])N([H])C(=O)c1nc2c([H])c([H])c(OC3([H])N([H])S(=O)(=O)C3([H])[H])c([H])c2s1


 25 27  0  0  0  0  0  0  0  0999 V2000
    3.6369    3.3000   14.4545 C   0  0  0  0  0  0  0  0  0  0  0  0
    3.1622    2.1172   14.8026 N   0  0  0  0  0  0  0  0  0  0  0  0
    3.2621    1.7132   16.0348 C   0  0  0  0  0  0  0  0  0  0  0  0
    2.8061    0.4870   16.5490 C   0  0  0  0  0  0  0  0  0  0  0  0
    2.9583    0.1612   17.8471 C   0  0  0  0  0  0  0  0  0  0  0  0
    3.5733    0.9988   18.7853 C   0  0  0  0  0  0  0  0  0  0  0  0
    4.0199    2.2000   18.2809 C   0  0  0  0  0  0  0  0  0  0  0  0
    3.8682    2.5534   16.9300 C   0  0  0  0  0  0  0  0  0  0  0  0
    4.2607    3.8862   15.9330 S   0  0  0  0  0  0  0  0  0  0  0  0
    4.7612    4.5885   12.6150 N   0  0  0  0  0  0  0  0  0  0  0  0
    3.6254    3.9425   13.1210 C   0  0  0  0  0  0  0  0  0  0  0  0
    2.5681    3.8838   12.4728 O   0  0  0  0  0  0  0  0  0  0  0  0
    5.6683    4.6556   13.1484 H   0  0  0  0  0  0  0  0  0  0  0  0
    4.7499    5.2036   11.3211 C   0  0  0  0  0  0  0  0  0  0  0  0
    5.3668    7.1516   12.4223 O   0  0  0  0  0  0  0  0  0  0  0  0
    4.4873    6.6792   11.4128 C   0  0  0  0  0  0  0  0  0  0  0  0
    5.4944    6.4417   13.1039 H   0  0  0  0  0  0  0  0  0  0  0  0
    3.7144    0.6461   20.0900 O   0  0  0  0  0  0  0  0  0  0  0  0
    3.7818    1.5506   21.1316 C   0  0  0  0  0  0  0  0  0  0  0  0
    3.3022    1.0278   22.4277 N   0  0  0  0  0  0  0  0  0  0  0  0
    4.2365    2.2874   23.1758 S   0  0  0  0  0  0  0  0  0  0  0  0
    3.7051    3.6614   22.9730 O   0  0  0  0  0  0  0  0  0  0  0  0
    4.7641    1.9628   24.5194 O   0  0  0  0  0  0  0  0  0  0  0  0
    5.1577    1.6281   21.8141 C   0  0  0  0  0  0  0  0  0  0  0  0
    3.7962    0.1144   22.6055 H   0  0  0  0  0  0  0  0  0  0  0  0
 15 16  1  0  0  0
 16 14  1  0  0  0
 14 10  1  0  0  0
 10 11  1  0  0  0
 11 12  2  0  0  0
 11  1  1  0  0  0
  1  2  2  0  0  0
  2  3  1  0  0  0
  3  4  2  0  0  0
  4  5  1  0  0  0
  5  6  2  0  0  0
  6 18  1  0  0  0
 18 19  1  0  0  0
 19 20  1  0  0  0
 20 21  1  0  0  0
 21 22  2  0  0  0
 21 23  2  0  0  0
 21 24  1  0  0  0
  6  7  1  0  0  0
  7  8  2  0  0  0
  8  9  1  0  0  0
  9  1  1  0  0  0
  8  3  1  0  0  0
 24 19  1  0  0  0
 15 17  1  0  0  0
 10 13  1  0  0  0
 20 25  1  0  0  0
M  END
> <minimizedAffinity>
-6.87765

> <CNNscore>
0.4400998354

> <CNNaffinity>
5.2372922897

> <CNN_VS>
2.3049314022

> <CNNaffinity_variance>
0.1539715528

$$$$
[H]OC([H])([H])C([H])([H])N([H])C(=O)c1nc2c([H])c([H])c(OC3([H])N([H])S(=O)(=O)C3([H])[H])c([H])c2s1


 25 27  0  0  0  0  0  0  0  0999 V2000
    4.1516    1.6987   18.7439 C   0  0  0  0  0  0  0  0  0  0  0  0
    4.4267    2.7367   17.9743 N   0  0  0  0  0  0  0  0  0  0  0  0
    4.0153    2.7591   16.7407 C   0  0  0  0  0  0  0  0  0  0  0  0
    4.2310    3.7895   15.8092 C   0  0  0  0  0  0  0  0  0  0  0  0
    3.7610    3.7167   14.5490 C   0  0  0  0  0  0  0  0  0  0  0  0
    3.0283    2.6281   14.0609 C   0  0  0  0  0  0  0  0  0  0  0  0
    2.8174    1.6189   14.9740 C   0  0  0  0  0  0  0  0  0  0  0  0
    3.3013    1.6808   16.2912 C   0  0  0  0  0  0  0  0  0  0  0  0
    3.2657    0.6916   17.6857 S   0  0  0  0  0  0  0  0  0  0  0  0
    5.6310    2.1140   20.7305 N   0  0  0  0  0  0  0  0  0  0  0  0
    4.5216    1.4762   20.1597 C   0  0  0  0  0  0  0  0  0  0  0  0
    3.8077    0.7018   20.8171 O   0  0  0  0  0  0  0  0  0  0  0  0
    6.2547    2.7716   20.1916 H   0  0  0  0  0  0  0  0  0  0  0  0
    5.9832    1.9025   22.1031 C   0  0  0  0  0  0  0  0  0  0  0  0
    6.4333    4.0524   22.8532 O   0  0  0  0  0  0  0  0  0  0  0  0
    5.4771    3.0108   22.9807 C   0  0  0  0  0  0  0  0  0  0  0  0
    7.3321    3.6564   22.7112 H   0  0  0  0  0  0  0  0  0  0  0  0
    2.5652    2.5793   12.7844 O   0  0  0  0  0  0  0  0  0  0  0  0
    1.8819    3.6110   12.1707 C   0  0  0  0  0  0  0  0  0  0  0  0
    1.2797    3.2567   10.8688 N   0  0  0  0  0  0  0  0  0  0  0  0
    0.2121    4.6078   11.1002 S   0  0  0  0  0  0  0  0  0  0  0  0
    0.8625    5.9410   10.9944 O   0  0  0  0  0  0  0  0  0  0  0  0
   -1.1255    4.4623   10.4848 O   0  0  0  0  0  0  0  0  0  0  0  0
    0.4319    3.7842   12.6528 C   0  0  0  0  0  0  0  0  0  0  0  0
    0.7169    2.3768   11.0068 H   0  0  0  0  0  0  0  0  0  0  0  0
 15 16  1  0  0  0
 16 14  1  0  0  0
 14 10  1  0  0  0
 10 11  1  0  0  0
 11 12  2  0  0  0
 11  1  1  0  0  0
  1  2  2  0  0  0
  2  3  1  0  0  0
  3  4  2  0  0  0
  4  5  1  0  0  0
  5  6  2  0  0  0
  6 18  1  0  0  0
 18 19  1  0  0  0
 19 20  1  0  0  0
 20 21  1  0  0  0
 21 22  2  0  0  0
 21 23  2  0  0  0
 21 24  1  0  0  0
  6  7  1  0  0  0
  7  8  2  0  0  0
  8  9  1  0  0  0
  9  1  1  0  0  0
  8  3  1  0  0  0
 24 19  1  0  0  0
 15 17  1  0  0  0
 10 13  1  0  0  0
 20 25  1  0  0  0
M  END
> <minimizedAffinity>
-6.00060

> <CNNscore>
0.4336650968

> <CNNaffinity>
5.0013656616

> <CNN_VS>
2.1689176559

> <CNNaffinity_variance>
0.1474867463

$$$$
[H]OC([H])([H])C([H])([H])N([H])C(=O)c1nc2c([H])c([H])c(OC3([H])N([H])S(=O)(=O)C3([H])[H])c([H])c2s1


 25 27  0  0  0  0  0  0  0  0999 V2000
    3.8772    2.3063   17.1834 C   0  0  0  0  0  0  0  0  0  0  0  0
    4.1157    3.3232   16.3744 N   0  0  0  0  0  0  0  0  0  0  0  0
    3.7349    3.2691   15.1320 C   0  0  0  0  0  0  0  0  0  0  0  0
    3.9184    4.2681   14.1603 C   0  0  0  0  0  0  0  0  0  0  0  0
    3.4849    4.1147   12.8942 C   0  0  0  0  0  0  0  0  0  0  0  0
    2.8241    2.9674   12.4391 C   0  0  0  0  0  0  0  0  0  0  0  0
    2.6446    1.9890   13.3916 C   0  0  0  0  0  0  0  0  0  0  0  0
    3.0912    2.1348   14.7153 C   0  0  0  0  0  0  0  0  0  0  0  0
    3.0735    1.2070   16.1517 S   0  0  0  0  0  0  0  0  0  0  0  0
    3.7885    1.0648   19.3649 N   0  0  0  0  0  0  0  0  0  0  0  0
    4.2229    2.1664   18.6159 C   0  0  0  0  0  0  0  0  0  0  0  0
    4.9127    3.0658   19.1229 O   0  0  0  0  0  0  0  0  0  0  0  0
    3.1982    0.2914   18.9582 H   0  0  0  0  0  0  0  0  0  0  0  0
    4.1302    0.9281   20.7496 C   0  0  0  0  0  0  0  0  0  0  0  0
    2.9878   -1.0866   20.9036 O   0  0  0  0  0  0  0  0  0  0  0  0
    3.0651    0.1940   21.5119 C   0  0  0  0  0  0  0  0  0  0  0  0
    3.1940   -1.0028   19.9365 H   0  0  0  0  0  0  0  0  0  0  0  0
    2.3966    2.8377   11.1557 O   0  0  0  0  0  0  0  0  0  0  0  0
    1.5763    1.8180   10.7143 C   0  0  0  0  0  0  0  0  0  0  0  0
    0.1557    2.1964   10.5660 N   0  0  0  0  0  0  0  0  0  0  0  0
    0.0039    0.8421    9.4883 S   0  0  0  0  0  0  0  0  0  0  0  0
    0.0919   -0.4894   10.1446 O   0  0  0  0  0  0  0  0  0  0  0  0
   -1.0102    0.9998    8.4224 O   0  0  0  0  0  0  0  0  0  0  0  0
    1.5578    1.6371    9.1873 C   0  0  0  0  0  0  0  0  0  0  0  0
    0.1187    3.0741    9.9843 H   0  0  0  0  0  0  0  0  0  0  0  0
 15 16  1  0  0  0
 16 14  1  0  0  0
 14 10  1  0  0  0
 10 11  1  0  0  0
 11 12  2  0  0  0
 11  1  1  0  0  0
  1  2  2  0  0  0
  2  3  1  0  0  0
  3  4  2  0  0  0
  4  5  1  0  0  0
  5  6  2  0  0  0
  6 18  1  0  0  0
 18 19  1  0  0  0
 19 20  1  0  0  0
 20 21  1  0  0  0
 21 22  2  0  0  0
 21 23  2  0  0  0
 21 24  1  0  0  0
  6  7  1  0  0  0
  7  8  2  0  0  0
  8  9  1  0  0  0
  9  1  1  0  0  0
  8  3  1  0  0  0
 24 19  1  0  0  0
 15 17  1  0  0  0
 10 13  1  0  0  0
 20 25  1  0  0  0
M  END
> <minimizedAffinity>
-5.77613

> <CNNscore>
0.4269993007

> <CNNaffinity>
4.9796419144

> <CNN_VS>
2.1263036728

> <CNNaffinity_variance>
0.1009013206

$$$$
[H]OC([H])([H])C([H])([H])N([H])C(=O)c1nc2c([H])c([H])c(OC3([H])N([H])S(=O)(=O)C3([H])[H])c([H])c2s1


 25 27  0  0  0  0  0  0  0  0999 V2000
    3.7763    4.1870   14.0539 C   0  0  0  0  0  0  0  0  0  0  0  0
    3.4108    2.9282   14.2192 N   0  0  0  0  0  0  0  0  0  0  0  0
    3.4309    2.3954   15.4054 C   0  0  0  0  0  0  0  0  0  0  0  0
    3.0720    1.0763   15.7323 C   0  0  0  0  0  0  0  0  0  0  0  0
    3.1278    0.6185   16.9979 C   0  0  0  0  0  0  0  0  0  0  0  0
    3.5409    1.4006   18.0832 C   0  0  0  0  0  0  0  0  0  0  0  0
    3.8925    2.6929   17.7623 C   0  0  0  0  0  0  0  0  0  0  0  0
    3.8393    3.1841   16.4475 C   0  0  0  0  0  0  0  0  0  0  0  0
    4.1723    4.6584   15.6476 S   0  0  0  0  0  0  0  0  0  0  0  0
    4.8772    4.8261   11.8888 N   0  0  0  0  0  0  0  0  0  0  0  0
    3.8259    4.9765   12.8028 C   0  0  0  0  0  0  0  0  0  0  0  0
    2.8975    5.7756   12.5998 O   0  0  0  0  0  0  0  0  0  0  0  0
    5.6787    4.1580   12.0414 H   0  0  0  0  0  0  0  0  0  0  0  0
    4.9195    5.5863   10.6752 C   0  0  0  0  0  0  0  0  0  0  0  0
    5.6561    4.7647    8.6331 O   0  0  0  0  0  0  0  0  0  0  0  0
    4.5231    4.7559    9.4886 C   0  0  0  0  0  0  0  0  0  0  0  0
    6.1303    5.6315    8.7264 H   0  0  0  0  0  0  0  0  0  0  0  0
    3.5882    0.9142   19.3512 O   0  0  0  0  0  0  0  0  0  0  0  0
    4.6345    1.1365   20.2251 C   0  0  0  0  0  0  0  0  0  0  0  0
    4.6669    2.4939   20.8078 N   0  0  0  0  0  0  0  0  0  0  0  0
    5.6392    1.8227   22.0819 S   0  0  0  0  0  0  0  0  0  0  0  0
    7.0144    1.4296   21.6749 O   0  0  0  0  0  0  0  0  0  0  0  0
    5.4910    2.4830   23.3977 O   0  0  0  0  0  0  0  0  0  0  0  0
    4.3693    0.6610   21.6633 C   0  0  0  0  0  0  0  0  0  0  0  0
    3.7117    2.6931   21.2053 H   0  0  0  0  0  0  0  0  0  0  0  0
 15 16  1  0  0  0
 16 14  1  0  0  0
 14 10  1  0  0  0
 10 11  1  0  0  0
 11 12  2  0  0  0
 11  1  1  0  0  0
  1  2  2  0  0  0
  2  3  1  0  0  0
  3  4  2  0  0  0
  4  5  1  0  0  0
  5  6  2  0  0  0
  6 18  1  0  0  0
 18 19  1  0  0  0
 19 20  1  0  0  0
 20 21  1  0  0  0
 21 22  2  0  0  0
 21 23  2  0  0  0
 21 24  1  0  0  0
  6  7  1  0  0  0
  7  8  2  0  0  0
  8  9  1  0  0  0
  9  1  1  0  0  0
  8  3  1  0  0  0
 24 19  1  0  0  0
 15 17  1  0  0  0
 10 13  1  0  0  0
 20 25  1  0  0  0
M  END
> <minimizedAffinity>
-5.88652

> <CNNscore>
0.4191839099

> <CNNaffinity>
5.1760950089

> <CNN_VS>
2.1697356701

> <CNNaffinity_variance>
0.0901400670

$$$$
[H]OC([H])([H])C([H])([H])N([H])C(=O)c1nc2c([H])c([H])c(OC3([H])N([H])S(=O)(=O)C3([H])[H])c([H])c2s1


 25 27  0  0  0  0  0  0  0  0999 V2000
    4.5598    2.0121   19.1165 C   0  0  0  0  0  0  0  0  0  0  0  0
    4.0117    1.3146   18.1375 N   0  0  0  0  0  0  0  0  0  0  0  0
    3.7711    1.8802   16.9913 C   0  0  0  0  0  0  0  0  0  0  0  0
    3.1955    1.2677   15.8646 C   0  0  0  0  0  0  0  0  0  0  0  0
    2.9869    1.9437   14.7184 C   0  0  0  0  0  0  0  0  0  0  0  0
    3.3182    3.2933   14.5478 C   0  0  0  0  0  0  0  0  0  0  0  0
    3.8821    3.8928   15.6521 C   0  0  0  0  0  0  0  0  0  0  0  0
    4.1056    3.2007   16.8538 C   0  0  0  0  0  0  0  0  0  0  0  0
    4.7522    3.5501   18.3979 S   0  0  0  0  0  0  0  0  0  0  0  0
    5.6769    2.3700   21.3373 N   0  0  0  0  0  0  0  0  0  0  0  0
    4.9123    1.5647   20.4827 C   0  0  0  0  0  0  0  0  0  0  0  0
    4.5019    0.4477   20.8369 O   0  0  0  0  0  0  0  0  0  0  0  0
    6.0407    3.3194   21.0577 H   0  0  0  0  0  0  0  0  0  0  0  0
    6.0110    1.9378   22.6618 C   0  0  0  0  0  0  0  0  0  0  0  0
    5.0811    3.9008   23.4799 O   0  0  0  0  0  0  0  0  0  0  0  0
    5.0605    2.4956   23.6815 C   0  0  0  0  0  0  0  0  0  0  0  0
    5.9844    4.1745   23.1735 H   0  0  0  0  0  0  0  0  0  0  0  0
    3.0972    3.9524   13.3803 O   0  0  0  0  0  0  0  0  0  0  0  0
    4.0790    4.2192   12.4462 C   0  0  0  0  0  0  0  0  0  0  0  0
    3.7859    3.7135   11.0891 N   0  0  0  0  0  0  0  0  0  0  0  0
    4.9327    4.8819   10.5071 S   0  0  0  0  0  0  0  0  0  0  0  0
    6.3501    4.5862   10.8463 O   0  0  0  0  0  0  0  0  0  0  0  0
    4.6618    5.4035    9.1493 O   0  0  0  0  0  0  0  0  0  0  0  0
    3.9843    5.6162   11.8103 C   0  0  0  0  0  0  0  0  0  0  0  0
    2.8234    4.0504   10.8244 H   0  0  0  0  0  0  0  0  0  0  0  0
 15 16  1  0  0  0
 16 14  1  0  0  0
 14 10  1  0  0  0
 10 11  1  0  0  0
 11 12  2  0  0  0
 11  1  1  0  0  0
  1  2  2  0  0  0
  2  3  1  0  0  0
  3  4  2  0  0  0
  4  5  1  0  0  0
  5  6  2  0  0  0
  6 18  1  0  0  0
 18 19  1  0  0  0
 19 20  1  0  0  0
 20 21  1  0  0  0
 21 22  2  0  0  0
 21 23  2  0  0  0
 21 24  1  0  0  0
  6  7  1  0  0  0
  7  8  2  0  0  0
  8  9  1  0  0  0
  9  1  1  0  0  0
  8  3  1  0  0  0
 24 19  1  0  0  0
 15 17  1  0  0  0
 10 13  1  0  0  0
 20 25  1  0  0  0
M  END
> <minimizedAffinity>
-6.11901

> <CNNscore>
0.3216500282

> <CNNaffinity>
4.9798574448

> <CNN_VS>
1.6017712355

> <CNNaffinity_variance>
0.1137336642

$$$$
[H]OC([H])([H])C([H])([H])N([H])C(=O)c1nc2c([H])c([H])c(OC3([H])N([H])S(=O)(=O)C3([H])[H])c([H])c2s1


 25 27  0  0  0  0  0  0  0  0999 V2000
    4.1723    3.0474   19.0769 C   0  0  0  0  0  0  0  0  0  0  0  0
    3.6573    3.8844   18.1939 N   0  0  0  0  0  0  0  0  0  0  0  0
    3.2846    3.4499   17.0261 C   0  0  0  0  0  0  0  0  0  0  0  0
    2.7236    4.2185   15.9914 C   0  0  0  0  0  0  0  0  0  0  0  0
    2.3692    3.6710   14.8129 C   0  0  0  0  0  0  0  0  0  0  0  0
    2.5244    2.3115   14.5164 C   0  0  0  0  0  0  0  0  0  0  0  0
    3.0741    1.5591   15.5304 C   0  0  0  0  0  0  0  0  0  0  0  0
    3.4484    2.1160   16.7644 C   0  0  0  0  0  0  0  0  0  0  0  0
    4.1356    1.5641   18.2299 S   0  0  0  0  0  0  0  0  0  0  0  0
    4.1250    2.6648   21.5587 N   0  0  0  0  0  0  0  0  0  0  0  0
    4.6545    3.3332   20.4468 C   0  0  0  0  0  0  0  0  0  0  0  0
    5.5461    4.1889   20.5668 O   0  0  0  0  0  0  0  0  0  0  0  0
    3.3645    1.9383   21.4826 H   0  0  0  0  0  0  0  0  0  0  0  0
    4.5982    2.9381   22.8831 C   0  0  0  0  0  0  0  0  0  0  0  0
    4.6797    5.2016   23.3906 O   0  0  0  0  0  0  0  0  0  0  0  0
    3.8380    4.0656   23.5200 C   0  0  0  0  0  0  0  0  0  0  0  0
    5.6282    4.9132   23.4342 H   0  0  0  0  0  0  0  0  0  0  0  0
    2.1584    1.7840   13.3187 O   0  0  0  0  0  0  0  0  0  0  0  0
    1.8472    2.5392   12.2049 C   0  0  0  0  0  0  0  0  0  0  0  0
    2.9817    2.7722   11.2874 N   0  0  0  0  0  0  0  0  0  0  0  0
    1.7988    3.0914   10.0553 S   0  0  0  0  0  0  0  0  0  0  0  0
    1.0414    4.3588   10.2322 O   0  0  0  0  0  0  0  0  0  0  0  0
    2.2184    2.7461    8.6791 O   0  0  0  0  0  0  0  0  0  0  0  0
    1.2370    1.7343   11.0453 C   0  0  0  0  0  0  0  0  0  0  0  0
    3.4187    1.8370   11.0769 H   0  0  0  0  0  0  0  0  0  0  0  0
 15 16  1  0  0  0
 16 14  1  0  0  0
 14 10  1  0  0  0
 10 11  1  0  0  0
 11 12  2  0  0  0
 11  1  1  0  0  0
  1  2  2  0  0  0
  2  3  1  0  0  0
  3  4  2  0  0  0
  4  5  1  0  0  0
  5  6  2  0  0  0
  6 18  1  0  0  0
 18 19  1  0  0  0
 19 20  1  0  0  0
 20 21  1  0  0  0
 21 22  2  0  0  0
 21 23  2  0  0  0
 21 24  1  0  0  0
  6  7  1  0  0  0
  7  8  2  0  0  0
  8  9  1  0  0  0
  9  1  1  0  0  0
  8  3  1  0  0  0
 24 19  1  0  0  0
 15 17  1  0  0  0
 10 13  1  0  0  0
 20 25  1  0  0  0
M  END
> <minimizedAffinity>
-5.84840

> <CNNscore>
0.3139175773

> <CNNaffinity>
4.9686398506

> <CNN_VS>
1.5597434044

> <CNNaffinity_variance>
0.1211019754

$$$$
[H]OC([H])([H])C([H])([H])N([H])C(=O)c1nc2c([H])c([H])c(OC3([H])N([H])S(=O)(=O)C3([H])[H])c([H])c2s1


 25 27  0  0  0  0  0  0  0  0999 V2000
    2.3658    3.6142   15.1582 C   0  0  0  0  0  0  0  0  0  0  0  0
    2.7021    4.3682   16.1896 N   0  0  0  0  0  0  0  0  0  0  0  0
    3.3606    3.8522   17.1854 C   0  0  0  0  0  0  0  0  0  0  0  0
    3.7842    4.5274   18.3433 C   0  0  0  0  0  0  0  0  0  0  0  0
    4.4639    3.8997   19.3221 C   0  0  0  0  0  0  0  0  0  0  0  0
    4.8044    2.5424   19.2764 C   0  0  0  0  0  0  0  0  0  0  0  0
    4.3892    1.8815   18.1417 C   0  0  0  0  0  0  0  0  0  0  0  0
    3.6797    2.5227   17.1130 C   0  0  0  0  0  0  0  0  0  0  0  0
    3.0055    2.0933   15.6012 S   0  0  0  0  0  0  0  0  0  0  0  0
    1.5977    5.3277   13.4903 N   0  0  0  0  0  0  0  0  0  0  0  0
    1.6242    3.9998   13.9366 C   0  0  0  0  0  0  0  0  0  0  0  0
    1.0284    3.0972   13.3267 O   0  0  0  0  0  0  0  0  0  0  0  0
    2.0915    6.1119   13.9934 H   0  0  0  0  0  0  0  0  0  0  0  0
    0.8850    5.6974   12.3037 C   0  0  0  0  0  0  0  0  0  0  0  0
   -0.6777    6.6820   13.7094 O   0  0  0  0  0  0  0  0  0  0  0  0
    0.0549    6.9299   12.5187 C   0  0  0  0  0  0  0  0  0  0  0  0
   -0.8742    5.7116   13.7769 H   0  0  0  0  0  0  0  0  0  0  0  0
    5.4912    1.9328   20.2780 O   0  0  0  0  0  0  0  0  0  0  0  0
    5.2245    2.1167   21.6207 C   0  0  0  0  0  0  0  0  0  0  0  0
    5.2780    3.5240   22.0677 N   0  0  0  0  0  0  0  0  0  0  0  0
    4.2957    3.0358   23.4152 S   0  0  0  0  0  0  0  0  0  0  0  0
    4.9881    2.1767   24.4121 O   0  0  0  0  0  0  0  0  0  0  0  0
    3.3908    4.0810   23.9425 O   0  0  0  0  0  0  0  0  0  0  0  0
    3.7274    2.1956   21.9632 C   0  0  0  0  0  0  0  0  0  0  0  0
    4.6711    4.0884   21.4172 H   0  0  0  0  0  0  0  0  0  0  0  0
 15 16  1  0  0  0
 16 14  1  0  0  0
 14 10  1  0  0  0
 10 11  1  0  0  0
 11 12  2  0  0  0
 11  1  1  0  0  0
  1  2  2  0  0  0
  2  3  1  0  0  0
  3  4  2  0  0  0
  4  5  1  0  0  0
  5  6  2  0  0  0
  6 18  1  0  0  0
 18 19  1  0  0  0
 19 20  1  0  0  0
 20 21  1  0  0  0
 21 22  2  0  0  0
 21 23  2  0  0  0
 21 24  1  0  0  0
  6  7  1  0  0  0
  7  8  2  0  0  0
  8  9  1  0  0  0
  9  1  1  0  0  0
  8  3  1  0  0  0
 24 19  1  0  0  0
 15 17  1  0  0  0
 10 13  1  0  0  0
 20 25  1  0  0  0
M  END
> <minimizedAffinity>
-6.14010

> <CNNscore>
0.2990047038

> <CNNaffinity>
5.0784120560

> <CNN_VS>
1.5184690952

> <CNNaffinity_variance>
0.0698751062

$$$$
[H]OC([H])([H])C([H])([H])N([H])C(=O)c1nc2c([H])c([H])c(OC3([H])N([H])S(=O)(=O)C3([H])[H])c([H])c2s1


 25 27  0  0  0  0  0  0  0  0999 V2000
    4.6488    2.0458   19.1524 C   0  0  0  0  0  0  0  0  0  0  0  0
    3.9780    1.2900   18.3013 N   0  0  0  0  0  0  0  0  0  0  0  0
    3.6722    1.7501   17.1239 C   0  0  0  0  0  0  0  0  0  0  0  0
    2.9663    1.0654   16.1195 C   0  0  0  0  0  0  0  0  0  0  0  0
    2.6988    1.6329   14.9276 C   0  0  0  0  0  0  0  0  0  0  0  0
    3.0921    2.9326   14.5867 C   0  0  0  0  0  0  0  0  0  0  0  0
    3.7836    3.6029   15.5712 C   0  0  0  0  0  0  0  0  0  0  0  0
    4.0699    3.0242   16.8186 C   0  0  0  0  0  0  0  0  0  0  0  0
    4.8674    3.4857   18.2592 S   0  0  0  0  0  0  0  0  0  0  0  0
    5.5597    2.7118   21.3962 N   0  0  0  0  0  0  0  0  0  0  0  0
    5.0919    1.7181   20.5261 C   0  0  0  0  0  0  0  0  0  0  0  0
    5.0310    0.5273   20.8723 O   0  0  0  0  0  0  0  0  0  0  0  0
    5.6251    3.7284   21.1237 H   0  0  0  0  0  0  0  0  0  0  0  0
    5.9815    2.3933   22.7278 C   0  0  0  0  0  0  0  0  0  0  0  0
    4.6150    4.0038   23.6904 O   0  0  0  0  0  0  0  0  0  0  0  0
    4.8786    2.6091   23.7236 C   0  0  0  0  0  0  0  0  0  0  0  0
    5.4566    4.4916   23.4940 H   0  0  0  0  0  0  0  0  0  0  0  0
    2.8093    3.4820   13.3764 O   0  0  0  0  0  0  0  0  0  0  0  0
    1.5689    3.9764   13.0235 C   0  0  0  0  0  0  0  0  0  0  0  0
    1.2360    5.2825   13.6290 N   0  0  0  0  0  0  0  0  0  0  0  0
    0.0824    5.4789   12.3446 S   0  0  0  0  0  0  0  0  0  0  0  0
   -1.1013    4.5826   12.4280 O   0  0  0  0  0  0  0  0  0  0  0  0
   -0.1624    6.8781   11.9305 O   0  0  0  0  0  0  0  0  0  0  0  0
    1.5468    4.7324   11.6846 C   0  0  0  0  0  0  0  0  0  0  0  0
    2.0404    5.9360   13.4393 H   0  0  0  0  0  0  0  0  0  0  0  0
 15 16  1  0  0  0
 16 14  1  0  0  0
 14 10  1  0  0  0
 10 11  1  0  0  0
 11 12  2  0  0  0
 11  1  1  0  0  0
  1  2  2  0  0  0
  2  3  1  0  0  0
  3  4  2  0  0  0
  4  5  1  0  0  0
  5  6  2  0  0  0
  6 18  1  0  0  0
 18 19  1  0  0  0
 19 20  1  0  0  0
 20 21  1  0  0  0
 21 22  2  0  0  0
 21 23  2  0  0  0
 21 24  1  0  0  0
  6  7  1  0  0  0
  7  8  2  0  0  0
  8  9  1  0  0  0
  9  1  1  0  0  0
  8  3  1  0  0  0
 24 19  1  0  0  0
 15 17  1  0  0  0
 10 13  1  0  0  0
 20 25  1  0  0  0
M  END
> <minimizedAffinity>
-6.53081

> <CNNscore>
0.2920746803

> <CNNaffinity>
5.0186557770

> <CNN_VS>
1.4658223391

> <CNNaffinity_variance>
0.1059369817

$$$$
[H]SC([H])([H])C(=O)C([H])(C(=N\c1c([H])c([H])c([H])c([H])c1[H])/C([H])=C(\[H])C(=O)N([H])C([H])([H])[H])C([H])([H])C([H])([H])C([H])([H])C([H])([H])N([H])[H]


 28 28  0  0  0  0  0  0  0  0999 V2000
    4.2893    3.3288   18.9852 C   0  0  0  0  0  0  0  0  0  0  0  0
    4.2770    2.4549   19.8522 N   0  0  0  0  0  0  0  0  0  0  0  0
    4.7088    2.2989   21.1247 C   0  0  0  0  0  0  0  0  0  0  0  0
    3.8356    2.0043   22.1587 C   0  0  0  0  0  0  0  0  0  0  0  0
    4.2586    1.8920   23.4715 C   0  0  0  0  0  0  0  0  0  0  0  0
    5.5828    2.0755   23.7775 C   0  0  0  0  0  0  0  0  0  0  0  0
    6.4710    2.3665   22.7870 C   0  0  0  0  0  0  0  0  0  0  0  0
    6.0377    2.4773   21.4725 C   0  0  0  0  0  0  0  0  0  0  0  0
    3.8792    1.8963   17.0002 C   0  0  0  0  0  0  0  0  0  0  0  0
    3.6439    2.9662   17.6955 C   0  0  0  0  0  0  0  0  0  0  0  0
    2.6733    2.1023   13.3512 C   0  0  0  0  0  0  0  0  0  0  0  0
    3.4090    2.4072   14.5898 N   0  0  0  0  0  0  0  0  0  0  0  0
    3.1888    1.6472   15.7505 C   0  0  0  0  0  0  0  0  0  0  0  0
    2.3553    0.7066   15.7086 O   0  0  0  0  0  0  0  0  0  0  0  0
    4.0717    3.2128   14.4926 H   0  0  0  0  0  0  0  0  0  0  0  0
    4.8230    4.6733   19.1918 C   0  0  0  0  0  0  0  0  0  0  0  0
    5.2963    5.1906   17.8285 C   0  0  0  0  0  0  0  0  0  0  0  0
    6.2576    4.6677   17.3291 O   0  0  0  0  0  0  0  0  0  0  0  0
    4.6326    6.2847   17.1244 C   0  0  0  0  0  0  0  0  0  0  0  0
    5.7362    7.7427   16.9878 S   0  0  0  0  0  0  0  0  0  0  0  0
    6.8216    7.4728   16.1493 H   0  0  0  0  0  0  0  0  0  0  0  0
    3.9154    5.7106   19.7844 C   0  0  0  0  0  0  0  0  0  0  0  0
    4.1702    5.7807   21.3051 C   0  0  0  0  0  0  0  0  0  0  0  0
    5.5512    6.3694   21.5393 C   0  0  0  0  0  0  0  0  0  0  0  0
    5.5853    7.8413   21.2287 C   0  0  0  0  0  0  0  0  0  0  0  0
    4.5911    8.5719   22.0171 N   0  0  0  0  0  0  0  0  0  0  0  0
    4.8480    8.6187   23.0236 H   0  0  0  0  0  0  0  0  0  0  0  0
    4.5017    9.5495   21.6709 H   0  0  0  0  0  0  0  0  0  0  0  0
 11 12  1  0  0  0
 12 13  1  0  0  0
 13 14  2  0  0  0
 13  9  1  0  0  0
  9 10  2  0  0  0
 10  1  1  0  0  0
  1  2  2  0  0  0
  2  3  1  0  0  0
  3  4  2  0  0  0
  4  5  1  0  0  0
  5  6  2  0  0  0
  6  7  1  0  0  0
  7  8  2  0  0  0
  1 16  1  0  0  0
 16 22  1  0  0  0
 22 23  1  0  0  0
 23 24  1  0  0  0
 24 25  1  0  0  0
 25 26  1  0  0  0
 16 17  1  0  0  0
 17 18  2  0  0  0
 17 19  1  0  0  0
 19 20  1  0  0  0
  8  3  1  0  0  0
 12 15  1  0  0  0
 26 27  1  0  0  0
 26 28  1  0  0  0
 20 21  1  0  0  0
M  END
> <minimizedAffinity>
-6.54402

> <CNNscore>
0.4591390491

> <CNNaffinity>
5.9068078995

> <CNN_VS>
2.7120461464

> <CNNaffinity_variance>
0.0749309286

$$$$
[H]SC([H])([H])C(=O)C([H])(C(=N\c1c([H])c([H])c([H])c([H])c1[H])/C([H])=C(\[H])C(=O)N([H])C([H])([H])[H])C([H])([H])C([H])([H])C([H])([H])C([H])([H])N([H])[H]


 28 28  0  0  0  0  0  0  0  0999 V2000
    4.3424    4.2353   19.1290 C   0  0  0  0  0  0  0  0  0  0  0  0
    4.5799    3.1640   19.6871 N   0  0  0  0  0  0  0  0  0  0  0  0
    4.7998    2.7156   20.9445 C   0  0  0  0  0  0  0  0  0  0  0  0
    3.7555    2.4311   21.8088 C   0  0  0  0  0  0  0  0  0  0  0  0
    3.9689    2.0200   23.1127 C   0  0  0  0  0  0  0  0  0  0  0  0
    5.2504    1.8843   23.5821 C   0  0  0  0  0  0  0  0  0  0  0  0
    6.3027    2.1551   22.7610 C   0  0  0  0  0  0  0  0  0  0  0  0
    6.0792    2.5671   21.4540 C   0  0  0  0  0  0  0  0  0  0  0  0
    3.2280    3.5576   17.0174 C   0  0  0  0  0  0  0  0  0  0  0  0
    4.1792    4.1704   17.6525 C   0  0  0  0  0  0  0  0  0  0  0  0
    4.0007    4.1820   13.2992 C   0  0  0  0  0  0  0  0  0  0  0  0
    4.1169    4.2182   14.7667 N   0  0  0  0  0  0  0  0  0  0  0  0
    3.1707    3.5594   15.5693 C   0  0  0  0  0  0  0  0  0  0  0  0
    2.2287    2.9418   15.0104 O   0  0  0  0  0  0  0  0  0  0  0  0
    4.9438    4.7652   15.1053 H   0  0  0  0  0  0  0  0  0  0  0  0
    4.1493    5.4979   19.8388 C   0  0  0  0  0  0  0  0  0  0  0  0
    5.5318    5.9846   20.2883 C   0  0  0  0  0  0  0  0  0  0  0  0
    6.4257    5.9666   19.4837 O   0  0  0  0  0  0  0  0  0  0  0  0
    5.8003    6.4601   21.6430 C   0  0  0  0  0  0  0  0  0  0  0  0
    7.1471    7.7044   21.6471 S   0  0  0  0  0  0  0  0  0  0  0  0
    6.7475    8.8775   21.0006 H   0  0  0  0  0  0  0  0  0  0  0  0
    3.4834    6.6255   19.1067 C   0  0  0  0  0  0  0  0  0  0  0  0
    4.5354    7.7169   18.8165 C   0  0  0  0  0  0  0  0  0  0  0  0
    4.1435    8.9801   19.5646 C   0  0  0  0  0  0  0  0  0  0  0  0
    3.2096    9.8365   18.7532 C   0  0  0  0  0  0  0  0  0  0  0  0
    3.3843    9.5986   17.3191 N   0  0  0  0  0  0  0  0  0  0  0  0
    3.0289    8.6645   17.0318 H   0  0  0  0  0  0  0  0  0  0  0  0
    2.8666   10.3137   16.7677 H   0  0  0  0  0  0  0  0  0  0  0  0
 11 12  1  0  0  0
 12 13  1  0  0  0
 13 14  2  0  0  0
 13  9  1  0  0  0
  9 10  2  0  0  0
 10  1  1  0  0  0
  1  2  2  0  0  0
  2  3  1  0  0  0
  3  4  2  0  0  0
  4  5  1  0  0  0
  5  6  2  0  0  0
  6  7  1  0  0  0
  7  8  2  0  0  0
  1 16  1  0  0  0
 16 22  1  0  0  0
 22 23  1  0  0  0
 23 24  1  0  0  0
 24 25  1  0  0  0
 25 26  1  0  0  0
 16 17  1  0  0  0
 17 18  2  0  0  0
 17 19  1  0  0  0
 19 20  1  0  0  0
  8  3  1  0  0  0
 12 15  1  0  0  0
 26 27  1  0  0  0
 26 28  1  0  0  0
 20 21  1  0  0  0
M  END
> <minimizedAffinity>
-5.91342

> <CNNscore>
0.4278373718

> <CNNaffinity>
5.8172354698

> <CNN_VS>
2.4888308048

> <CNNaffinity_variance>
0.1685611755

$$$$
[H]SC([H])([H])C(=O)C([H])(C(=N\c1c([H])c([H])c([H])c([H])c1[H])/C([H])=C(\[H])C(=O)N([H])C([H])([H])[H])C([H])([H])C([H])([H])C([H])([H])C([H])([H])N([H])[H]


 28 28  0  0  0  0  0  0  0  0999 V2000
    4.8072    3.8296   18.7793 C   0  0  0  0  0  0  0  0  0  0  0  0
    4.7640    2.7610   19.3890 N   0  0  0  0  0  0  0  0  0  0  0  0
    4.8369    2.3344   20.6708 C   0  0  0  0  0  0  0  0  0  0  0  0
    3.7088    1.9441   21.3733 C   0  0  0  0  0  0  0  0  0  0  0  0
    3.7647    1.5538   22.6997 C   0  0  0  0  0  0  0  0  0  0  0  0
    4.9685    1.5473   23.3567 C   0  0  0  0  0  0  0  0  0  0  0  0
    6.0994    1.9248   22.6984 C   0  0  0  0  0  0  0  0  0  0  0  0
    6.0340    2.3149   21.3674 C   0  0  0  0  0  0  0  0  0  0  0  0
    3.7455    3.0868   16.6623 C   0  0  0  0  0  0  0  0  0  0  0  0
    4.6705    3.7344   17.3016 C   0  0  0  0  0  0  0  0  0  0  0  0
    4.0174    4.0719   12.9518 C   0  0  0  0  0  0  0  0  0  0  0  0
    4.0739    4.1631   14.4205 N   0  0  0  0  0  0  0  0  0  0  0  0
    3.7126    3.0614   15.2137 C   0  0  0  0  0  0  0  0  0  0  0  0
    3.3426    2.0025   14.6455 O   0  0  0  0  0  0  0  0  0  0  0  0
    4.3972    5.0974   14.7672 H   0  0  0  0  0  0  0  0  0  0  0  0
    4.9075    5.1345   19.4292 C   0  0  0  0  0  0  0  0  0  0  0  0
    5.0425    6.1863   18.3221 C   0  0  0  0  0  0  0  0  0  0  0  0
    4.0370    6.6941   17.9002 O   0  0  0  0  0  0  0  0  0  0  0  0
    6.3321    6.5865   17.7650 C   0  0  0  0  0  0  0  0  0  0  0  0
    6.2732    8.3117   17.1467 S   0  0  0  0  0  0  0  0  0  0  0  0
    6.1177    9.2168   18.2005 H   0  0  0  0  0  0  0  0  0  0  0  0
    3.7884    5.5623   20.3322 C   0  0  0  0  0  0  0  0  0  0  0  0
    4.3285    5.6669   21.7743 C   0  0  0  0  0  0  0  0  0  0  0  0
    5.8297    5.8943   21.7152 C   0  0  0  0  0  0  0  0  0  0  0  0
    6.1950    7.2908   22.1397 C   0  0  0  0  0  0  0  0  0  0  0  0
    6.6083    7.3264   23.5438 N   0  0  0  0  0  0  0  0  0  0  0  0
    7.5318    6.8718   23.6911 H   0  0  0  0  0  0  0  0  0  0  0  0
    6.6877    8.3106   23.8732 H   0  0  0  0  0  0  0  0  0  0  0  0
 11 12  1  0  0  0
 12 13  1  0  0  0
 13 14  2  0  0  0
 13  9  1  0  0  0
  9 10  2  0  0  0
 10  1  1  0  0  0
  1  2  2  0  0  0
  2  3  1  0  0  0
  3  4  2  0  0  0
  4  5  1  0  0  0
  5  6  2  0  0  0
  6  7  1  0  0  0
  7  8  2  0  0  0
  1 16  1  0  0  0
 16 22  1  0  0  0
 22 23  1  0  0  0
 23 24  1  0  0  0
 24 25  1  0  0  0
 25 26  1  0  0  0
 16 17  1  0  0  0
 17 18  2  0  0  0
 17 19  1  0  0  0
 19 20  1  0  0  0
  8  3  1  0  0  0
 12 15  1  0  0  0
 26 27  1  0  0  0
 26 28  1  0  0  0
 20 21  1  0  0  0
M  END
> <minimizedAffinity>
-6.21037

> <CNNscore>
0.3986589313

> <CNNaffinity>
5.9160876274

> <CNN_VS>
2.3585011959

> <CNNaffinity_variance>
0.1839990169

$$$$
[H]SC([H])([H])C(=O)C([H])(C(=N\c1c([H])c([H])c([H])c([H])c1[H])/C([H])=C(\[H])C(=O)N([H])C([H])([H])[H])C([H])([H])C([H])([H])C([H])([H])C([H])([H])N([H])[H]


 28 28  0  0  0  0  0  0  0  0999 V2000
    4.4152    5.6947   19.2927 C   0  0  0  0  0  0  0  0  0  0  0  0
    4.0228    4.7350   19.9564 N   0  0  0  0  0  0  0  0  0  0  0  0
    4.3010    4.1598   21.1490 C   0  0  0  0  0  0  0  0  0  0  0  0
    3.6602    4.5511   22.3129 C   0  0  0  0  0  0  0  0  0  0  0  0
    3.9723    4.0051   23.5455 C   0  0  0  0  0  0  0  0  0  0  0  0
    4.9458    3.0435   23.6367 C   0  0  0  0  0  0  0  0  0  0  0  0
    5.5976    2.6334   22.5134 C   0  0  0  0  0  0  0  0  0  0  0  0
    5.2780    3.1868   21.2807 C   0  0  0  0  0  0  0  0  0  0  0  0
    3.7262    5.0490   16.9974 C   0  0  0  0  0  0  0  0  0  0  0  0
    3.7387    5.8923   17.9834 C   0  0  0  0  0  0  0  0  0  0  0  0
    2.9353    5.9114   13.3310 C   0  0  0  0  0  0  0  0  0  0  0  0
    3.7002    5.6103   14.5527 N   0  0  0  0  0  0  0  0  0  0  0  0
    3.0326    5.3508   15.7612 C   0  0  0  0  0  0  0  0  0  0  0  0
    1.7757    5.3809   15.7763 O   0  0  0  0  0  0  0  0  0  0  0  0
    4.7376    5.6167   14.4064 H   0  0  0  0  0  0  0  0  0  0  0  0
    5.4222    6.6473   19.7552 C   0  0  0  0  0  0  0  0  0  0  0  0
    6.3922    6.8861   18.5923 C   0  0  0  0  0  0  0  0  0  0  0  0
    6.9698    5.9354   18.1347 O   0  0  0  0  0  0  0  0  0  0  0  0
    6.6401    8.2108   18.0292 C   0  0  0  0  0  0  0  0  0  0  0  0
    6.0201    8.3186   16.3070 S   0  0  0  0  0  0  0  0  0  0  0  0
    4.6248    8.2434   16.2710 H   0  0  0  0  0  0  0  0  0  0  0  0
    4.9560    7.9868   20.2442 C   0  0  0  0  0  0  0  0  0  0  0  0
    5.1927    8.0676   21.7672 C   0  0  0  0  0  0  0  0  0  0  0  0
    6.3026    7.0984   22.1381 C   0  0  0  0  0  0  0  0  0  0  0  0
    7.3461    7.7558   23.0002 C   0  0  0  0  0  0  0  0  0  0  0  0
    6.8323    8.0188   24.3457 N   0  0  0  0  0  0  0  0  0  0  0  0
    6.7055    7.1441   24.8936 H   0  0  0  0  0  0  0  0  0  0  0  0
    7.4930    8.6258   24.8734 H   0  0  0  0  0  0  0  0  0  0  0  0
 11 12  1  0  0  0
 12 13  1  0  0  0
 13 14  2  0  0  0
 13  9  1  0  0  0
  9 10  2  0  0  0
 10  1  1  0  0  0
  1  2  2  0  0  0
  2  3  1  0  0  0
  3  4  2  0  0  0
  4  5  1  0  0  0
  5  6  2  0  0  0
  6  7  1  0  0  0
  7  8  2  0  0  0
  1 16  1  0  0  0
 16 22  1  0  0  0
 22 23  1  0  0  0
 23 24  1  0  0  0
 24 25  1  0  0  0
 25 26  1  0  0  0
 16 17  1  0  0  0
 17 18  2  0  0  0
 17 19  1  0  0  0
 19 20  1  0  0  0
  8  3  1  0  0  0
 12 15  1  0  0  0
 26 27  1  0  0  0
 26 28  1  0  0  0
 20 21  1  0  0  0
M  END
> <minimizedAffinity>
-5.84658

> <CNNscore>
0.3855468035

> <CNNaffinity>
5.6907968521

> <CNN_VS>
2.1940684319

> <CNNaffinity_variance>
0.0567571707

$$$$
[H]SC([H])([H])C(=O)C([H])(C(=N\c1c([H])c([H])c([H])c([H])c1[H])/C([H])=C(\[H])C(=O)N([H])C([H])([H])[H])C([H])([H])C([H])([H])C([H])([H])C([H])([H])N([H])[H]


 28 28  0  0  0  0  0  0  0  0999 V2000
    3.4224    4.1971   14.3916 C   0  0  0  0  0  0  0  0  0  0  0  0
    3.9233    3.1493   14.8001 N   0  0  0  0  0  0  0  0  0  0  0  0
    3.6904    2.2398   15.7742 C   0  0  0  0  0  0  0  0  0  0  0  0
    2.7430    1.2404   15.6255 C   0  0  0  0  0  0  0  0  0  0  0  0
    2.4612    0.3358   16.6340 C   0  0  0  0  0  0  0  0  0  0  0  0
    3.1325    0.4164   17.8272 C   0  0  0  0  0  0  0  0  0  0  0  0
    4.0712    1.3860   18.0100 C   0  0  0  0  0  0  0  0  0  0  0  0
    4.3475    2.2896   16.9926 C   0  0  0  0  0  0  0  0  0  0  0  0
    4.4844    4.2228   12.1485 C   0  0  0  0  0  0  0  0  0  0  0  0
    4.1056    4.8285   13.2316 C   0  0  0  0  0  0  0  0  0  0  0  0
    6.5440    6.7962   10.1615 C   0  0  0  0  0  0  0  0  0  0  0  0
    5.8960    6.1115   11.2928 N   0  0  0  0  0  0  0  0  0  0  0  0
    5.1467    4.9427   11.0791 C   0  0  0  0  0  0  0  0  0  0  0  0
    5.0425    4.4967    9.9081 O   0  0  0  0  0  0  0  0  0  0  0  0
    6.0590    6.5839   12.2137 H   0  0  0  0  0  0  0  0  0  0  0  0
    2.1945    4.7771   14.9310 C   0  0  0  0  0  0  0  0  0  0  0  0
    2.5214    5.3202   16.3268 C   0  0  0  0  0  0  0  0  0  0  0  0
    1.8784    4.9103   17.2570 O   0  0  0  0  0  0  0  0  0  0  0  0
    3.5705    6.3084   16.5647 C   0  0  0  0  0  0  0  0  0  0  0  0
    3.7965    6.6067   18.3597 S   0  0  0  0  0  0  0  0  0  0  0  0
    4.3140    5.4741   18.9947 H   0  0  0  0  0  0  0  0  0  0  0  0
    1.5327    5.8779   14.1556 C   0  0  0  0  0  0  0  0  0  0  0  0
    0.7133    5.2511   13.0076 C   0  0  0  0  0  0  0  0  0  0  0  0
   -0.7323    5.6994   13.1419 C   0  0  0  0  0  0  0  0  0  0  0  0
   -0.8815    6.7848   14.1732 C   0  0  0  0  0  0  0  0  0  0  0  0
   -2.2526    6.8461   14.6830 N   0  0  0  0  0  0  0  0  0  0  0  0
   -2.4837    6.0283   15.2823 H   0  0  0  0  0  0  0  0  0  0  0  0
   -2.3875    7.7035   15.2575 H   0  0  0  0  0  0  0  0  0  0  0  0
 11 12  1  0  0  0
 12 13  1  0  0  0
 13 14  2  0  0  0
 13  9  1  0  0  0
  9 10  2  0  0  0
 10  1  1  0  0  0
  1  2  2  0  0  0
  2  3  1  0  0  0
  3  4  2  0  0  0
  4  5  1  0  0  0
  5  6  2  0  0  0
  6  7  1  0  0  0
  7  8  2  0  0  0
  1 16  1  0  0  0
 16 22  1  0  0  0
 22 23  1  0  0  0
 23 24  1  0  0  0
 24 25  1  0  0  0
 25 26  1  0  0  0
 16 17  1  0  0  0
 17 18  2  0  0  0
 17 19  1  0  0  0
 19 20  1  0  0  0
  8  3  1  0  0  0
 12 15  1  0  0  0
 26 27  1  0  0  0
 26 28  1  0  0  0
 20 21  1  0  0  0
M  END
> <minimizedAffinity>
-6.13145

> <CNNscore>
0.3757357001

> <CNNaffinity>
5.1828260422

> <CNN_VS>
1.9473727942

> <CNNaffinity_variance>
0.2944010198

$$$$
[H]SC([H])([H])C(=O)C([H])(C(=N\c1c([H])c([H])c([H])c([H])c1[H])/C([H])=C(\[H])C(=O)N([H])C([H])([H])[H])C([H])([H])C([H])([H])C([H])([H])C([H])([H])N([H])[H]


 28 28  0  0  0  0  0  0  0  0999 V2000
    3.9796    6.0559   18.8935 C   0  0  0  0  0  0  0  0  0  0  0  0
    3.8578    5.0533   19.5975 N   0  0  0  0  0  0  0  0  0  0  0  0
    4.2793    4.6212   20.8083 C   0  0  0  0  0  0  0  0  0  0  0  0
    5.3291    3.7269   20.9369 C   0  0  0  0  0  0  0  0  0  0  0  0
    5.7360    3.2397   22.1665 C   0  0  0  0  0  0  0  0  0  0  0  0
    5.0897    3.6446   23.3064 C   0  0  0  0  0  0  0  0  0  0  0  0
    4.0527    4.5231   23.2190 C   0  0  0  0  0  0  0  0  0  0  0  0
    3.6512    5.0069   21.9810 C   0  0  0  0  0  0  0  0  0  0  0  0
    2.8782    4.9434   16.9674 C   0  0  0  0  0  0  0  0  0  0  0  0
    3.2754    6.0135   17.5845 C   0  0  0  0  0  0  0  0  0  0  0  0
    0.8910    6.2026   13.9216 C   0  0  0  0  0  0  0  0  0  0  0  0
    1.5630    6.1883   15.2317 N   0  0  0  0  0  0  0  0  0  0  0  0
    2.2005    5.0230   15.6889 C   0  0  0  0  0  0  0  0  0  0  0  0
    2.1849    3.9991   14.9591 O   0  0  0  0  0  0  0  0  0  0  0  0
    1.5034    7.1025   15.7400 H   0  0  0  0  0  0  0  0  0  0  0  0
    4.6950    7.2605   19.3088 C   0  0  0  0  0  0  0  0  0  0  0  0
    5.9409    7.3790   18.4234 C   0  0  0  0  0  0  0  0  0  0  0  0
    5.9162    8.1694   17.5170 O   0  0  0  0  0  0  0  0  0  0  0  0
    7.1409    6.5739   18.6359 C   0  0  0  0  0  0  0  0  0  0  0  0
    8.4360    7.5417   19.5010 S   0  0  0  0  0  0  0  0  0  0  0  0
    8.0488    7.8384   20.8110 H   0  0  0  0  0  0  0  0  0  0  0  0
    3.9664    8.5706   19.2506 C   0  0  0  0  0  0  0  0  0  0  0  0
    4.5996    9.5351   20.2757 C   0  0  0  0  0  0  0  0  0  0  0  0
    4.9805    8.7439   21.5157 C   0  0  0  0  0  0  0  0  0  0  0  0
    6.1393    9.3738   22.2398 C   0  0  0  0  0  0  0  0  0  0  0  0
    5.8482    9.5353   23.6656 N   0  0  0  0  0  0  0  0  0  0  0  0
    5.8281    8.6241   24.1660 H   0  0  0  0  0  0  0  0  0  0  0  0
    6.5757   10.1257   24.1191 H   0  0  0  0  0  0  0  0  0  0  0  0
 11 12  1  0  0  0
 12 13  1  0  0  0
 13 14  2  0  0  0
 13  9  1  0  0  0
  9 10  2  0  0  0
 10  1  1  0  0  0
  1  2  2  0  0  0
  2  3  1  0  0  0
  3  4  2  0  0  0
  4  5  1  0  0  0
  5  6  2  0  0  0
  6  7  1  0  0  0
  7  8  2  0  0  0
  1 16  1  0  0  0
 16 22  1  0  0  0
 22 23  1  0  0  0
 23 24  1  0  0  0
 24 25  1  0  0  0
 25 26  1  0  0  0
 16 17  1  0  0  0
 17 18  2  0  0  0
 17 19  1  0  0  0
 19 20  1  0  0  0
  8  3  1  0  0  0
 12 15  1  0  0  0
 26 27  1  0  0  0
 26 28  1  0  0  0
 20 21  1  0  0  0
M  END
> <minimizedAffinity>
-6.53536

> <CNNscore>
0.3734083176

> <CNNaffinity>
5.2214283943

> <CNN_VS>
1.9497247934

> <CNNaffinity_variance>
0.0628296509

$$$$
[H]SC([H])([H])C(=O)C([H])(C(=N\c1c([H])c([H])c([H])c([H])c1[H])/C([H])=C(\[H])C(=O)N([H])C([H])([H])[H])C([H])([H])C([H])([H])C([H])([H])C([H])([H])N([H])[H]


 28 28  0  0  0  0  0  0  0  0999 V2000
    5.3584    4.7087   20.0042 C   0  0  0  0  0  0  0  0  0  0  0  0
    5.1652    3.8963   20.9087 N   0  0  0  0  0  0  0  0  0  0  0  0
    4.9053    2.5742   21.0303 C   0  0  0  0  0  0  0  0  0  0  0  0
    3.6344    2.1059   21.3200 C   0  0  0  0  0  0  0  0  0  0  0  0
    3.3672    0.7596   21.4960 C   0  0  0  0  0  0  0  0  0  0  0  0
    4.3823   -0.1557   21.3839 C   0  0  0  0  0  0  0  0  0  0  0  0
    5.6452    0.2676   21.0999 C   0  0  0  0  0  0  0  0  0  0  0  0
    5.9043    1.6204   20.9249 C   0  0  0  0  0  0  0  0  0  0  0  0
    5.1139    6.6807   21.4914 C   0  0  0  0  0  0  0  0  0  0  0  0
    5.6106    6.1084   20.4382 C   0  0  0  0  0  0  0  0  0  0  0  0
    6.6243    9.8360   23.0959 C   0  0  0  0  0  0  0  0  0  0  0  0
    6.3493    8.4170   22.8148 N   0  0  0  0  0  0  0  0  0  0  0  0
    5.4292    8.0575   21.8159 C   0  0  0  0  0  0  0  0  0  0  0  0
    4.8498    8.9683   21.1712 O   0  0  0  0  0  0  0  0  0  0  0  0
    6.8954    7.7593   23.4204 H   0  0  0  0  0  0  0  0  0  0  0  0
    5.4210    4.3516   18.5886 C   0  0  0  0  0  0  0  0  0  0  0  0
    3.9805    4.1464   18.1059 C   0  0  0  0  0  0  0  0  0  0  0  0
    3.1510    4.9476   18.4477 O   0  0  0  0  0  0  0  0  0  0  0  0
    3.5829    3.0246   17.2591 C   0  0  0  0  0  0  0  0  0  0  0  0
    2.4304    3.5723   15.9423 S   0  0  0  0  0  0  0  0  0  0  0  0
    3.0751    4.4120   15.0294 H   0  0  0  0  0  0  0  0  0  0  0  0
    6.0866    5.3108   17.6465 C   0  0  0  0  0  0  0  0  0  0  0  0
    5.0011    6.1776   16.9737 C   0  0  0  0  0  0  0  0  0  0  0  0
    5.5257    7.5976   16.8431 C   0  0  0  0  0  0  0  0  0  0  0  0
    4.7951    8.5436   17.7569 C   0  0  0  0  0  0  0  0  0  0  0  0
    3.5962    7.9180   18.3181 N   0  0  0  0  0  0  0  0  0  0  0  0
    3.8292    7.1793   19.0119 H   0  0  0  0  0  0  0  0  0  0  0  0
    3.0097    8.6286   18.8022 H   0  0  0  0  0  0  0  0  0  0  0  0
 11 12  1  0  0  0
 12 13  1  0  0  0
 13 14  2  0  0  0
 13  9  1  0  0  0
  9 10  2  0  0  0
 10  1  1  0  0  0
  1  2  2  0  0  0
  2  3  1  0  0  0
  3  4  2  0  0  0
  4  5  1  0  0  0
  5  6  2  0  0  0
  6  7  1  0  0  0
  7  8  2  0  0  0
  1 16  1  0  0  0
 16 22  1  0  0  0
 22 23  1  0  0  0
 23 24  1  0  0  0
 24 25  1  0  0  0
 25 26  1  0  0  0
 16 17  1  0  0  0
 17 18  2  0  0  0
 17 19  1  0  0  0
 19 20  1  0  0  0
  8  3  1  0  0  0
 12 15  1  0  0  0
 26 27  1  0  0  0
 26 28  1  0  0  0
 20 21  1  0  0  0
M  END
> <minimizedAffinity>
-5.91941

> <CNNscore>
0.3676775098

> <CNNaffinity>
5.7426128387

> <CNN_VS>
2.1114296913

> <CNNaffinity_variance>
0.0824234784

$$$$
[H]SC([H])([H])C(=O)C([H])(C(=N\c1c([H])c([H])c([H])c([H])c1[H])/C([H])=C(\[H])C(=O)N([H])C([H])([H])[H])C([H])([H])C([H])([H])C([H])([H])C([H])([H])N([H])[H]


 28 28  0  0  0  0  0  0  0  0999 V2000
    4.9262    6.5683   19.4120 C   0  0  0  0  0  0  0  0  0  0  0  0
    4.4964    5.5112   19.8738 N   0  0  0  0  0  0  0  0  0  0  0  0
    4.6090    4.7975   21.0176 C   0  0  0  0  0  0  0  0  0  0  0  0
    5.4659    3.7139   21.1180 C   0  0  0  0  0  0  0  0  0  0  0  0
    5.5523    2.9463   22.2661 C   0  0  0  0  0  0  0  0  0  0  0  0
    4.7710    3.2540   23.3505 C   0  0  0  0  0  0  0  0  0  0  0  0
    3.9164    4.3125   23.2887 C   0  0  0  0  0  0  0  0  0  0  0  0
    3.8362    5.0773   22.1326 C   0  0  0  0  0  0  0  0  0  0  0  0
    4.0492    6.0597   17.1465 C   0  0  0  0  0  0  0  0  0  0  0  0
    4.4687    6.9044   18.0376 C   0  0  0  0  0  0  0  0  0  0  0  0
    2.8093    8.2075   14.2035 C   0  0  0  0  0  0  0  0  0  0  0  0
    3.2267    7.8217   15.5619 N   0  0  0  0  0  0  0  0  0  0  0  0
    3.6283    6.5030   15.8325 C   0  0  0  0  0  0  0  0  0  0  0  0
    3.6239    5.6650   14.8951 O   0  0  0  0  0  0  0  0  0  0  0  0
    3.1847    8.6106   16.2500 H   0  0  0  0  0  0  0  0  0  0  0  0
    5.7702    7.4993   20.1579 C   0  0  0  0  0  0  0  0  0  0  0  0
    7.0309    7.7433   19.3205 C   0  0  0  0  0  0  0  0  0  0  0  0
    7.6754    6.7869   18.9788 O   0  0  0  0  0  0  0  0  0  0  0  0
    7.4743    9.0791   18.9304 C   0  0  0  0  0  0  0  0  0  0  0  0
    7.3542    9.3067   17.1149 S   0  0  0  0  0  0  0  0  0  0  0  0
    6.0202    9.3092   16.6973 H   0  0  0  0  0  0  0  0  0  0  0  0
    5.1968    8.8371   20.5215 C   0  0  0  0  0  0  0  0  0  0  0  0
    5.0982    8.9321   22.0588 C   0  0  0  0  0  0  0  0  0  0  0  0
    6.3342    9.6449   22.5814 C   0  0  0  0  0  0  0  0  0  0  0  0
    7.1382    8.7603   23.4952 C   0  0  0  0  0  0  0  0  0  0  0  0
    6.5667    7.4142   23.5669 N   0  0  0  0  0  0  0  0  0  0  0  0
    6.6995    6.8856   22.6813 H   0  0  0  0  0  0  0  0  0  0  0  0
    7.0202    6.8683   24.3283 H   0  0  0  0  0  0  0  0  0  0  0  0
 11 12  1  0  0  0
 12 13  1  0  0  0
 13 14  2  0  0  0
 13  9  1  0  0  0
  9 10  2  0  0  0
 10  1  1  0  0  0
  1  2  2  0  0  0
  2  3  1  0  0  0
  3  4  2  0  0  0
  4  5  1  0  0  0
  5  6  2  0  0  0
  6  7  1  0  0  0
  7  8  2  0  0  0
  1 16  1  0  0  0
 16 22  1  0  0  0
 22 23  1  0  0  0
 23 24  1  0  0  0
 24 25  1  0  0  0
 25 26  1  0  0  0
 16 17  1  0  0  0
 17 18  2  0  0  0
 17 19  1  0  0  0
 19 20  1  0  0  0
  8  3  1  0  0  0
 12 15  1  0  0  0
 26 27  1  0  0  0
 26 28  1  0  0  0
 20 21  1  0  0  0
M  END
> <minimizedAffinity>
-6.03249

> <CNNscore>
0.3467882872

> <CNNaffinity>
5.2550969124

> <CNN_VS>
1.8224060535

> <CNNaffinity_variance>
0.0405759700

$$$$
[H]SC([H])([H])C(=O)C([H])(C(=N\c1c([H])c([H])c([H])c([H])c1[H])/C([H])=C(\[H])C(=O)N([H])C([H])([H])[H])C([H])([H])C([H])([H])C([H])([H])C([H])([H])N([H])[H]


 28 28  0  0  0  0  0  0  0  0999 V2000
    3.3816    4.6933   18.0806 C   0  0  0  0  0  0  0  0  0  0  0  0
    3.1797    5.3445   19.1056 N   0  0  0  0  0  0  0  0  0  0  0  0
    3.7609    5.5161   20.3152 C   0  0  0  0  0  0  0  0  0  0  0  0
    3.5176    4.6507   21.3689 C   0  0  0  0  0  0  0  0  0  0  0  0
    4.0668    4.8447   22.6241 C   0  0  0  0  0  0  0  0  0  0  0  0
    4.8814    5.9246   22.8507 C   0  0  0  0  0  0  0  0  0  0  0  0
    5.1434    6.7972   21.8384 C   0  0  0  0  0  0  0  0  0  0  0  0
    4.5880    6.5947   20.5821 C   0  0  0  0  0  0  0  0  0  0  0  0
    2.6253    5.3919   15.8222 C   0  0  0  0  0  0  0  0  0  0  0  0
    2.3872    4.8816   16.9911 C   0  0  0  0  0  0  0  0  0  0  0  0
   -0.3393    6.7155   13.7556 C   0  0  0  0  0  0  0  0  0  0  0  0
    0.7114    6.6376   14.7844 N   0  0  0  0  0  0  0  0  0  0  0  0
    1.5729    5.5292   14.8353 C   0  0  0  0  0  0  0  0  0  0  0  0
    1.4283    4.6113   13.9882 O   0  0  0  0  0  0  0  0  0  0  0  0
    0.7257    7.4642   15.4279 H   0  0  0  0  0  0  0  0  0  0  0  0
    4.5492    3.8390   17.8754 C   0  0  0  0  0  0  0  0  0  0  0  0
    4.0430    2.4975   17.3326 C   0  0  0  0  0  0  0  0  0  0  0  0
    3.6408    1.6845   18.1226 O   0  0  0  0  0  0  0  0  0  0  0  0
    4.0351    2.1736   15.9084 C   0  0  0  0  0  0  0  0  0  0  0  0
    2.4328    1.4326   15.4126 S   0  0  0  0  0  0  0  0  0  0  0  0
    1.3983    2.3683   15.5041 H   0  0  0  0  0  0  0  0  0  0  0  0
    5.6288    4.3266   16.9548 C   0  0  0  0  0  0  0  0  0  0  0  0
    6.2610    5.5967   17.5625 C   0  0  0  0  0  0  0  0  0  0  0  0
    5.8388    6.7953   16.7295 C   0  0  0  0  0  0  0  0  0  0  0  0
    5.3963    7.9431   17.5960 C   0  0  0  0  0  0  0  0  0  0  0  0
    3.9583    8.1839   17.4620 N   0  0  0  0  0  0  0  0  0  0  0  0
    3.3931    7.4297   17.9012 H   0  0  0  0  0  0  0  0  0  0  0  0
    3.6967    9.0799   17.9227 H   0  0  0  0  0  0  0  0  0  0  0  0
 11 12  1  0  0  0
 12 13  1  0  0  0
 13 14  2  0  0  0
 13  9  1  0  0  0
  9 10  2  0  0  0
 10  1  1  0  0  0
  1  2  2  0  0  0
  2  3  1  0  0  0
  3  4  2  0  0  0
  4  5  1  0  0  0
  5  6  2  0  0  0
  6  7  1  0  0  0
  7  8  2  0  0  0
  1 16  1  0  0  0
 16 22  1  0  0  0
 22 23  1  0  0  0
 23 24  1  0  0  0
 24 25  1  0  0  0
 25 26  1  0  0  0
 16 17  1  0  0  0
 17 18  2  0  0  0
 17 19  1  0  0  0
 19 20  1  0  0  0
  8  3  1  0  0  0
 12 15  1  0  0  0
 26 27  1  0  0  0
 26 28  1  0  0  0
 20 21  1  0  0  0
M  END
> <minimizedAffinity>
-5.21133

> <CNNscore>
0.3179652989

> <CNNaffinity>
5.2575716972

> <CNN_VS>
1.6717253923

> <CNNaffinity_variance>
0.0735408515

$$$$
[H]c1c([H])c(-n2nc([H])n(C([H])([H])c3c([H])c([H])c(C(F)(F)F)c([H])c3C(F)(F)F)c2=O)c([H])c(C(F)(F)F)c1[H]


 31 33  0  0  0  0  0  0  0  0999 V2000
    3.2661    1.6437   15.9187 N   0  0  0  0  0  0  0  0  0  0  0  0
    3.7413    1.8282   17.1385 C   0  0  0  0  0  0  0  0  0  0  0  0
    4.5552    2.7520   17.4275 O   0  0  0  0  0  0  0  0  0  0  0  0
    3.2485    0.9274   17.9881 N   0  0  0  0  0  0  0  0  0  0  0  0
    2.4351    0.1614   17.2513 N   0  0  0  0  0  0  0  0  0  0  0  0
    2.4411    0.6078   15.9477 C   0  0  0  0  0  0  0  0  0  0  0  0
    3.5020    0.7166   19.3667 C   0  0  0  0  0  0  0  0  0  0  0  0
    4.6303    1.3066   19.9355 C   0  0  0  0  0  0  0  0  0  0  0  0
    4.9962    1.1574   21.2453 C   0  0  0  0  0  0  0  0  0  0  0  0
    4.1917    0.3682   22.0612 C   0  0  0  0  0  0  0  0  0  0  0  0
    3.0475   -0.2464   21.5582 C   0  0  0  0  0  0  0  0  0  0  0  0
    2.7267   -0.0499   20.1958 C   0  0  0  0  0  0  0  0  0  0  0  0
    6.2288    1.8439   21.7107 C   0  0  0  0  0  0  0  0  0  0  0  0
    6.1821    3.1403   21.2497 F   0  0  0  0  0  0  0  0  0  0  0  0
    6.2097    1.9501   23.1066 F   0  0  0  0  0  0  0  0  0  0  0  0
    7.3624    1.1864   21.3674 F   0  0  0  0  0  0  0  0  0  0  0  0
    3.6028    2.5074   14.8075 C   0  0  0  0  0  0  0  0  0  0  0  0
    1.7462    3.4312   13.4324 C   0  0  0  0  0  0  0  0  0  0  0  0
    0.8886    4.5259   13.2002 C   0  0  0  0  0  0  0  0  0  0  0  0
    0.9623    5.6815   13.9323 C   0  0  0  0  0  0  0  0  0  0  0  0
    1.9070    5.7855   14.9378 C   0  0  0  0  0  0  0  0  0  0  0  0
    2.7265    4.7313   15.1561 C   0  0  0  0  0  0  0  0  0  0  0  0
    2.6827    3.5260   14.4280 C   0  0  0  0  0  0  0  0  0  0  0  0
    1.5916    2.2316   12.5356 C   0  0  0  0  0  0  0  0  0  0  0  0
    0.8965    1.2372   13.1722 F   0  0  0  0  0  0  0  0  0  0  0  0
    2.8260    1.7870   12.0808 F   0  0  0  0  0  0  0  0  0  0  0  0
    0.8500    2.5756   11.4293 F   0  0  0  0  0  0  0  0  0  0  0  0
    0.0383    6.8074   13.5777 C   0  0  0  0  0  0  0  0  0  0  0  0
   -0.6520    6.5699   12.4120 F   0  0  0  0  0  0  0  0  0  0  0  0
    0.7859    7.9479   13.4724 F   0  0  0  0  0  0  0  0  0  0  0  0
   -0.8674    7.0039   14.6354 F   0  0  0  0  0  0  0  0  0  0  0  0
 18 24  1  0  0  0
 24 25  1  0  0  0
 24 26  1  0  0  0
 24 27  1  0  0  0
 18 19  2  0  0  0
 19 20  1  0  0  0
 20 28  1  0  0  0
 28 29  1  0  0  0
 28 30  1  0  0  0
 28 31  1  0  0  0
 20 21  2  0  0  0
 21 22  1  0  0  0
 22 23  2  0  0  0
 23 17  1  0  0  0
 17  1  1  0  0  0
  1  2  1  0  0  0
  2  3  2  0  0  0
  2  4  1  0  0  0
  4  7  1  0  0  0
  7  8  2  0  0  0
  8  9  1  0  0  0
  9 13  1  0  0  0
 13 14  1  0  0  0
 13 15  1  0  0  0
 13 16  1  0  0  0
  9 10  2  0  0  0
 10 11  1  0  0  0
 11 12  2  0  0  0
  4  5  1  0  0  0
  5  6  2  0  0  0
 23 18  1  0  0  0
  6  1  1  0  0  0
 12  7  1  0  0  0
M  END
> <minimizedAffinity>
-8.65622

> <CNNscore>
0.8872837424

> <CNNaffinity>
6.7300596237

> <CNN_VS>
5.9714722633

> <CNNaffinity_variance>
0.5280495882

$$$$
[H]c1c([H])c(-n2nc([H])n(C([H])([H])c3c([H])c([H])c(C(F)(F)F)c([H])c3C(F)(F)F)c2=O)c([H])c(C(F)(F)F)c1[H]


 31 33  0  0  0  0  0  0  0  0999 V2000
    3.2119    1.7163   15.8643 N   0  0  0  0  0  0  0  0  0  0  0  0
    3.7307    1.8514   17.0727 C   0  0  0  0  0  0  0  0  0  0  0  0
    4.5894    2.7350   17.3581 O   0  0  0  0  0  0  0  0  0  0  0  0
    3.2281    0.9497   17.9156 N   0  0  0  0  0  0  0  0  0  0  0  0
    2.3628    0.2349   17.1865 N   0  0  0  0  0  0  0  0  0  0  0  0
    2.3473    0.7132   15.8943 C   0  0  0  0  0  0  0  0  0  0  0  0
    3.5144    0.6947   19.2802 C   0  0  0  0  0  0  0  0  0  0  0  0
    4.5977    1.3473   19.8679 C   0  0  0  0  0  0  0  0  0  0  0  0
    4.9902    1.1661   21.1659 C   0  0  0  0  0  0  0  0  0  0  0  0
    4.2625    0.2754   21.9489 C   0  0  0  0  0  0  0  0  0  0  0  0
    3.1663   -0.4061   21.4259 C   0  0  0  0  0  0  0  0  0  0  0  0
    2.8142   -0.1716   20.0772 C   0  0  0  0  0  0  0  0  0  0  0  0
    6.1683    1.9283   21.6543 C   0  0  0  0  0  0  0  0  0  0  0  0
    6.1105    3.1856   21.0965 F   0  0  0  0  0  0  0  0  0  0  0  0
    6.0565    2.1338   23.0346 F   0  0  0  0  0  0  0  0  0  0  0  0
    7.3417    1.2890   21.4310 F   0  0  0  0  0  0  0  0  0  0  0  0
    3.5492    2.5937   14.7640 C   0  0  0  0  0  0  0  0  0  0  0  0
    2.3167    4.7478   14.5848 C   0  0  0  0  0  0  0  0  0  0  0  0
    1.2875    5.4619   13.9378 C   0  0  0  0  0  0  0  0  0  0  0  0
    0.4997    4.8954   12.9708 C   0  0  0  0  0  0  0  0  0  0  0  0
    0.7161    3.5776   12.6090 C   0  0  0  0  0  0  0  0  0  0  0  0
    1.7057    2.8980   13.2331 C   0  0  0  0  0  0  0  0  0  0  0  0
    2.5384    3.4430   14.2301 C   0  0  0  0  0  0  0  0  0  0  0  0
    3.0881    5.4698   15.6576 C   0  0  0  0  0  0  0  0  0  0  0  0
    2.8945    6.8230   15.5659 F   0  0  0  0  0  0  0  0  0  0  0  0
    4.4357    5.1381   15.6113 F   0  0  0  0  0  0  0  0  0  0  0  0
    2.6187    5.0942   16.8949 F   0  0  0  0  0  0  0  0  0  0  0  0
   -0.6000    5.7222   12.3757 C   0  0  0  0  0  0  0  0  0  0  0  0
   -1.8404    5.1614   12.5713 F   0  0  0  0  0  0  0  0  0  0  0  0
   -0.3412    5.8682   11.0405 F   0  0  0  0  0  0  0  0  0  0  0  0
   -0.5634    7.0072   12.9459 F   0  0  0  0  0  0  0  0  0  0  0  0
 18 24  1  0  0  0
 24 25  1  0  0  0
 24 26  1  0  0  0
 24 27  1  0  0  0
 18 19  2  0  0  0
 19 20  1  0  0  0
 20 28  1  0  0  0
 28 29  1  0  0  0
 28 30  1  0  0  0
 28 31  1  0  0  0
 20 21  2  0  0  0
 21 22  1  0  0  0
 22 23  2  0  0  0
 23 17  1  0  0  0
 17  1  1  0  0  0
  1  2  1  0  0  0
  2  3  2  0  0  0
  2  4  1  0  0  0
  4  7  1  0  0  0
  7  8  2  0  0  0
  8  9  1  0  0  0
  9 13  1  0  0  0
 13 14  1  0  0  0
 13 15  1  0  0  0
 13 16  1  0  0  0
  9 10  2  0  0  0
 10 11  1  0  0  0
 11 12  2  0  0  0
  4  5  1  0  0  0
  5  6  2  0  0  0
 23 18  1  0  0  0
  6  1  1  0  0  0
 12  7  1  0  0  0
M  END
> <minimizedAffinity>
-8.29082

> <CNNscore>
0.8640335202

> <CNNaffinity>
6.6653251648

> <CNN_VS>
5.7590641975

> <CNNaffinity_variance>
0.4937251508

$$$$
[H]c1c([H])c(-n2nc([H])n(C([H])([H])c3c([H])c([H])c(C(F)(F)F)c([H])c3C(F)(F)F)c2=O)c([H])c(C(F)(F)F)c1[H]


 31 33  0  0  0  0  0  0  0  0999 V2000
    4.1838    2.5076   17.0422 N   0  0  0  0  0  0  0  0  0  0  0  0
    3.0711    2.5112   16.3284 C   0  0  0  0  0  0  0  0  0  0  0  0
    2.1259    1.6939   16.5231 O   0  0  0  0  0  0  0  0  0  0  0  0
    3.0938    3.4739   15.4070 N   0  0  0  0  0  0  0  0  0  0  0  0
    4.2737    4.0845   15.5695 N   0  0  0  0  0  0  0  0  0  0  0  0
    4.9643    3.4813   16.5980 C   0  0  0  0  0  0  0  0  0  0  0  0
    2.1524    3.8226   14.4063 C   0  0  0  0  0  0  0  0  0  0  0  0
    1.5888    5.0978   14.4357 C   0  0  0  0  0  0  0  0  0  0  0  0
    0.6526    5.5434   13.5432 C   0  0  0  0  0  0  0  0  0  0  0  0
    0.2373    4.6699   12.5431 C   0  0  0  0  0  0  0  0  0  0  0  0
    0.7632    3.3834   12.4533 C   0  0  0  0  0  0  0  0  0  0  0  0
    1.7281    2.9872   13.4072 C   0  0  0  0  0  0  0  0  0  0  0  0
    0.1379    6.9282   13.7010 C   0  0  0  0  0  0  0  0  0  0  0  0
   -0.5609    7.2449   12.5579 F   0  0  0  0  0  0  0  0  0  0  0  0
   -0.8091    6.9637   14.7315 F   0  0  0  0  0  0  0  0  0  0  0  0
    1.1087    7.8217   14.0087 F   0  0  0  0  0  0  0  0  0  0  0  0
    4.4073    1.5922   18.1405 C   0  0  0  0  0  0  0  0  0  0  0  0
    3.7326    1.4078   20.5284 C   0  0  0  0  0  0  0  0  0  0  0  0
    3.7213    2.0235   21.7968 C   0  0  0  0  0  0  0  0  0  0  0  0
    4.2458    3.2710   22.0094 C   0  0  0  0  0  0  0  0  0  0  0  0
    4.8099    3.9569   20.9485 C   0  0  0  0  0  0  0  0  0  0  0  0
    4.8182    3.3604   19.7341 C   0  0  0  0  0  0  0  0  0  0  0  0
    4.2916    2.0801   19.4735 C   0  0  0  0  0  0  0  0  0  0  0  0
    3.0910    0.0503   20.4149 C   0  0  0  0  0  0  0  0  0  0  0  0
    3.9989   -0.9389   20.6877 F   0  0  0  0  0  0  0  0  0  0  0  0
    2.5026   -0.1201   19.1687 F   0  0  0  0  0  0  0  0  0  0  0  0
    2.0942   -0.0686   21.3554 F   0  0  0  0  0  0  0  0  0  0  0  0
    4.1431    3.8600   23.3841 C   0  0  0  0  0  0  0  0  0  0  0  0
    4.7129    3.0544   24.3421 F   0  0  0  0  0  0  0  0  0  0  0  0
    2.8187    4.0690   23.6543 F   0  0  0  0  0  0  0  0  0  0  0  0
    4.7687    5.1195   23.3880 F   0  0  0  0  0  0  0  0  0  0  0  0
 18 24  1  0  0  0
 24 25  1  0  0  0
 24 26  1  0  0  0
 24 27  1  0  0  0
 18 19  2  0  0  0
 19 20  1  0  0  0
 20 28  1  0  0  0
 28 29  1  0  0  0
 28 30  1  0  0  0
 28 31  1  0  0  0
 20 21  2  0  0  0
 21 22  1  0  0  0
 22 23  2  0  0  0
 23 17  1  0  0  0
 17  1  1  0  0  0
  1  2  1  0  0  0
  2  3  2  0  0  0
  2  4  1  0  0  0
  4  7  1  0  0  0
  7  8  2  0  0  0
  8  9  1  0  0  0
  9 13  1  0  0  0
 13 14  1  0  0  0
 13 15  1  0  0  0
 13 16  1  0  0  0
  9 10  2  0  0  0
 10 11  1  0  0  0
 11 12  2  0  0  0
  4  5  1  0  0  0
  5  6  2  0  0  0
 23 18  1  0  0  0
  6  1  1  0  0  0
 12  7  1  0  0  0
M  END
> <minimizedAffinity>
-9.16974

> <CNNscore>
0.5164386034

> <CNNaffinity>
6.3061814308

> <CNN_VS>
3.2567555904

> <CNNaffinity_variance>
0.6454748511

$$$$
[H]c1c([H])c(-n2nc([H])n(C([H])([H])c3c([H])c([H])c(C(F)(F)F)c([H])c3C(F)(F)F)c2=O)c([H])c(C(F)(F)F)c1[H]


 31 33  0  0  0  0  0  0  0  0999 V2000
    4.4504    3.3142   16.4607 N   0  0  0  0  0  0  0  0  0  0  0  0
    3.9246    2.5086   17.3674 C   0  0  0  0  0  0  0  0  0  0  0  0
    3.0551    1.6335   17.0890 O   0  0  0  0  0  0  0  0  0  0  0  0
    4.4332    2.7475   18.5759 N   0  0  0  0  0  0  0  0  0  0  0  0
    5.3096    3.7427   18.3951 N   0  0  0  0  0  0  0  0  0  0  0  0
    5.3258    4.1034   17.0653 C   0  0  0  0  0  0  0  0  0  0  0  0
    4.1434    2.1661   19.8358 C   0  0  0  0  0  0  0  0  0  0  0  0
    4.2168    2.9688   20.9737 C   0  0  0  0  0  0  0  0  0  0  0  0
    3.9858    2.5199   22.2453 C   0  0  0  0  0  0  0  0  0  0  0  0
    3.6564    1.1786   22.4136 C   0  0  0  0  0  0  0  0  0  0  0  0
    3.5615    0.3227   21.3190 C   0  0  0  0  0  0  0  0  0  0  0  0
    3.8118    0.8518   20.0324 C   0  0  0  0  0  0  0  0  0  0  0  0
    4.1046    3.4912   23.3633 C   0  0  0  0  0  0  0  0  0  0  0  0
    4.7385    2.8514   24.4045 F   0  0  0  0  0  0  0  0  0  0  0  0
    4.9654    4.5315   22.9934 F   0  0  0  0  0  0  0  0  0  0  0  0
    2.9186    4.0471   23.7095 F   0  0  0  0  0  0  0  0  0  0  0  0
    4.1086    3.2427   15.0563 C   0  0  0  0  0  0  0  0  0  0  0  0
    1.9667    3.5111   13.8187 C   0  0  0  0  0  0  0  0  0  0  0  0
    0.9220    4.3852   13.4546 C   0  0  0  0  0  0  0  0  0  0  0  0
    0.9030    5.7012   13.8345 C   0  0  0  0  0  0  0  0  0  0  0  0
    1.9401    6.1976   14.6041 C   0  0  0  0  0  0  0  0  0  0  0  0
    2.9391    5.3537   14.9507 C   0  0  0  0  0  0  0  0  0  0  0  0
    2.9960    3.9951   14.5827 C   0  0  0  0  0  0  0  0  0  0  0  0
    1.8925    2.0968   13.3074 C   0  0  0  0  0  0  0  0  0  0  0  0
    0.8131    1.9374   12.4787 F   0  0  0  0  0  0  0  0  0  0  0  0
    1.8746    1.1877   14.3569 F   0  0  0  0  0  0  0  0  0  0  0  0
    3.0068    1.8216   12.5494 F   0  0  0  0  0  0  0  0  0  0  0  0
   -0.2274    6.5623   13.3570 C   0  0  0  0  0  0  0  0  0  0  0  0
   -0.9720    7.0711   14.3955 F   0  0  0  0  0  0  0  0  0  0  0  0
   -1.0095    5.8075   12.5267 F   0  0  0  0  0  0  0  0  0  0  0  0
    0.2962    7.6154   12.5862 F   0  0  0  0  0  0  0  0  0  0  0  0
 18 24  1  0  0  0
 24 25  1  0  0  0
 24 26  1  0  0  0
 24 27  1  0  0  0
 18 19  2  0  0  0
 19 20  1  0  0  0
 20 28  1  0  0  0
 28 29  1  0  0  0
 28 30  1  0  0  0
 28 31  1  0  0  0
 20 21  2  0  0  0
 21 22  1  0  0  0
 22 23  2  0  0  0
 23 17  1  0  0  0
 17  1  1  0  0  0
  1  2  1  0  0  0
  2  3  2  0  0  0
  2  4  1  0  0  0
  4  7  1  0  0  0
  7  8  2  0  0  0
  8  9  1  0  0  0
  9 13  1  0  0  0
 13 14  1  0  0  0
 13 15  1  0  0  0
 13 16  1  0  0  0
  9 10  2  0  0  0
 10 11  1  0  0  0
 11 12  2  0  0  0
  4  5  1  0  0  0
  5  6  2  0  0  0
 23 18  1  0  0  0
  6  1  1  0  0  0
 12  7  1  0  0  0
M  END
> <minimizedAffinity>
-8.68401

> <CNNscore>
0.5142607689

> <CNNaffinity>
6.3128824234

> <CNN_VS>
3.2464678288

> <CNNaffinity_variance>
0.6382210255

$$$$
[H]c1c([H])c(-n2nc([H])n(C([H])([H])c3c([H])c([H])c(C(F)(F)F)c([H])c3C(F)(F)F)c2=O)c([H])c(C(F)(F)F)c1[H]


 31 33  0  0  0  0  0  0  0  0999 V2000
    3.7337    3.1150   15.2092 N   0  0  0  0  0  0  0  0  0  0  0  0
    4.1799    3.5361   16.3801 C   0  0  0  0  0  0  0  0  0  0  0  0
    4.6930    4.6794   16.5504 O   0  0  0  0  0  0  0  0  0  0  0  0
    4.0109    2.6078   17.3214 N   0  0  0  0  0  0  0  0  0  0  0  0
    3.4339    1.5759   16.6941 N   0  0  0  0  0  0  0  0  0  0  0  0
    3.2559    1.8893   15.3641 C   0  0  0  0  0  0  0  0  0  0  0  0
    4.3693    2.6014   18.6928 C   0  0  0  0  0  0  0  0  0  0  0  0
    3.8468    1.6030   19.5142 C   0  0  0  0  0  0  0  0  0  0  0  0
    4.0964    1.5046   20.8558 C   0  0  0  0  0  0  0  0  0  0  0  0
    4.9242    2.4601   21.4368 C   0  0  0  0  0  0  0  0  0  0  0  0
    5.4832    3.4818   20.6729 C   0  0  0  0  0  0  0  0  0  0  0  0
    5.1849    3.5243   19.2920 C   0  0  0  0  0  0  0  0  0  0  0  0
    3.4660    0.3874   21.6055 C   0  0  0  0  0  0  0  0  0  0  0  0
    4.1868   -0.7539   21.3349 F   0  0  0  0  0  0  0  0  0  0  0  0
    3.6174    0.5994   22.9810 F   0  0  0  0  0  0  0  0  0  0  0  0
    2.1403    0.2641   21.3555 F   0  0  0  0  0  0  0  0  0  0  0  0
    3.7546    3.9394   14.0200 C   0  0  0  0  0  0  0  0  0  0  0  0
    1.9232    3.8253   12.3394 C   0  0  0  0  0  0  0  0  0  0  0  0
    0.6768    4.3366   11.9237 C   0  0  0  0  0  0  0  0  0  0  0  0
    0.0411    5.3489   12.5930 C   0  0  0  0  0  0  0  0  0  0  0  0
    0.6350    5.8928   13.7181 C   0  0  0  0  0  0  0  0  0  0  0  0
    1.8307    5.3972   14.1121 C   0  0  0  0  0  0  0  0  0  0  0  0
    2.5164    4.3573   13.4540 C   0  0  0  0  0  0  0  0  0  0  0  0
    2.5380    2.7382   11.4981 C   0  0  0  0  0  0  0  0  0  0  0  0
    1.7877    2.5130   10.3740 F   0  0  0  0  0  0  0  0  0  0  0  0
    2.7183    1.5772   12.2381 F   0  0  0  0  0  0  0  0  0  0  0  0
    3.7792    3.1395   11.0615 F   0  0  0  0  0  0  0  0  0  0  0  0
   -1.2586    5.8564   12.0450 C   0  0  0  0  0  0  0  0  0  0  0  0
   -1.1217    6.3917   10.7855 F   0  0  0  0  0  0  0  0  0  0  0  0
   -1.7463    6.7911   12.9165 F   0  0  0  0  0  0  0  0  0  0  0  0
   -2.1844    4.7983   12.0143 F   0  0  0  0  0  0  0  0  0  0  0  0
 18 24  1  0  0  0
 24 25  1  0  0  0
 24 26  1  0  0  0
 24 27  1  0  0  0
 18 19  2  0  0  0
 19 20  1  0  0  0
 20 28  1  0  0  0
 28 29  1  0  0  0
 28 30  1  0  0  0
 28 31  1  0  0  0
 20 21  2  0  0  0
 21 22  1  0  0  0
 22 23  2  0  0  0
 23 17  1  0  0  0
 17  1  1  0  0  0
  1  2  1  0  0  0
  2  3  2  0  0  0
  2  4  1  0  0  0
  4  7  1  0  0  0
  7  8  2  0  0  0
  8  9  1  0  0  0
  9 13  1  0  0  0
 13 14  1  0  0  0
 13 15  1  0  0  0
 13 16  1  0  0  0
  9 10  2  0  0  0
 10 11  1  0  0  0
 11 12  2  0  0  0
  4  5  1  0  0  0
  5  6  2  0  0  0
 23 18  1  0  0  0
  6  1  1  0  0  0
 12  7  1  0  0  0
M  END
> <minimizedAffinity>
-8.16795

> <CNNscore>
0.4566778839

> <CNNaffinity>
6.0486998558

> <CNN_VS>
2.7623074055

> <CNNaffinity_variance>
0.6642964482

$$$$
[H]c1c([H])c(-n2nc([H])n(C([H])([H])c3c([H])c([H])c(C(F)(F)F)c([H])c3C(F)(F)F)c2=O)c([H])c(C(F)(F)F)c1[H]


 31 33  0  0  0  0  0  0  0  0999 V2000
    3.5908    2.7621   15.0920 N   0  0  0  0  0  0  0  0  0  0  0  0
    4.0959    3.2387   16.2169 C   0  0  0  0  0  0  0  0  0  0  0  0
    4.6974    4.3491   16.2852 O   0  0  0  0  0  0  0  0  0  0  0  0
    3.8806    2.4033   17.2328 N   0  0  0  0  0  0  0  0  0  0  0  0
    3.2125    1.3725   16.7012 N   0  0  0  0  0  0  0  0  0  0  0  0
    3.0262    1.5929   15.3538 C   0  0  0  0  0  0  0  0  0  0  0  0
    4.2709    2.4774   18.5934 C   0  0  0  0  0  0  0  0  0  0  0  0
    3.7877    1.5151   19.4795 C   0  0  0  0  0  0  0  0  0  0  0  0
    4.0704    1.4938   20.8179 C   0  0  0  0  0  0  0  0  0  0  0  0
    4.8921    2.4946   21.3268 C   0  0  0  0  0  0  0  0  0  0  0  0
    5.4126    3.4840   20.4961 C   0  0  0  0  0  0  0  0  0  0  0  0
    5.0815    3.4465   19.1224 C   0  0  0  0  0  0  0  0  0  0  0  0
    3.4801    0.4070   21.6413 C   0  0  0  0  0  0  0  0  0  0  0  0
    2.1634    0.2679   21.2641 F   0  0  0  0  0  0  0  0  0  0  0  0
    4.0859   -0.8123   21.3151 F   0  0  0  0  0  0  0  0  0  0  0  0
    3.6458    0.6016   22.9716 F   0  0  0  0  0  0  0  0  0  0  0  0
    3.6446    3.4862   13.8402 C   0  0  0  0  0  0  0  0  0  0  0  0
    1.6527    4.9231   13.4416 C   0  0  0  0  0  0  0  0  0  0  0  0
    0.4800    5.1216   12.6844 C   0  0  0  0  0  0  0  0  0  0  0  0
    0.0828    4.2470   11.7077 C   0  0  0  0  0  0  0  0  0  0  0  0
    0.8543    3.1284   11.4475 C   0  0  0  0  0  0  0  0  0  0  0  0
    1.9788    2.9440   12.1771 C   0  0  0  0  0  0  0  0  0  0  0  0
    2.4231    3.8189   13.1879 C   0  0  0  0  0  0  0  0  0  0  0  0
    1.9619    5.9356   14.5125 C   0  0  0  0  0  0  0  0  0  0  0  0
    3.2464    6.3956   14.3877 F   0  0  0  0  0  0  0  0  0  0  0  0
    1.7226    5.4128   15.7764 F   0  0  0  0  0  0  0  0  0  0  0  0
    1.1421    7.0300   14.3627 F   0  0  0  0  0  0  0  0  0  0  0  0
   -1.2048    4.5202   10.9903 C   0  0  0  0  0  0  0  0  0  0  0  0
   -1.4043    3.6664    9.9306 F   0  0  0  0  0  0  0  0  0  0  0  0
   -1.1820    5.8201   10.5653 F   0  0  0  0  0  0  0  0  0  0  0  0
   -2.2685    4.4030   11.9026 F   0  0  0  0  0  0  0  0  0  0  0  0
 18 24  1  0  0  0
 24 25  1  0  0  0
 24 26  1  0  0  0
 24 27  1  0  0  0
 18 19  2  0  0  0
 19 20  1  0  0  0
 20 28  1  0  0  0
 28 29  1  0  0  0
 28 30  1  0  0  0
 28 31  1  0  0  0
 20 21  2  0  0  0
 21 22  1  0  0  0
 22 23  2  0  0  0
 23 17  1  0  0  0
 17  1  1  0  0  0
  1  2  1  0  0  0
  2  3  2  0  0  0
  2  4  1  0  0  0
  4  7  1  0  0  0
  7  8  2  0  0  0
  8  9  1  0  0  0
  9 13  1  0  0  0
 13 14  1  0  0  0
 13 15  1  0  0  0
 13 16  1  0  0  0
  9 10  2  0  0  0
 10 11  1  0  0  0
 11 12  2  0  0  0
  4  5  1  0  0  0
  5  6  2  0  0  0
 23 18  1  0  0  0
  6  1  1  0  0  0
 12  7  1  0  0  0
M  END
> <minimizedAffinity>
-8.05741

> <CNNscore>
0.4460746348

> <CNNaffinity>
6.0789995193

> <CNN_VS>
2.7116875648

> <CNNaffinity_variance>
0.6734999418

$$$$
[H]c1c([H])c(-n2nc([H])n(C([H])([H])c3c([H])c([H])c(C(F)(F)F)c([H])c3C(F)(F)F)c2=O)c([H])c(C(F)(F)F)c1[H]


 31 33  0  0  0  0  0  0  0  0999 V2000
    3.9152    2.2460   16.5488 N   0  0  0  0  0  0  0  0  0  0  0  0
    4.5946    2.7077   17.5846 C   0  0  0  0  0  0  0  0  0  0  0  0
    5.4327    3.6504   17.4931 O   0  0  0  0  0  0  0  0  0  0  0  0
    4.2724    2.0548   18.7009 N   0  0  0  0  0  0  0  0  0  0  0  0
    3.3537    1.1563   18.3266 N   0  0  0  0  0  0  0  0  0  0  0  0
    3.1238    1.2722   16.9730 C   0  0  0  0  0  0  0  0  0  0  0  0
    4.7673    2.1781   20.0234 C   0  0  0  0  0  0  0  0  0  0  0  0
    4.2986    3.2251   20.8163 C   0  0  0  0  0  0  0  0  0  0  0  0
    4.7176    3.4650   22.0964 C   0  0  0  0  0  0  0  0  0  0  0  0
    5.6705    2.6103   22.6416 C   0  0  0  0  0  0  0  0  0  0  0  0
    6.1774    1.5418   21.9059 C   0  0  0  0  0  0  0  0  0  0  0  0
    5.7006    1.3504   20.5891 C   0  0  0  0  0  0  0  0  0  0  0  0
    4.1315    4.6229   22.8198 C   0  0  0  0  0  0  0  0  0  0  0  0
    3.6460    4.1597   24.0219 F   0  0  0  0  0  0  0  0  0  0  0  0
    5.1445    5.5283   23.1576 F   0  0  0  0  0  0  0  0  0  0  0  0
    3.2121    5.2949   22.0860 F   0  0  0  0  0  0  0  0  0  0  0  0
    4.0384    2.8039   15.2192 C   0  0  0  0  0  0  0  0  0  0  0  0
    2.0499    3.4648   13.8774 C   0  0  0  0  0  0  0  0  0  0  0  0
    1.1360    4.4899   13.5583 C   0  0  0  0  0  0  0  0  0  0  0  0
    1.2200    5.7422   14.1073 C   0  0  0  0  0  0  0  0  0  0  0  0
    2.2328    6.0186   15.0086 C   0  0  0  0  0  0  0  0  0  0  0  0
    3.1061    5.0304   15.3111 C   0  0  0  0  0  0  0  0  0  0  0  0
    3.0541    3.7304   14.7709 C   0  0  0  0  0  0  0  0  0  0  0  0
    1.8746    2.1425   13.1788 C   0  0  0  0  0  0  0  0  0  0  0  0
    3.0404    1.7578   12.5704 F   0  0  0  0  0  0  0  0  0  0  0  0
    0.8164    2.1897   12.2809 F   0  0  0  0  0  0  0  0  0  0  0  0
    1.5804    1.1678   14.1038 F   0  0  0  0  0  0  0  0  0  0  0  0
    0.2296    6.7783   13.6683 C   0  0  0  0  0  0  0  0  0  0  0  0
   -0.3695    6.4558   12.4731 F   0  0  0  0  0  0  0  0  0  0  0  0
    0.8866    7.9741   13.5720 F   0  0  0  0  0  0  0  0  0  0  0  0
   -0.7495    6.9248   14.6671 F   0  0  0  0  0  0  0  0  0  0  0  0
 18 24  1  0  0  0
 24 25  1  0  0  0
 24 26  1  0  0  0
 24 27  1  0  0  0
 18 19  2  0  0  0
 19 20  1  0  0  0
 20 28  1  0  0  0
 28 29  1  0  0  0
 28 30  1  0  0  0
 28 31  1  0  0  0
 20 21  2  0  0  0
 21 22  1  0  0  0
 22 23  2  0  0  0
 23 17  1  0  0  0
 17  1  1  0  0  0
  1  2  1  0  0  0
  2  3  2  0  0  0
  2  4  1  0  0  0
  4  7  1  0  0  0
  7  8  2  0  0  0
  8  9  1  0  0  0
  9 13  1  0  0  0
 13 14  1  0  0  0
 13 15  1  0  0  0
 13 16  1  0  0  0
  9 10  2  0  0  0
 10 11  1  0  0  0
 11 12  2  0  0  0
  4  5  1  0  0  0
  5  6  2  0  0  0
 23 18  1  0  0  0
  6  1  1  0  0  0
 12  7  1  0  0  0
M  END
> <minimizedAffinity>
-8.64671

> <CNNscore>
0.4248428941

> <CNNaffinity>
6.0309777260

> <CNN_VS>
2.5622179508

> <CNNaffinity_variance>
0.8597272038

$$$$
[H]c1c([H])c(-n2nc([H])n(C([H])([H])c3c([H])c([H])c(C(F)(F)F)c([H])c3C(F)(F)F)c2=O)c([H])c(C(F)(F)F)c1[H]


 31 33  0  0  0  0  0  0  0  0999 V2000
    3.8982    2.4797   16.4036 N   0  0  0  0  0  0  0  0  0  0  0  0
    4.5648    2.8780   17.4735 C   0  0  0  0  0  0  0  0  0  0  0  0
    5.4202    3.8091   17.4443 O   0  0  0  0  0  0  0  0  0  0  0  0
    4.2100    2.1769   18.5499 N   0  0  0  0  0  0  0  0  0  0  0  0
    3.2839    1.3141   18.1146 N   0  0  0  0  0  0  0  0  0  0  0  0
    3.0826    1.5004   16.7643 C   0  0  0  0  0  0  0  0  0  0  0  0
    4.6809    2.2265   19.8860 C   0  0  0  0  0  0  0  0  0  0  0  0
    4.2324    3.2552   20.7137 C   0  0  0  0  0  0  0  0  0  0  0  0
    4.6324    3.4257   22.0109 C   0  0  0  0  0  0  0  0  0  0  0  0
    5.5432    2.5152   22.5375 C   0  0  0  0  0  0  0  0  0  0  0  0
    6.0279    1.4613   21.7666 C   0  0  0  0  0  0  0  0  0  0  0  0
    5.5726    1.3428   20.4338 C   0  0  0  0  0  0  0  0  0  0  0  0
    4.0719    4.5721   22.7718 C   0  0  0  0  0  0  0  0  0  0  0  0
    3.4903    4.0689   23.9136 F   0  0  0  0  0  0  0  0  0  0  0  0
    5.1134    5.3926   23.2215 F   0  0  0  0  0  0  0  0  0  0  0  0
    3.2377    5.3413   22.0316 F   0  0  0  0  0  0  0  0  0  0  0  0
    4.0567    3.0999   15.1057 C   0  0  0  0  0  0  0  0  0  0  0  0
    2.5364    5.0286   14.7056 C   0  0  0  0  0  0  0  0  0  0  0  0
    1.4083    5.5106   14.0108 C   0  0  0  0  0  0  0  0  0  0  0  0
    0.6906    4.7262   13.1469 C   0  0  0  0  0  0  0  0  0  0  0  0
    1.0805    3.4147   12.9419 C   0  0  0  0  0  0  0  0  0  0  0  0
    2.1643    2.9584   13.6111 C   0  0  0  0  0  0  0  0  0  0  0  0
    2.9300    3.7315   14.5059 C   0  0  0  0  0  0  0  0  0  0  0  0
    3.2182    5.9768   15.6560 C   0  0  0  0  0  0  0  0  0  0  0  0
    4.5772    5.9393   15.4859 F   0  0  0  0  0  0  0  0  0  0  0  0
    2.8563    5.7114   16.9701 F   0  0  0  0  0  0  0  0  0  0  0  0
    2.8286    7.2667   15.3791 F   0  0  0  0  0  0  0  0  0  0  0  0
   -0.5221    5.3161   12.4921 C   0  0  0  0  0  0  0  0  0  0  0  0
   -0.2621    5.7655   11.2185 F   0  0  0  0  0  0  0  0  0  0  0  0
   -0.9717    6.3380   13.2823 F   0  0  0  0  0  0  0  0  0  0  0  0
   -1.5383    4.3447   12.4558 F   0  0  0  0  0  0  0  0  0  0  0  0
 18 24  1  0  0  0
 24 25  1  0  0  0
 24 26  1  0  0  0
 24 27  1  0  0  0
 18 19  2  0  0  0
 19 20  1  0  0  0
 20 28  1  0  0  0
 28 29  1  0  0  0
 28 30  1  0  0  0
 28 31  1  0  0  0
 20 21  2  0  0  0
 21 22  1  0  0  0
 22 23  2  0  0  0
 23 17  1  0  0  0
 17  1  1  0  0  0
  1  2  1  0  0  0
  2  3  2  0  0  0
  2  4  1  0  0  0
  4  7  1  0  0  0
  7  8  2  0  0  0
  8  9  1  0  0  0
  9 13  1  0  0  0
 13 14  1  0  0  0
 13 15  1  0  0  0
 13 16  1  0  0  0
  9 10  2  0  0  0
 10 11  1  0  0  0
 11 12  2  0  0  0
  4  5  1  0  0  0
  5  6  2  0  0  0
 23 18  1  0  0  0
  6  1  1  0  0  0
 12  7  1  0  0  0
M  END
> <minimizedAffinity>
-8.14860

> <CNNscore>
0.3787309527

> <CNNaffinity>
6.0144476891

> <CNN_VS>
2.2778575420

> <CNNaffinity_variance>
0.9757820964

$$$$
[H]c1c([H])c(-n2nc([H])n(C([H])([H])c3c([H])c([H])c(C(F)(F)F)c([H])c3C(F)(F)F)c2=O)c([H])c(C(F)(F)F)c1[H]


 31 33  0  0  0  0  0  0  0  0999 V2000
    3.7039    1.9018   17.1612 N   0  0  0  0  0  0  0  0  0  0  0  0
    4.1098    2.9233   16.4268 C   0  0  0  0  0  0  0  0  0  0  0  0
    5.2003    3.5294   16.6338 O   0  0  0  0  0  0  0  0  0  0  0  0
    3.2289    3.2061   15.4675 N   0  0  0  0  0  0  0  0  0  0  0  0
    2.2433    2.3145   15.6250 N   0  0  0  0  0  0  0  0  0  0  0  0
    2.5368    1.4898   16.6892 C   0  0  0  0  0  0  0  0  0  0  0  0
    3.2238    4.2275   14.4846 C   0  0  0  0  0  0  0  0  0  0  0  0
    3.8778    3.9931   13.2755 C   0  0  0  0  0  0  0  0  0  0  0  0
    3.9653    4.9068   12.2610 C   0  0  0  0  0  0  0  0  0  0  0  0
    3.3633    6.1473   12.4469 C   0  0  0  0  0  0  0  0  0  0  0  0
    2.6897    6.4454   13.6290 C   0  0  0  0  0  0  0  0  0  0  0  0
    2.6363    5.4554   14.6364 C   0  0  0  0  0  0  0  0  0  0  0  0
    4.6990    4.5175   11.0291 C   0  0  0  0  0  0  0  0  0  0  0  0
    4.4322    5.4670   10.0686 F   0  0  0  0  0  0  0  0  0  0  0  0
    6.0779    4.6027   11.2560 F   0  0  0  0  0  0  0  0  0  0  0  0
    4.4290    3.2513   10.6302 F   0  0  0  0  0  0  0  0  0  0  0  0
    4.4896    1.3561   18.2471 C   0  0  0  0  0  0  0  0  0  0  0  0
    3.7597    1.2875   20.6249 C   0  0  0  0  0  0  0  0  0  0  0  0
    3.7113    1.9678   21.8588 C   0  0  0  0  0  0  0  0  0  0  0  0
    4.2171    3.2309   22.0185 C   0  0  0  0  0  0  0  0  0  0  0  0
    4.7991    3.8677   20.9368 C   0  0  0  0  0  0  0  0  0  0  0  0
    4.8430    3.2092   19.7556 C   0  0  0  0  0  0  0  0  0  0  0  0
    4.3367    1.9109   19.5498 C   0  0  0  0  0  0  0  0  0  0  0  0
    3.1357   -0.0816   20.5672 C   0  0  0  0  0  0  0  0  0  0  0  0
    2.6594   -0.3442   19.3096 F   0  0  0  0  0  0  0  0  0  0  0  0
    2.1462   -0.2194   21.5317 F   0  0  0  0  0  0  0  0  0  0  0  0
    4.0923   -1.0356   20.8262 F   0  0  0  0  0  0  0  0  0  0  0  0
    4.0750    3.8891   23.3578 C   0  0  0  0  0  0  0  0  0  0  0  0
    2.7592    4.0767   23.7113 F   0  0  0  0  0  0  0  0  0  0  0  0
    4.7378    5.0847   23.3114 F   0  0  0  0  0  0  0  0  0  0  0  0
    4.7194    3.0975   24.3251 F   0  0  0  0  0  0  0  0  0  0  0  0
 18 24  1  0  0  0
 24 25  1  0  0  0
 24 26  1  0  0  0
 24 27  1  0  0  0
 18 19  2  0  0  0
 19 20  1  0  0  0
 20 28  1  0  0  0
 28 29  1  0  0  0
 28 30  1  0  0  0
 28 31  1  0  0  0
 20 21  2  0  0  0
 21 22  1  0  0  0
 22 23  2  0  0  0
 23 17  1  0  0  0
 17  1  1  0  0  0
  1  2  1  0  0  0
  2  3  2  0  0  0
  2  4  1  0  0  0
  4  7  1  0  0  0
  7  8  2  0  0  0
  8  9  1  0  0  0
  9 13  1  0  0  0
 13 14  1  0  0  0
 13 15  1  0  0  0
 13 16  1  0  0  0
  9 10  2  0  0  0
 10 11  1  0  0  0
 11 12  2  0  0  0
  4  5  1  0  0  0
  5  6  2  0  0  0
 23 18  1  0  0  0
  6  1  1  0  0  0
 12  7  1  0  0  0
M  END
> <minimizedAffinity>
-8.60166

> <CNNscore>
0.3555137217

> <CNNaffinity>
6.1971678734

> <CNN_VS>
2.2031781673

> <CNNaffinity_variance>
0.5869913101

$$$$
[H]c1c([H])c([C@@]2([H])N=C(N([H])[H])OC2([H])[H])c([H])c([H])c1C(F)(F)F


 18 19  0  0  0  0  0  0  0  0999 V2000
    4.0392    2.3782   16.6030 C   0  0  0  0  0  0  0  0  0  0  0  0
    3.5574    1.1909   17.0359 C   0  0  0  0  0  0  0  0  0  0  0  0
    3.6392    0.8338   18.3614 C   0  0  0  0  0  0  0  0  0  0  0  0
    4.2139    1.6614   19.3138 C   0  0  0  0  0  0  0  0  0  0  0  0
    4.7091    2.8684   18.8853 C   0  0  0  0  0  0  0  0  0  0  0  0
    4.6210    3.2138   17.5596 C   0  0  0  0  0  0  0  0  0  0  0  0
    0.8524    1.6839   13.7214 N   0  0  0  0  0  0  0  0  0  0  0  0
    1.9510    2.3700   14.3903 C   0  0  0  0  0  0  0  0  0  0  0  0
    3.1498    1.9515   14.4794 N   0  0  0  0  0  0  0  0  0  0  0  0
    3.9755    2.8864   15.2076 C   0  0  0  0  0  0  0  0  0  0  0  0
    3.1656    4.1464   15.0259 C   0  0  0  0  0  0  0  0  0  0  0  0
    1.8408    3.5903   15.0344 O   0  0  0  0  0  0  0  0  0  0  0  0
    0.7170    1.9099   12.7284 H   0  0  0  0  0  0  0  0  0  0  0  0
    0.2318    1.0117   14.1871 H   0  0  0  0  0  0  0  0  0  0  0  0
    4.2417    1.2845   20.7760 C   0  0  0  0  0  0  0  0  0  0  0  0
    2.9947    1.2632   21.2949 F   0  0  0  0  0  0  0  0  0  0  0  0
    4.9570    0.1214   20.8966 F   0  0  0  0  0  0  0  0  0  0  0  0
    4.9642    2.3294   21.3819 F   0  0  0  0  0  0  0  0  0  0  0  0
  7  8  1  0  0  0
  8  9  2  0  0  0
  9 10  1  0  0  0
 10 11  1  0  0  0
 11 12  1  0  0  0
 10  1  1  0  0  0
  1  2  2  0  0  0
  2  3  1  0  0  0
  3  4  2  0  0  0
  4  5  1  0  0  0
  5  6  2  0  0  0
  4 15  1  0  0  0
 15 16  1  0  0  0
 15 17  1  0  0  0
 15 18  1  0  0  0
 12  8  1  0  0  0
  6  1  1  0  0  0
  7 13  1  0  0  0
  7 14  1  0  0  0
M  END
> <minimizedAffinity>
-6.26718

> <CNNscore>
0.5451887250

> <CNNaffinity>
4.2603545189

> <CNN_VS>
2.3226971626

> <CNNaffinity_variance>
0.3675474524

$$$$
[H]c1c([H])c([C@@]2([H])N=C(N([H])[H])OC2([H])[H])c([H])c([H])c1C(F)(F)F


 18 19  0  0  0  0  0  0  0  0999 V2000
    4.7266    1.4829   21.2593 C   0  0  0  0  0  0  0  0  0  0  0  0
    3.7662    0.5307   21.2469 C   0  0  0  0  0  0  0  0  0  0  0  0
    3.1424    0.1685   20.0760 C   0  0  0  0  0  0  0  0  0  0  0  0
    3.4602    0.7535   18.8599 C   0  0  0  0  0  0  0  0  0  0  0  0
    4.4321    1.7237   18.8606 C   0  0  0  0  0  0  0  0  0  0  0  0
    5.0478    2.0761   20.0359 C   0  0  0  0  0  0  0  0  0  0  0  0
    4.7774    5.4842   22.9703 N   0  0  0  0  0  0  0  0  0  0  0  0
    4.8522    4.0292   22.9196 C   0  0  0  0  0  0  0  0  0  0  0  0
    5.7130    3.3472   22.2761 N   0  0  0  0  0  0  0  0  0  0  0  0
    5.4927    1.9306   22.4518 C   0  0  0  0  0  0  0  0  0  0  0  0
    4.7100    1.9463   23.7416 C   0  0  0  0  0  0  0  0  0  0  0  0
    3.9820    3.1734   23.5723 O   0  0  0  0  0  0  0  0  0  0  0  0
    5.3019    5.9369   23.7289 H   0  0  0  0  0  0  0  0  0  0  0  0
    4.2397    6.0512   22.3046 H   0  0  0  0  0  0  0  0  0  0  0  0
    2.8121    0.3032   17.5722 C   0  0  0  0  0  0  0  0  0  0  0  0
    3.1173    1.1406   16.5572 F   0  0  0  0  0  0  0  0  0  0  0  0
    3.1375   -1.0138   17.3762 F   0  0  0  0  0  0  0  0  0  0  0  0
    1.4327    0.3981   17.8355 F   0  0  0  0  0  0  0  0  0  0  0  0
  7  8  1  0  0  0
  8  9  2  0  0  0
  9 10  1  0  0  0
 10 11  1  0  0  0
 11 12  1  0  0  0
 10  1  1  0  0  0
  1  2  2  0  0  0
  2  3  1  0  0  0
  3  4  2  0  0  0
  4  5  1  0  0  0
  5  6  2  0  0  0
  4 15  1  0  0  0
 15 16  1  0  0  0
 15 17  1  0  0  0
 15 18  1  0  0  0
 12  8  1  0  0  0
  6  1  1  0  0  0
  7 13  1  0  0  0
  7 14  1  0  0  0
M  END
> <minimizedAffinity>
-6.77122

> <CNNscore>
0.5378862023

> <CNNaffinity>
4.7048215866

> <CNN_VS>
2.5306587219

> <CNNaffinity_variance>
0.2290058583

$$$$
[H]c1c([H])c([C@@]2([H])N=C(N([H])[H])OC2([H])[H])c([H])c([H])c1C(F)(F)F


 18 19  0  0  0  0  0  0  0  0999 V2000
    3.3226    3.5436   14.8900 C   0  0  0  0  0  0  0  0  0  0  0  0
    2.5523    2.4784   14.5718 C   0  0  0  0  0  0  0  0  0  0  0  0
    2.4437    1.4031   15.4222 C   0  0  0  0  0  0  0  0  0  0  0  0
    3.1107    1.3534   16.6366 C   0  0  0  0  0  0  0  0  0  0  0  0
    3.8981    2.4282   16.9691 C   0  0  0  0  0  0  0  0  0  0  0  0
    3.9979    3.4959   16.1121 C   0  0  0  0  0  0  0  0  0  0  0  0
    0.3728    6.6854   14.2820 N   0  0  0  0  0  0  0  0  0  0  0  0
    1.6844    6.0624   14.4119 C   0  0  0  0  0  0  0  0  0  0  0  0
    2.1602    5.1572   13.6540 N   0  0  0  0  0  0  0  0  0  0  0  0
    3.4885    4.7730   14.0712 C   0  0  0  0  0  0  0  0  0  0  0  0
    3.8850    6.0051   14.8467 C   0  0  0  0  0  0  0  0  0  0  0  0
    2.6085    6.3716   15.3951 O   0  0  0  0  0  0  0  0  0  0  0  0
    0.3307    7.5314   13.7009 H   0  0  0  0  0  0  0  0  0  0  0  0
   -0.4764    6.3263   14.7335 H   0  0  0  0  0  0  0  0  0  0  0  0
    2.9341    0.1947   17.5891 C   0  0  0  0  0  0  0  0  0  0  0  0
    3.2508   -0.9754   16.9930 F   0  0  0  0  0  0  0  0  0  0  0  0
    3.6253    0.4849   18.7366 F   0  0  0  0  0  0  0  0  0  0  0  0
    1.5557    0.1968   17.8738 F   0  0  0  0  0  0  0  0  0  0  0  0
  7  8  1  0  0  0
  8  9  2  0  0  0
  9 10  1  0  0  0
 10 11  1  0  0  0
 11 12  1  0  0  0
 10  1  1  0  0  0
  1  2  2  0  0  0
  2  3  1  0  0  0
  3  4  2  0  0  0
  4  5  1  0  0  0
  5  6  2  0  0  0
  4 15  1  0  0  0
 15 16  1  0  0  0
 15 17  1  0  0  0
 15 18  1  0  0  0
 12  8  1  0  0  0
  6  1  1  0  0  0
  7 13  1  0  0  0
  7 14  1  0  0  0
M  END
> <minimizedAffinity>
-5.67683

> <CNNscore>
0.4971515238

> <CNNaffinity>
3.9103507996

> <CNN_VS>
1.9440368414

> <CNNaffinity_variance>
0.3497765064

$$$$
[H]c1c([H])c([C@@]2([H])N=C(N([H])[H])OC2([H])[H])c([H])c([H])c1C(F)(F)F


 18 19  0  0  0  0  0  0  0  0999 V2000
    4.7433    4.9669   21.5555 C   0  0  0  0  0  0  0  0  0  0  0  0
    4.3021    4.4828   22.7388 C   0  0  0  0  0  0  0  0  0  0  0  0
    3.9115    3.1704   22.8663 C   0  0  0  0  0  0  0  0  0  0  0  0
    3.9480    2.2836   21.8011 C   0  0  0  0  0  0  0  0  0  0  0  0
    4.3915    2.7647   20.5938 C   0  0  0  0  0  0  0  0  0  0  0  0
    4.7792    4.0767   20.4794 C   0  0  0  0  0  0  0  0  0  0  0  0
    8.0689    6.9640   23.5284 N   0  0  0  0  0  0  0  0  0  0  0  0
    7.1186    6.6312   22.4743 C   0  0  0  0  0  0  0  0  0  0  0  0
    5.8559    6.7811   22.5319 N   0  0  0  0  0  0  0  0  0  0  0  0
    5.2236    6.3513   21.3065 C   0  0  0  0  0  0  0  0  0  0  0  0
    6.3923    6.4583   20.3583 C   0  0  0  0  0  0  0  0  0  0  0  0
    7.4625    6.0948   21.2455 O   0  0  0  0  0  0  0  0  0  0  0  0
    8.4544    7.9160   23.5045 H   0  0  0  0  0  0  0  0  0  0  0  0
    8.3582    6.3083   24.2634 H   0  0  0  0  0  0  0  0  0  0  0  0
    3.5754    0.8297   21.9692 C   0  0  0  0  0  0  0  0  0  0  0  0
    2.3402    0.5860   21.4797 F   0  0  0  0  0  0  0  0  0  0  0  0
    4.5869    0.0726   21.4377 F   0  0  0  0  0  0  0  0  0  0  0  0
    3.5518    0.6448   23.3643 F   0  0  0  0  0  0  0  0  0  0  0  0
  7  8  1  0  0  0
  8  9  2  0  0  0
  9 10  1  0  0  0
 10 11  1  0  0  0
 11 12  1  0  0  0
 10  1  1  0  0  0
  1  2  2  0  0  0
  2  3  1  0  0  0
  3  4  2  0  0  0
  4  5  1  0  0  0
  5  6  2  0  0  0
  4 15  1  0  0  0
 15 16  1  0  0  0
 15 17  1  0  0  0
 15 18  1  0  0  0
 12  8  1  0  0  0
  6  1  1  0  0  0
  7 13  1  0  0  0
  7 14  1  0  0  0
M  END
> <minimizedAffinity>
-6.37571

> <CNNscore>
0.4935690761

> <CNNaffinity>
4.3492836952

> <CNN_VS>
2.1466720104

> <CNNaffinity_variance>
0.2970380187

$$$$
[H]c1c([H])c([C@@]2([H])N=C(N([H])[H])OC2([H])[H])c([H])c([H])c1C(F)(F)F


 18 19  0  0  0  0  0  0  0  0999 V2000
    5.0167    3.2413   18.4382 C   0  0  0  0  0  0  0  0  0  0  0  0
    5.1550    3.5230   19.7538 C   0  0  0  0  0  0  0  0  0  0  0  0
    4.6972    2.6540   20.7164 C   0  0  0  0  0  0  0  0  0  0  0  0
    4.0762    1.4571   20.3939 C   0  0  0  0  0  0  0  0  0  0  0  0
    3.9277    1.1618   19.0611 C   0  0  0  0  0  0  0  0  0  0  0  0
    4.3893    2.0370   18.1096 C   0  0  0  0  0  0  0  0  0  0  0  0
    2.6539    6.0060   16.0477 N   0  0  0  0  0  0  0  0  0  0  0  0
    3.8231    5.4456   16.7141 C   0  0  0  0  0  0  0  0  0  0  0  0
    4.3548    4.3160   16.4660 N   0  0  0  0  0  0  0  0  0  0  0  0
    5.5014    4.0825   17.3126 C   0  0  0  0  0  0  0  0  0  0  0  0
    5.8460    5.5039   17.6832 C   0  0  0  0  0  0  0  0  0  0  0  0
    4.5273    6.0728   17.7273 O   0  0  0  0  0  0  0  0  0  0  0  0
    2.8402    6.5817   15.2176 H   0  0  0  0  0  0  0  0  0  0  0  0
    1.6894    5.8551   16.3654 H   0  0  0  0  0  0  0  0  0  0  0  0
    3.6341    0.4831   21.4601 C   0  0  0  0  0  0  0  0  0  0  0  0
    4.1109   -0.7563   21.2123 F   0  0  0  0  0  0  0  0  0  0  0  0
    3.9646    1.0157   22.6790 F   0  0  0  0  0  0  0  0  0  0  0  0
    2.2321    0.4594   21.3375 F   0  0  0  0  0  0  0  0  0  0  0  0
  7  8  1  0  0  0
  8  9  2  0  0  0
  9 10  1  0  0  0
 10 11  1  0  0  0
 11 12  1  0  0  0
 10  1  1  0  0  0
  1  2  2  0  0  0
  2  3  1  0  0  0
  3  4  2  0  0  0
  4  5  1  0  0  0
  5  6  2  0  0  0
  4 15  1  0  0  0
 15 16  1  0  0  0
 15 17  1  0  0  0
 15 18  1  0  0  0
 12  8  1  0  0  0
  6  1  1  0  0  0
  7 13  1  0  0  0
  7 14  1  0  0  0
M  END
> <minimizedAffinity>
-6.49392

> <CNNscore>
0.4354148507

> <CNNaffinity>
4.3723626137

> <CNN_VS>
1.9037916660

> <CNNaffinity_variance>
0.3488254547

$$$$
[H]c1c([H])c([C@@]2([H])N=C(N([H])[H])OC2([H])[H])c([H])c([H])c1C(F)(F)F


 18 19  0  0  0  0  0  0  0  0999 V2000
    4.5828    3.1320   18.9750 C   0  0  0  0  0  0  0  0  0  0  0  0
    4.3019    4.3831   19.4052 C   0  0  0  0  0  0  0  0  0  0  0  0
    4.1302    4.6505   20.7433 C   0  0  0  0  0  0  0  0  0  0  0  0
    4.2340    3.6636   21.7115 C   0  0  0  0  0  0  0  0  0  0  0  0
    4.5161    2.3887   21.2861 C   0  0  0  0  0  0  0  0  0  0  0  0
    4.6858    2.1346   19.9478 C   0  0  0  0  0  0  0  0  0  0  0  0
    2.1402    0.4416   16.5798 N   0  0  0  0  0  0  0  0  0  0  0  0
    3.0458    1.5425   16.8852 C   0  0  0  0  0  0  0  0  0  0  0  0
    4.2024    1.4363   17.4058 N   0  0  0  0  0  0  0  0  0  0  0  0
    4.8236    2.7306   17.5642 C   0  0  0  0  0  0  0  0  0  0  0  0
    4.0489    3.5193   16.5374 C   0  0  0  0  0  0  0  0  0  0  0  0
    2.7680    2.8781   16.6502 O   0  0  0  0  0  0  0  0  0  0  0  0
    2.2266    0.0333   15.6411 H   0  0  0  0  0  0  0  0  0  0  0  0
    1.4451    0.0749   17.2403 H   0  0  0  0  0  0  0  0  0  0  0  0
    4.1049    3.9818   23.1822 C   0  0  0  0  0  0  0  0  0  0  0  0
    2.8075    4.0860   23.5436 F   0  0  0  0  0  0  0  0  0  0  0  0
    4.8449    3.0613   23.8779 F   0  0  0  0  0  0  0  0  0  0  0  0
    4.7112    5.2455   23.3103 F   0  0  0  0  0  0  0  0  0  0  0  0
  7  8  1  0  0  0
  8  9  2  0  0  0
  9 10  1  0  0  0
 10 11  1  0  0  0
 11 12  1  0  0  0
 10  1  1  0  0  0
  1  2  2  0  0  0
  2  3  1  0  0  0
  3  4  2  0  0  0
  4  5  1  0  0  0
  5  6  2  0  0  0
  4 15  1  0  0  0
 15 16  1  0  0  0
 15 17  1  0  0  0
 15 18  1  0  0  0
 12  8  1  0  0  0
  6  1  1  0  0  0
  7 13  1  0  0  0
  7 14  1  0  0  0
M  END
> <minimizedAffinity>
-6.64739

> <CNNscore>
0.4345656633

> <CNNaffinity>
4.3176321983

> <CNN_VS>
1.8762947321

> <CNNaffinity_variance>
0.6635851860

$$$$
[H]c1c([H])c([C@@]2([H])N=C(N([H])[H])OC2([H])[H])c([H])c([H])c1C(F)(F)F


 18 19  0  0  0  0  0  0  0  0999 V2000
    5.3540    3.8096   20.5535 C   0  0  0  0  0  0  0  0  0  0  0  0
    4.9378    3.2167   19.4114 C   0  0  0  0  0  0  0  0  0  0  0  0
    4.2667    2.0166   19.4398 C   0  0  0  0  0  0  0  0  0  0  0  0
    3.9848    1.3576   20.6266 C   0  0  0  0  0  0  0  0  0  0  0  0
    4.4051    1.9488   21.7925 C   0  0  0  0  0  0  0  0  0  0  0  0
    5.0736    3.1471   21.7511 C   0  0  0  0  0  0  0  0  0  0  0  0
    3.6988    7.7235   19.6140 N   0  0  0  0  0  0  0  0  0  0  0  0
    4.5372    6.7264   20.2683 C   0  0  0  0  0  0  0  0  0  0  0  0
    5.4041    5.9889   19.6985 N   0  0  0  0  0  0  0  0  0  0  0  0
    6.0535    5.1176   20.6499 C   0  0  0  0  0  0  0  0  0  0  0  0
    5.7962    5.8842   21.9237 C   0  0  0  0  0  0  0  0  0  0  0  0
    4.5046    6.4365   21.6214 O   0  0  0  0  0  0  0  0  0  0  0  0
    4.0815    8.6759   19.5695 H   0  0  0  0  0  0  0  0  0  0  0  0
    2.7758    7.5188   19.2140 H   0  0  0  0  0  0  0  0  0  0  0  0
    3.1929    0.0717   20.6483 C   0  0  0  0  0  0  0  0  0  0  0  0
    2.1235    0.1748   21.4672 F   0  0  0  0  0  0  0  0  0  0  0  0
    2.9185   -0.2748   19.3509 F   0  0  0  0  0  0  0  0  0  0  0  0
    4.0879   -0.8686   21.1922 F   0  0  0  0  0  0  0  0  0  0  0  0
  7  8  1  0  0  0
  8  9  2  0  0  0
  9 10  1  0  0  0
 10 11  1  0  0  0
 11 12  1  0  0  0
 10  1  1  0  0  0
  1  2  2  0  0  0
  2  3  1  0  0  0
  3  4  2  0  0  0
  4  5  1  0  0  0
  5  6  2  0  0  0
  4 15  1  0  0  0
 15 16  1  0  0  0
 15 17  1  0  0  0
 15 18  1  0  0  0
 12  8  1  0  0  0
  6  1  1  0  0  0
  7 13  1  0  0  0
  7 14  1  0  0  0
M  END
> <minimizedAffinity>
-6.74954

> <CNNscore>
0.4227406979

> <CNNaffinity>
4.5256109238

> <CNN_VS>
1.9131599665

> <CNNaffinity_variance>
0.3209122717

$$$$
[H]c1c([H])c([C@@]2([H])N=C(N([H])[H])OC2([H])[H])c([H])c([H])c1C(F)(F)F


 18 19  0  0  0  0  0  0  0  0999 V2000
    4.3090    4.4554   19.2936 C   0  0  0  0  0  0  0  0  0  0  0  0
    3.8629    5.2072   20.3256 C   0  0  0  0  0  0  0  0  0  0  0  0
    3.9013    4.7332   21.6161 C   0  0  0  0  0  0  0  0  0  0  0  0
    4.3929    3.4741   21.9247 C   0  0  0  0  0  0  0  0  0  0  0  0
    4.8460    2.7007   20.8844 C   0  0  0  0  0  0  0  0  0  0  0  0
    4.8029    3.1852   19.6007 C   0  0  0  0  0  0  0  0  0  0  0  0
    2.1148    2.6620   15.9905 N   0  0  0  0  0  0  0  0  0  0  0  0
    2.7897    3.6921   16.7706 C   0  0  0  0  0  0  0  0  0  0  0  0
    4.0199    3.6962   17.0975 N   0  0  0  0  0  0  0  0  0  0  0  0
    4.3507    4.8726   17.8675 C   0  0  0  0  0  0  0  0  0  0  0  0
    3.2303    5.7881   17.4395 C   0  0  0  0  0  0  0  0  0  0  0  0
    2.1761    4.8259   17.2747 O   0  0  0  0  0  0  0  0  0  0  0  0
    2.1041    2.8011   14.9727 H   0  0  0  0  0  0  0  0  0  0  0  0
    1.6654    1.8366   16.4035 H   0  0  0  0  0  0  0  0  0  0  0  0
    4.4871    2.9899   23.3521 C   0  0  0  0  0  0  0  0  0  0  0  0
    5.7753    2.8250   23.7240 F   0  0  0  0  0  0  0  0  0  0  0  0
    3.7455    3.8376   24.1333 F   0  0  0  0  0  0  0  0  0  0  0  0
    3.8611    1.7296   23.3248 F   0  0  0  0  0  0  0  0  0  0  0  0
  7  8  1  0  0  0
  8  9  2  0  0  0
  9 10  1  0  0  0
 10 11  1  0  0  0
 11 12  1  0  0  0
 10  1  1  0  0  0
  1  2  2  0  0  0
  2  3  1  0  0  0
  3  4  2  0  0  0
  4  5  1  0  0  0
  5  6  2  0  0  0
  4 15  1  0  0  0
 15 16  1  0  0  0
 15 17  1  0  0  0
 15 18  1  0  0  0
 12  8  1  0  0  0
  6  1  1  0  0  0
  7 13  1  0  0  0
  7 14  1  0  0  0
M  END
> <minimizedAffinity>
-5.99328

> <CNNscore>
0.4105062187

> <CNNaffinity>
4.2355031967

> <CNN_VS>
1.7387003899

> <CNNaffinity_variance>
0.4907966554

$$$$
[H]c1c([H])c([C@@]2([H])N=C(N([H])[H])OC2([H])[H])c([H])c([H])c1C(F)(F)F


 18 19  0  0  0  0  0  0  0  0999 V2000
    3.0686    3.6292   13.8227 C   0  0  0  0  0  0  0  0  0  0  0  0
    2.5964    2.3619   13.8323 C   0  0  0  0  0  0  0  0  0  0  0  0
    2.8167    1.5316   14.9063 C   0  0  0  0  0  0  0  0  0  0  0  0
    3.5270    1.9440   16.0233 C   0  0  0  0  0  0  0  0  0  0  0  0
    4.0138    3.2280   16.0235 C   0  0  0  0  0  0  0  0  0  0  0  0
    3.7867    4.0473   14.9457 C   0  0  0  0  0  0  0  0  0  0  0  0
    6.0927    5.1761   11.1018 N   0  0  0  0  0  0  0  0  0  0  0  0
    4.7770    4.7639   11.5755 C   0  0  0  0  0  0  0  0  0  0  0  0
    4.1389    5.2775   12.5498 N   0  0  0  0  0  0  0  0  0  0  0  0
    2.8639    4.6258   12.7391 C   0  0  0  0  0  0  0  0  0  0  0  0
    2.6644    4.0383   11.3637 C   0  0  0  0  0  0  0  0  0  0  0  0
    4.0280    3.7386   11.0245 O   0  0  0  0  0  0  0  0  0  0  0  0
    6.1036    5.8999   10.3730 H   0  0  0  0  0  0  0  0  0  0  0  0
    6.9740    4.7841   11.4534 H   0  0  0  0  0  0  0  0  0  0  0  0
    3.7086    1.0434   17.2220 C   0  0  0  0  0  0  0  0  0  0  0  0
    4.9388    1.1937   17.7593 F   0  0  0  0  0  0  0  0  0  0  0  0
    2.6563    1.2595   18.0733 F   0  0  0  0  0  0  0  0  0  0  0  0
    3.6052   -0.2553   16.6892 F   0  0  0  0  0  0  0  0  0  0  0  0
  7  8  1  0  0  0
  8  9  2  0  0  0
  9 10  1  0  0  0
 10 11  1  0  0  0
 11 12  1  0  0  0
 10  1  1  0  0  0
  1  2  2  0  0  0
  2  3  1  0  0  0
  3  4  2  0  0  0
  4  5  1  0  0  0
  5  6  2  0  0  0
  4 15  1  0  0  0
 15 16  1  0  0  0
 15 17  1  0  0  0
 15 18  1  0  0  0
 12  8  1  0  0  0
  6  1  1  0  0  0
  7 13  1  0  0  0
  7 14  1  0  0  0
M  END
> <minimizedAffinity>
-5.38411

> <CNNscore>
0.4030993283

> <CNNaffinity>
3.6980521679

> <CNN_VS>
1.4906823635

> <CNNaffinity_variance>
0.3923443854

$$$$
[H]N=C(N([H])[H])N([H])C([H])([H])C([H])([H])C([H])([H])[C@@]([H])(C(=O)c1nc2c([H])c([H])c([H])c([H])c2s1)N([H])C(=O)[C@@]1([H])N(C(=O)[C@]([H])(N([H])C(=O)OC([H])([H])c2c([H])c([H])c([H])c([H])c2[H])C([H])([H])c2c([H])c([H])c([H])c([H])c2[H])C([H])([H])C([H])([H])C1([H])[H]


 54 58  0  0  0  0  0  0  0  0999 V2000
    3.1686    5.4896   16.5141 N   0  0  0  0  0  0  0  0  0  0  0  0
    2.2227    5.1596   15.6197 C   0  0  0  0  0  0  0  0  0  0  0  0
    1.1730    5.8732   15.4025 O   0  0  0  0  0  0  0  0  0  0  0  0
    2.5741    6.7281   16.6943 H   0  0  0  0  0  0  0  0  0  0  0  0
    2.3807    3.9396   14.8465 C   0  0  0  0  0  0  0  0  0  0  0  0
    3.2527    2.9282   15.6612 C   0  0  0  0  0  0  0  0  0  0  0  0
    3.1944    1.7708   14.6884 C   0  0  0  0  0  0  0  0  0  0  0  0
    2.7131    2.3736   13.3528 C   0  0  0  0  0  0  0  0  0  0  0  0
    3.0950    3.8011   13.6176 N   0  0  0  0  0  0  0  0  0  0  0  0
    3.8460    4.6015   12.7945 C   0  0  0  0  0  0  0  0  0  0  0  0
    3.8076    5.8918   13.1361 O   0  0  0  0  0  0  0  0  0  0  0  0
    4.7222    4.4646   11.6129 C   0  0  0  0  0  0  0  0  0  0  0  0
    5.7431    5.3125   11.4311 N   0  0  0  0  0  0  0  0  0  0  0  0
    6.0941    6.6299   10.9523 C   0  0  0  0  0  0  0  0  0  0  0  0
    5.1443    7.3076   10.5061 O   0  0  0  0  0  0  0  0  0  0  0  0
    6.7581    4.8414   11.6956 H   0  0  0  0  0  0  0  0  0  0  0  0
    7.3434    7.1509   10.9757 O   0  0  0  0  0  0  0  0  0  0  0  0
    8.5692    6.5701   10.6522 C   0  0  0  0  0  0  0  0  0  0  0  0
    9.5606    7.2661   11.5347 C   0  0  0  0  0  0  0  0  0  0  0  0
    9.1045    8.1843   12.4255 C   0  0  0  0  0  0  0  0  0  0  0  0
    9.9750    8.9301   13.2344 C   0  0  0  0  0  0  0  0  0  0  0  0
   11.3362    8.7242   13.1258 C   0  0  0  0  0  0  0  0  0  0  0  0
   11.8065    7.7918   12.2277 C   0  0  0  0  0  0  0  0  0  0  0  0
   10.9124    7.0588   11.4286 C   0  0  0  0  0  0  0  0  0  0  0  0
    3.9563    4.1187   10.3307 C   0  0  0  0  0  0  0  0  0  0  0  0
    4.3162    2.7676    9.7900 C   0  0  0  0  0  0  0  0  0  0  0  0
    5.5188    2.5937    9.1319 C   0  0  0  0  0  0  0  0  0  0  0  0
    5.9455    1.3923    8.6201 C   0  0  0  0  0  0  0  0  0  0  0  0
    5.1386    0.2740    8.7576 C   0  0  0  0  0  0  0  0  0  0  0  0
    3.9229    0.4576    9.4251 C   0  0  0  0  0  0  0  0  0  0  0  0
    3.5073    1.6657    9.9320 C   0  0  0  0  0  0  0  0  0  0  0  0
    4.1240    5.9166   17.4872 C   0  0  0  0  0  0  0  0  0  0  0  0
    5.0624    4.9152   18.0303 C   0  0  0  0  0  0  0  0  0  0  0  0
    6.2037    4.7597   17.4943 O   0  0  0  0  0  0  0  0  0  0  0  0
    4.7607    4.0586   19.1979 C   0  0  0  0  0  0  0  0  0  0  0  0
    4.8472    4.2963   20.4907 N   0  0  0  0  0  0  0  0  0  0  0  0
    4.5665    3.3582   21.3595 C   0  0  0  0  0  0  0  0  0  0  0  0
    4.6434    3.5046   22.7594 C   0  0  0  0  0  0  0  0  0  0  0  0
    4.3493    2.4460   23.5607 C   0  0  0  0  0  0  0  0  0  0  0  0
    3.9699    1.2088   23.0979 C   0  0  0  0  0  0  0  0  0  0  0  0
    3.8874    1.0571   21.7401 C   0  0  0  0  0  0  0  0  0  0  0  0
    4.1841    2.1332   20.8791 C   0  0  0  0  0  0  0  0  0  0  0  0
    4.2519    2.4072   19.1880 S   0  0  0  0  0  0  0  0  0  0  0  0
    3.4389    6.6012   18.6534 C   0  0  0  0  0  0  0  0  0  0  0  0
    3.8054    8.0437   18.7646 C   0  0  0  0  0  0  0  0  0  0  0  0
    4.7920    8.2603   19.8685 C   0  0  0  0  0  0  0  0  0  0  0  0
    4.5904    7.4773   21.0442 N   0  0  0  0  0  0  0  0  0  0  0  0
    3.8141    6.7754   21.1899 H   0  0  0  0  0  0  0  0  0  0  0  0
    6.1125    6.5274   22.7496 N   0  0  0  0  0  0  0  0  0  0  0  0
    5.5031    7.6417   22.1235 C   0  0  0  0  0  0  0  0  0  0  0  0
    5.7973    8.8197   22.5835 N   0  0  0  0  0  0  0  0  0  0  0  0
    5.7050    6.0875   23.6180 H   0  0  0  0  0  0  0  0  0  0  0  0
    6.9874    6.0933   22.3599 H   0  0  0  0  0  0  0  0  0  0  0  0
    6.4487    8.9567   23.3667 H   0  0  0  0  0  0  0  0  0  0  0  0
 49 50  1  0  0  0
 50 51  2  0  0  0
 50 47  1  0  0  0
 47 46  1  0  0  0
 46 45  1  0  0  0
 45 44  1  0  0  0
 44 32  1  0  0  0
 32  1  1  0  0  0
  1  2  1  0  0  0
  2  3  2  0  0  0
  2  5  1  0  0  0
  5  6  1  0  0  0
  6  7  1  0  0  0
  7  8  1  0  0  0
  8  9  1  0  0  0
  9 10  1  0  0  0
 10 11  2  0  0  0
 10 12  1  0  0  0
 12 25  1  0  0  0
 25 26  1  0  0  0
 26 27  2  0  0  0
 27 28  1  0  0  0
 28 29  2  0  0  0
 29 30  1  0  0  0
 30 31  2  0  0  0
 12 13  1  0  0  0
 13 14  1  0  0  0
 14 15  2  0  0  0
 14 17  1  0  0  0
 17 18  1  0  0  0
 18 19  1  0  0  0
 19 20  2  0  0  0
 20 21  1  0  0  0
 21 22  2  0  0  0
 22 23  1  0  0  0
 23 24  2  0  0  0
 32 33  1  0  0  0
 33 34  2  0  0  0
 33 35  1  0  0  0
 35 36  2  0  0  0
 36 37  1  0  0  0
 37 38  2  0  0  0
 38 39  1  0  0  0
 39 40  2  0  0  0
 40 41  1  0  0  0
 41 42  2  0  0  0
 42 43  1  0  0  0
  9  5  1  0  0  0
 31 26  1  0  0  0
 24 19  1  0  0  0
 43 35  1  0  0  0
 42 37  1  0  0  0
 49 52  1  0  0  0
 49 53  1  0  0  0
 51 54  1  0  0  0
 47 48  1  0  0  0
  1  4  1  0  0  0
 13 16  1  0  0  0
M  END
> <minimizedAffinity>
-8.98802

> <CNNscore>
0.3451074362

> <CNNaffinity>
7.1638159752

> <CNN_VS>
2.4722862244

> <CNNaffinity_variance>
0.1897938848

$$$$
[H]N=C(N([H])[H])N([H])C([H])([H])C([H])([H])C([H])([H])[C@@]([H])(C(=O)c1nc2c([H])c([H])c([H])c([H])c2s1)N([H])C(=O)[C@@]1([H])N(C(=O)[C@]([H])(N([H])C(=O)OC([H])([H])c2c([H])c([H])c([H])c([H])c2[H])C([H])([H])c2c([H])c([H])c([H])c([H])c2[H])C([H])([H])C([H])([H])C1([H])[H]


 54 58  0  0  0  0  0  0  0  0999 V2000
    2.9254    2.7649   15.1761 N   0  0  0  0  0  0  0  0  0  0  0  0
    2.4083    2.4384   13.9804 C   0  0  0  0  0  0  0  0  0  0  0  0
    1.5746    1.4721   13.8088 O   0  0  0  0  0  0  0  0  0  0  0  0
    2.0538    1.8863   15.7992 H   0  0  0  0  0  0  0  0  0  0  0  0
    2.7968    3.2096   12.8119 C   0  0  0  0  0  0  0  0  0  0  0  0
    3.8028    4.3254   13.2478 C   0  0  0  0  0  0  0  0  0  0  0  0
    4.0829    4.9016   11.8772 C   0  0  0  0  0  0  0  0  0  0  0  0
    2.9533    4.3780   10.9668 C   0  0  0  0  0  0  0  0  0  0  0  0
    1.9507    4.0612   12.0383 N   0  0  0  0  0  0  0  0  0  0  0  0
    0.6461    4.4842   12.0732 C   0  0  0  0  0  0  0  0  0  0  0  0
   -0.0914    3.8433   12.9833 O   0  0  0  0  0  0  0  0  0  0  0  0
   -0.2172    5.4735   11.3957 C   0  0  0  0  0  0  0  0  0  0  0  0
   -0.1477    5.6282   10.0671 N   0  0  0  0  0  0  0  0  0  0  0  0
   -0.4023    4.9780    8.8021 C   0  0  0  0  0  0  0  0  0  0  0  0
   -0.8509    3.8147    8.8793 O   0  0  0  0  0  0  0  0  0  0  0  0
    0.3418    6.6241    9.7657 H   0  0  0  0  0  0  0  0  0  0  0  0
   -0.2028    5.5459    7.5895 O   0  0  0  0  0  0  0  0  0  0  0  0
    0.9632    5.6779    6.8360 C   0  0  0  0  0  0  0  0  0  0  0  0
    1.5164    7.0142    7.2286 C   0  0  0  0  0  0  0  0  0  0  0  0
    0.9422    8.1317    6.7124 C   0  0  0  0  0  0  0  0  0  0  0  0
    1.4475    9.4142    6.9734 C   0  0  0  0  0  0  0  0  0  0  0  0
    2.5595    9.5474    7.7813 C   0  0  0  0  0  0  0  0  0  0  0  0
    3.1451    8.4193    8.3120 C   0  0  0  0  0  0  0  0  0  0  0  0
    2.6191    7.1461    8.0338 C   0  0  0  0  0  0  0  0  0  0  0  0
   -0.3572    6.7862   12.1752 C   0  0  0  0  0  0  0  0  0  0  0  0
    0.9639    7.3358   12.6222 C   0  0  0  0  0  0  0  0  0  0  0  0
    1.8356    7.8626   11.6882 C   0  0  0  0  0  0  0  0  0  0  0  0
    3.0575    8.4066   12.0017 C   0  0  0  0  0  0  0  0  0  0  0  0
    3.4635    8.4385   13.3264 C   0  0  0  0  0  0  0  0  0  0  0  0
    2.5759    7.9038   14.2662 C   0  0  0  0  0  0  0  0  0  0  0  0
    1.3560    7.3615   13.9391 C   0  0  0  0  0  0  0  0  0  0  0  0
    3.4268    3.0410   16.4855 C   0  0  0  0  0  0  0  0  0  0  0  0
    3.6718    1.9034   17.3933 C   0  0  0  0  0  0  0  0  0  0  0  0
    3.5534    0.7133   16.9646 O   0  0  0  0  0  0  0  0  0  0  0  0
    4.0667    2.0568   18.8106 C   0  0  0  0  0  0  0  0  0  0  0  0
    3.6541    1.4344   19.8958 N   0  0  0  0  0  0  0  0  0  0  0  0
    4.1180    1.7716   21.0726 C   0  0  0  0  0  0  0  0  0  0  0  0
    3.7305    1.1817   22.2929 C   0  0  0  0  0  0  0  0  0  0  0  0
    4.2670    1.6364   23.4568 C   0  0  0  0  0  0  0  0  0  0  0  0
    5.1862    2.6549   23.5377 C   0  0  0  0  0  0  0  0  0  0  0  0
    5.5730    3.2315   22.3582 C   0  0  0  0  0  0  0  0  0  0  0  0
    5.0383    2.7850   21.1326 C   0  0  0  0  0  0  0  0  0  0  0  0
    5.1827    3.1969   19.4745 S   0  0  0  0  0  0  0  0  0  0  0  0
    2.5382    4.0357   17.2061 C   0  0  0  0  0  0  0  0  0  0  0  0
    2.8323    5.4475   16.8216 C   0  0  0  0  0  0  0  0  0  0  0  0
    4.2236    5.8300   17.2177 C   0  0  0  0  0  0  0  0  0  0  0  0
    4.3826    7.1530   17.7279 N   0  0  0  0  0  0  0  0  0  0  0  0
    4.9133    7.9348   17.2548 H   0  0  0  0  0  0  0  0  0  0  0  0
    3.1111    8.6947   19.1887 N   0  0  0  0  0  0  0  0  0  0  0  0
    3.7820    7.4654   18.9795 C   0  0  0  0  0  0  0  0  0  0  0  0
    3.8417    6.6400   19.9801 N   0  0  0  0  0  0  0  0  0  0  0  0
    3.6010    9.5294   19.6094 H   0  0  0  0  0  0  0  0  0  0  0  0
    2.1025    8.8189   18.9185 H   0  0  0  0  0  0  0  0  0  0  0  0
    3.4199    6.8521   20.8931 H   0  0  0  0  0  0  0  0  0  0  0  0
 49 50  1  0  0  0
 50 51  2  0  0  0
 50 47  1  0  0  0
 47 46  1  0  0  0
 46 45  1  0  0  0
 45 44  1  0  0  0
 44 32  1  0  0  0
 32  1  1  0  0  0
  1  2  1  0  0  0
  2  3  2  0  0  0
  2  5  1  0  0  0
  5  6  1  0  0  0
  6  7  1  0  0  0
  7  8  1  0  0  0
  8  9  1  0  0  0
  9 10  1  0  0  0
 10 11  2  0  0  0
 10 12  1  0  0  0
 12 25  1  0  0  0
 25 26  1  0  0  0
 26 27  2  0  0  0
 27 28  1  0  0  0
 28 29  2  0  0  0
 29 30  1  0  0  0
 30 31  2  0  0  0
 12 13  1  0  0  0
 13 14  1  0  0  0
 14 15  2  0  0  0
 14 17  1  0  0  0
 17 18  1  0  0  0
 18 19  1  0  0  0
 19 20  2  0  0  0
 20 21  1  0  0  0
 21 22  2  0  0  0
 22 23  1  0  0  0
 23 24  2  0  0  0
 32 33  1  0  0  0
 33 34  2  0  0  0
 33 35  1  0  0  0
 35 36  2  0  0  0
 36 37  1  0  0  0
 37 38  2  0  0  0
 38 39  1  0  0  0
 39 40  2  0  0  0
 40 41  1  0  0  0
 41 42  2  0  0  0
 42 43  1  0  0  0
  9  5  1  0  0  0
 31 26  1  0  0  0
 24 19  1  0  0  0
 43 35  1  0  0  0
 42 37  1  0  0  0
 49 52  1  0  0  0
 49 53  1  0  0  0
 51 54  1  0  0  0
 47 48  1  0  0  0
  1  4  1  0  0  0
 13 16  1  0  0  0
M  END
> <minimizedAffinity>
-7.63256

> <CNNscore>
0.2964421809

> <CNNaffinity>
6.8185720444

> <CNN_VS>
2.0213124752

> <CNNaffinity_variance>
0.3653650284

$$$$
[H]N=C(N([H])[H])N([H])C([H])([H])C([H])([H])C([H])([H])[C@@]([H])(C(=O)c1nc2c([H])c([H])c([H])c([H])c2s1)N([H])C(=O)[C@@]1([H])N(C(=O)[C@]([H])(N([H])C(=O)OC([H])([H])c2c([H])c([H])c([H])c([H])c2[H])C([H])([H])c2c([H])c([H])c([H])c([H])c2[H])C([H])([H])C([H])([H])C1([H])[H]


 54 58  0  0  0  0  0  0  0  0999 V2000
    3.5022    4.2566   15.7950 N   0  0  0  0  0  0  0  0  0  0  0  0
    2.7049    3.3603   15.1913 C   0  0  0  0  0  0  0  0  0  0  0  0
    2.1800    2.3547   15.8009 O   0  0  0  0  0  0  0  0  0  0  0  0
    3.2058    3.6983   17.0279 H   0  0  0  0  0  0  0  0  0  0  0  0
    2.4063    3.5235   13.7786 C   0  0  0  0  0  0  0  0  0  0  0  0
    3.7139    3.9342   13.0246 C   0  0  0  0  0  0  0  0  0  0  0  0
    3.1466    3.9623   11.6222 C   0  0  0  0  0  0  0  0  0  0  0  0
    1.6143    4.0001   11.7938 C   0  0  0  0  0  0  0  0  0  0  0  0
    1.5739    4.5284   13.1984 N   0  0  0  0  0  0  0  0  0  0  0  0
    0.8528    5.6118   13.6327 C   0  0  0  0  0  0  0  0  0  0  0  0
    0.7820    5.6985   14.9633 O   0  0  0  0  0  0  0  0  0  0  0  0
    0.1157    6.7558   13.0575 C   0  0  0  0  0  0  0  0  0  0  0  0
   -1.1623    6.6123   12.6833 N   0  0  0  0  0  0  0  0  0  0  0  0
   -2.5302    6.8177   13.1011 C   0  0  0  0  0  0  0  0  0  0  0  0
   -2.6736    7.3013   14.2440 O   0  0  0  0  0  0  0  0  0  0  0  0
   -1.2662    6.0807   11.6689 H   0  0  0  0  0  0  0  0  0  0  0  0
   -3.6174    6.5394   12.3441 O   0  0  0  0  0  0  0  0  0  0  0  0
   -4.7782    5.8330   12.6577 C   0  0  0  0  0  0  0  0  0  0  0  0
   -5.3462    5.4328   11.3298 C   0  0  0  0  0  0  0  0  0  0  0  0
   -5.6489    6.4069   10.4330 C   0  0  0  0  0  0  0  0  0  0  0  0
   -6.2508    6.1187    9.1989 C   0  0  0  0  0  0  0  0  0  0  0  0
   -6.5423    4.8064    8.8829 C   0  0  0  0  0  0  0  0  0  0  0  0
   -6.2346    3.8123    9.7853 C   0  0  0  0  0  0  0  0  0  0  0  0
   -5.6325    4.1287   11.0152 C   0  0  0  0  0  0  0  0  0  0  0  0
    0.9623    7.5962   12.0945 C   0  0  0  0  0  0  0  0  0  0  0  0
    2.2829    7.9930   12.6828 C   0  0  0  0  0  0  0  0  0  0  0  0
    3.4520    7.5232   12.1153 C   0  0  0  0  0  0  0  0  0  0  0  0
    4.7078    7.8461   12.5692 C   0  0  0  0  0  0  0  0  0  0  0  0
    4.8357    8.6898   13.6611 C   0  0  0  0  0  0  0  0  0  0  0  0
    3.6480    9.1616   14.2302 C   0  0  0  0  0  0  0  0  0  0  0  0
    2.3973    8.8301   13.7667 C   0  0  0  0  0  0  0  0  0  0  0  0
    4.3411    5.1608   16.5167 C   0  0  0  0  0  0  0  0  0  0  0  0
    5.2808    4.6011   17.5076 C   0  0  0  0  0  0  0  0  0  0  0  0
    6.5294    4.7986   17.3793 O   0  0  0  0  0  0  0  0  0  0  0  0
    4.8565    3.8084   18.6821 C   0  0  0  0  0  0  0  0  0  0  0  0
    4.7987    4.1196   19.9608 N   0  0  0  0  0  0  0  0  0  0  0  0
    4.4287    3.2288   20.8459 C   0  0  0  0  0  0  0  0  0  0  0  0
    4.3499    3.4548   22.2350 C   0  0  0  0  0  0  0  0  0  0  0  0
    3.9745    2.4398   23.0585 C   0  0  0  0  0  0  0  0  0  0  0  0
    3.6547    1.1742   22.6284 C   0  0  0  0  0  0  0  0  0  0  0  0
    3.7232    0.9453   21.2807 C   0  0  0  0  0  0  0  0  0  0  0  0
    4.1077    1.9744   20.3973 C   0  0  0  0  0  0  0  0  0  0  0  0
    4.3602    2.1534   18.7109 S   0  0  0  0  0  0  0  0  0  0  0  0
    3.5170    6.2328   17.2021 C   0  0  0  0  0  0  0  0  0  0  0  0
    4.3274    7.4332   17.5625 C   0  0  0  0  0  0  0  0  0  0  0  0
    3.8956    7.9926   18.8814 C   0  0  0  0  0  0  0  0  0  0  0  0
    3.9903    7.1041   19.9938 N   0  0  0  0  0  0  0  0  0  0  0  0
    3.4626    6.1949   20.1013 H   0  0  0  0  0  0  0  0  0  0  0  0
    4.6186    8.5880   21.8729 N   0  0  0  0  0  0  0  0  0  0  0  0
    4.8653    7.4554   21.0596 C   0  0  0  0  0  0  0  0  0  0  0  0
    5.9308    6.7584   21.3140 N   0  0  0  0  0  0  0  0  0  0  0  0
    5.0570    9.5254   21.6665 H   0  0  0  0  0  0  0  0  0  0  0  0
    3.9776    8.5333   22.7048 H   0  0  0  0  0  0  0  0  0  0  0  0
    6.5776    7.0016   22.0749 H   0  0  0  0  0  0  0  0  0  0  0  0
 49 50  1  0  0  0
 50 51  2  0  0  0
 50 47  1  0  0  0
 47 46  1  0  0  0
 46 45  1  0  0  0
 45 44  1  0  0  0
 44 32  1  0  0  0
 32  1  1  0  0  0
  1  2  1  0  0  0
  2  3  2  0  0  0
  2  5  1  0  0  0
  5  6  1  0  0  0
  6  7  1  0  0  0
  7  8  1  0  0  0
  8  9  1  0  0  0
  9 10  1  0  0  0
 10 11  2  0  0  0
 10 12  1  0  0  0
 12 25  1  0  0  0
 25 26  1  0  0  0
 26 27  2  0  0  0
 27 28  1  0  0  0
 28 29  2  0  0  0
 29 30  1  0  0  0
 30 31  2  0  0  0
 12 13  1  0  0  0
 13 14  1  0  0  0
 14 15  2  0  0  0
 14 17  1  0  0  0
 17 18  1  0  0  0
 18 19  1  0  0  0
 19 20  2  0  0  0
 20 21  1  0  0  0
 21 22  2  0  0  0
 22 23  1  0  0  0
 23 24  2  0  0  0
 32 33  1  0  0  0
 33 34  2  0  0  0
 33 35  1  0  0  0
 35 36  2  0  0  0
 36 37  1  0  0  0
 37 38  2  0  0  0
 38 39  1  0  0  0
 39 40  2  0  0  0
 40 41  1  0  0  0
 41 42  2  0  0  0
 42 43  1  0  0  0
  9  5  1  0  0  0
 31 26  1  0  0  0
 24 19  1  0  0  0
 43 35  1  0  0  0
 42 37  1  0  0  0
 49 52  1  0  0  0
 49 53  1  0  0  0
 51 54  1  0  0  0
 47 48  1  0  0  0
  1  4  1  0  0  0
 13 16  1  0  0  0
M  END
> <minimizedAffinity>
-8.97038

> <CNNscore>
0.2654609084

> <CNNaffinity>
7.0741090775

> <CNN_VS>
1.8778994083

> <CNNaffinity_variance>
0.1854702383

$$$$
[H]N=C(N([H])[H])N([H])C([H])([H])C([H])([H])C([H])([H])[C@@]([H])(C(=O)c1nc2c([H])c([H])c([H])c([H])c2s1)N([H])C(=O)[C@@]1([H])N(C(=O)[C@]([H])(N([H])C(=O)OC([H])([H])c2c([H])c([H])c([H])c([H])c2[H])C([H])([H])c2c([H])c([H])c([H])c([H])c2[H])C([H])([H])C([H])([H])C1([H])[H]


 54 58  0  0  0  0  0  0  0  0999 V2000
    3.4898    9.9754   16.5669 N   0  0  0  0  0  0  0  0  0  0  0  0
    3.1306   10.9858   17.3753 C   0  0  0  0  0  0  0  0  0  0  0  0
    1.9703   11.5434   17.3401 O   0  0  0  0  0  0  0  0  0  0  0  0
    2.1843    9.8645   16.1161 H   0  0  0  0  0  0  0  0  0  0  0  0
    4.0885   11.4829   18.3482 C   0  0  0  0  0  0  0  0  0  0  0  0
    5.4650   11.7086   17.6400 C   0  0  0  0  0  0  0  0  0  0  0  0
    6.2192   12.2730   18.8240 C   0  0  0  0  0  0  0  0  0  0  0  0
    5.3792   11.9082   20.0650 C   0  0  0  0  0  0  0  0  0  0  0  0
    4.6092   10.7660   19.4682 N   0  0  0  0  0  0  0  0  0  0  0  0
    4.4902    9.5073   20.0009 C   0  0  0  0  0  0  0  0  0  0  0  0
    3.5389    8.7754   19.4158 O   0  0  0  0  0  0  0  0  0  0  0  0
    5.1224    8.6839   21.0522 C   0  0  0  0  0  0  0  0  0  0  0  0
    4.5932    7.5001   21.3880 N   0  0  0  0  0  0  0  0  0  0  0  0
    4.9055    6.1117   21.6383 C   0  0  0  0  0  0  0  0  0  0  0  0
    6.1075    5.8006   21.5011 O   0  0  0  0  0  0  0  0  0  0  0  0
    3.4471    7.5392   21.4724 H   0  0  0  0  0  0  0  0  0  0  0  0
    4.0035    5.1742   22.0128 O   0  0  0  0  0  0  0  0  0  0  0  0
    4.0609    4.2230   23.0309 C   0  0  0  0  0  0  0  0  0  0  0  0
    4.6384    3.0048   22.3763 C   0  0  0  0  0  0  0  0  0  0  0  0
    3.7928    2.1283   21.7750 C   0  0  0  0  0  0  0  0  0  0  0  0
    4.2480    0.9299   21.2049 C   0  0  0  0  0  0  0  0  0  0  0  0
    5.5955    0.6318   21.2524 C   0  0  0  0  0  0  0  0  0  0  0  0
    6.4601    1.5174   21.8567 C   0  0  0  0  0  0  0  0  0  0  0  0
    5.9775    2.7108   22.4209 C   0  0  0  0  0  0  0  0  0  0  0  0
    5.6257    9.5082   22.2429 C   0  0  0  0  0  0  0  0  0  0  0  0
    6.9979    9.1005   22.6882 C   0  0  0  0  0  0  0  0  0  0  0  0
    8.1018    9.5233   21.9727 C   0  0  0  0  0  0  0  0  0  0  0  0
    9.3977    9.2194   22.3125 C   0  0  0  0  0  0  0  0  0  0  0  0
    9.6378    8.4421   23.4345 C   0  0  0  0  0  0  0  0  0  0  0  0
    8.5156    8.0180   24.1541 C   0  0  0  0  0  0  0  0  0  0  0  0
    7.2236    8.3286   23.8027 C   0  0  0  0  0  0  0  0  0  0  0  0
    3.7870    8.9058   15.6669 C   0  0  0  0  0  0  0  0  0  0  0  0
    4.9722    8.0707   15.9426 C   0  0  0  0  0  0  0  0  0  0  0  0
    6.1370    8.5631   15.8204 O   0  0  0  0  0  0  0  0  0  0  0  0
    4.8962    6.6577   16.3736 C   0  0  0  0  0  0  0  0  0  0  0  0
    4.2873    5.6207   15.8358 N   0  0  0  0  0  0  0  0  0  0  0  0
    4.3176    4.4524   16.4255 C   0  0  0  0  0  0  0  0  0  0  0  0
    3.6867    3.2877   15.9433 C   0  0  0  0  0  0  0  0  0  0  0  0
    3.7699    2.1352   16.6603 C   0  0  0  0  0  0  0  0  0  0  0  0
    4.4428    2.0140   17.8526 C   0  0  0  0  0  0  0  0  0  0  0  0
    5.0631    3.1379   18.3275 C   0  0  0  0  0  0  0  0  0  0  0  0
    4.9986    4.3497   17.6101 C   0  0  0  0  0  0  0  0  0  0  0  0
    5.5606    5.9576   17.8070 S   0  0  0  0  0  0  0  0  0  0  0  0
    3.8883    9.4112   14.2413 C   0  0  0  0  0  0  0  0  0  0  0  0
    3.2771    8.4705   13.2569 C   0  0  0  0  0  0  0  0  0  0  0  0
    1.7975    8.6754   13.1701 C   0  0  0  0  0  0  0  0  0  0  0  0
    0.9978    7.7443   13.8976 N   0  0  0  0  0  0  0  0  0  0  0  0
    1.0272    7.5936   14.9431 H   0  0  0  0  0  0  0  0  0  0  0  0
    0.0060    6.9951   11.7569 N   0  0  0  0  0  0  0  0  0  0  0  0
    0.0755    6.9411   13.1702 C   0  0  0  0  0  0  0  0  0  0  0  0
   -0.7469    6.1412   13.7782 N   0  0  0  0  0  0  0  0  0  0  0  0
   -0.6816    7.6219   11.2589 H   0  0  0  0  0  0  0  0  0  0  0  0
    0.6489    6.4191   11.1564 H   0  0  0  0  0  0  0  0  0  0  0  0
   -1.4244    5.5593   13.2694 H   0  0  0  0  0  0  0  0  0  0  0  0
 49 50  1  0  0  0
 50 51  2  0  0  0
 50 47  1  0  0  0
 47 46  1  0  0  0
 46 45  1  0  0  0
 45 44  1  0  0  0
 44 32  1  0  0  0
 32  1  1  0  0  0
  1  2  1  0  0  0
  2  3  2  0  0  0
  2  5  1  0  0  0
  5  6  1  0  0  0
  6  7  1  0  0  0
  7  8  1  0  0  0
  8  9  1  0  0  0
  9 10  1  0  0  0
 10 11  2  0  0  0
 10 12  1  0  0  0
 12 25  1  0  0  0
 25 26  1  0  0  0
 26 27  2  0  0  0
 27 28  1  0  0  0
 28 29  2  0  0  0
 29 30  1  0  0  0
 30 31  2  0  0  0
 12 13  1  0  0  0
 13 14  1  0  0  0
 14 15  2  0  0  0
 14 17  1  0  0  0
 17 18  1  0  0  0
 18 19  1  0  0  0
 19 20  2  0  0  0
 20 21  1  0  0  0
 21 22  2  0  0  0
 22 23  1  0  0  0
 23 24  2  0  0  0
 32 33  1  0  0  0
 33 34  2  0  0  0
 33 35  1  0  0  0
 35 36  2  0  0  0
 36 37  1  0  0  0
 37 38  2  0  0  0
 38 39  1  0  0  0
 39 40  2  0  0  0
 40 41  1  0  0  0
 41 42  2  0  0  0
 42 43  1  0  0  0
  9  5  1  0  0  0
 31 26  1  0  0  0
 24 19  1  0  0  0
 43 35  1  0  0  0
 42 37  1  0  0  0
 49 52  1  0  0  0
 49 53  1  0  0  0
 51 54  1  0  0  0
 47 48  1  0  0  0
  1  4  1  0  0  0
 13 16  1  0  0  0
M  END
> <minimizedAffinity>
-9.22941

> <CNNscore>
0.2279092669

> <CNNaffinity>
6.8792815208

> <CNN_VS>
1.5678520203

> <CNNaffinity_variance>
0.4464160502

$$$$
[H]N=C(N([H])[H])N([H])C([H])([H])C([H])([H])C([H])([H])[C@@]([H])(C(=O)c1nc2c([H])c([H])c([H])c([H])c2s1)N([H])C(=O)[C@@]1([H])N(C(=O)[C@]([H])(N([H])C(=O)OC([H])([H])c2c([H])c([H])c([H])c([H])c2[H])C([H])([H])c2c([H])c([H])c([H])c([H])c2[H])C([H])([H])C([H])([H])C1([H])[H]


 54 58  0  0  0  0  0  0  0  0999 V2000
    3.5315    7.6675   14.9666 N   0  0  0  0  0  0  0  0  0  0  0  0
    4.4897    8.2415   15.7122 C   0  0  0  0  0  0  0  0  0  0  0  0
    5.7104    8.3687   15.3221 O   0  0  0  0  0  0  0  0  0  0  0  0
    4.3922    7.6272   13.8816 H   0  0  0  0  0  0  0  0  0  0  0  0
    4.1450    8.7546   17.0272 C   0  0  0  0  0  0  0  0  0  0  0  0
    4.7717   10.1774   17.2005 C   0  0  0  0  0  0  0  0  0  0  0  0
    4.2134   10.4861   18.5724 C   0  0  0  0  0  0  0  0  0  0  0  0
    3.7493    9.1323   19.1473 C   0  0  0  0  0  0  0  0  0  0  0  0
    4.5897    8.2384   18.2822 N   0  0  0  0  0  0  0  0  0  0  0  0
    5.4205    7.2388   18.7217 C   0  0  0  0  0  0  0  0  0  0  0  0
    5.8350    6.4301   17.7434 O   0  0  0  0  0  0  0  0  0  0  0  0
    6.0249    6.7760   19.9879 C   0  0  0  0  0  0  0  0  0  0  0  0
    5.2603    6.2079   20.9296 N   0  0  0  0  0  0  0  0  0  0  0  0
    4.0337    5.4772   21.1520 C   0  0  0  0  0  0  0  0  0  0  0  0
    3.3517    5.2530   20.1297 O   0  0  0  0  0  0  0  0  0  0  0  0
    5.6663    6.3844   21.9908 H   0  0  0  0  0  0  0  0  0  0  0  0
    3.6114    5.0289   22.3575 O   0  0  0  0  0  0  0  0  0  0  0  0
    4.2889    4.3064   23.3392 C   0  0  0  0  0  0  0  0  0  0  0  0
    4.7310    3.0529   22.6469 C   0  0  0  0  0  0  0  0  0  0  0  0
    6.0488    2.9032   22.3541 C   0  0  0  0  0  0  0  0  0  0  0  0
    6.5299    1.7934   21.6435 C   0  0  0  0  0  0  0  0  0  0  0  0
    5.6398    0.8214   21.2310 C   0  0  0  0  0  0  0  0  0  0  0  0
    4.3023    0.9639   21.5276 C   0  0  0  0  0  0  0  0  0  0  0  0
    3.8468    2.0862   22.2403 C   0  0  0  0  0  0  0  0  0  0  0  0
    7.0875    7.7359   20.5355 C   0  0  0  0  0  0  0  0  0  0  0  0
    8.3397    7.0294   20.9599 C   0  0  0  0  0  0  0  0  0  0  0  0
    8.3559    6.3224   22.1471 C   0  0  0  0  0  0  0  0  0  0  0  0
    9.4467    5.6274   22.6103 C   0  0  0  0  0  0  0  0  0  0  0  0
   10.6125    5.6215   21.8611 C   0  0  0  0  0  0  0  0  0  0  0  0
   10.5886    6.3390   20.6603 C   0  0  0  0  0  0  0  0  0  0  0  0
    9.4904    7.0312   20.2086 C   0  0  0  0  0  0  0  0  0  0  0  0
    2.5770    7.0410   14.1072 C   0  0  0  0  0  0  0  0  0  0  0  0
    1.7133    5.9871   14.6743 C   0  0  0  0  0  0  0  0  0  0  0  0
    0.4512    6.0687   14.5535 O   0  0  0  0  0  0  0  0  0  0  0  0
    2.2313    4.8000   15.3886 C   0  0  0  0  0  0  0  0  0  0  0  0
    2.1696    3.5176   15.0937 N   0  0  0  0  0  0  0  0  0  0  0  0
    2.6666    2.6229   15.9099 C   0  0  0  0  0  0  0  0  0  0  0  0
    2.6371    1.2299   15.6964 C   0  0  0  0  0  0  0  0  0  0  0  0
    3.1664    0.3974   16.6323 C   0  0  0  0  0  0  0  0  0  0  0  0
    3.7467    0.8216   17.8037 C   0  0  0  0  0  0  0  0  0  0  0  0
    3.7850    2.1727   18.0189 C   0  0  0  0  0  0  0  0  0  0  0  0
    3.2467    3.0654   17.0698 C   0  0  0  0  0  0  0  0  0  0  0  0
    3.0401    4.7604   16.9153 S   0  0  0  0  0  0  0  0  0  0  0  0
    3.2492    6.4832   12.8683 C   0  0  0  0  0  0  0  0  0  0  0  0
    3.5608    7.5406   11.8622 C   0  0  0  0  0  0  0  0  0  0  0  0
    4.9197    7.3320   11.2717 C   0  0  0  0  0  0  0  0  0  0  0  0
    6.0137    7.4244   12.1830 N   0  0  0  0  0  0  0  0  0  0  0  0
    6.2908    6.6875   12.8879 H   0  0  0  0  0  0  0  0  0  0  0  0
    8.1203    8.5932   11.6138 N   0  0  0  0  0  0  0  0  0  0  0  0
    6.8117    8.6022   12.1548 C   0  0  0  0  0  0  0  0  0  0  0  0
    6.3738    9.7245   12.6393 N   0  0  0  0  0  0  0  0  0  0  0  0
    8.9709    8.4499   12.2217 H   0  0  0  0  0  0  0  0  0  0  0  0
    8.2854    8.7168   10.5826 H   0  0  0  0  0  0  0  0  0  0  0  0
    6.9390   10.5830   12.6339 H   0  0  0  0  0  0  0  0  0  0  0  0
 49 50  1  0  0  0
 50 51  2  0  0  0
 50 47  1  0  0  0
 47 46  1  0  0  0
 46 45  1  0  0  0
 45 44  1  0  0  0
 44 32  1  0  0  0
 32  1  1  0  0  0
  1  2  1  0  0  0
  2  3  2  0  0  0
  2  5  1  0  0  0
  5  6  1  0  0  0
  6  7  1  0  0  0
  7  8  1  0  0  0
  8  9  1  0  0  0
  9 10  1  0  0  0
 10 11  2  0  0  0
 10 12  1  0  0  0
 12 25  1  0  0  0
 25 26  1  0  0  0
 26 27  2  0  0  0
 27 28  1  0  0  0
 28 29  2  0  0  0
 29 30  1  0  0  0
 30 31  2  0  0  0
 12 13  1  0  0  0
 13 14  1  0  0  0
 14 15  2  0  0  0
 14 17  1  0  0  0
 17 18  1  0  0  0
 18 19  1  0  0  0
 19 20  2  0  0  0
 20 21  1  0  0  0
 21 22  2  0  0  0
 22 23  1  0  0  0
 23 24  2  0  0  0
 32 33  1  0  0  0
 33 34  2  0  0  0
 33 35  1  0  0  0
 35 36  2  0  0  0
 36 37  1  0  0  0
 37 38  2  0  0  0
 38 39  1  0  0  0
 39 40  2  0  0  0
 40 41  1  0  0  0
 41 42  2  0  0  0
 42 43  1  0  0  0
  9  5  1  0  0  0
 31 26  1  0  0  0
 24 19  1  0  0  0
 43 35  1  0  0  0
 42 37  1  0  0  0
 49 52  1  0  0  0
 49 53  1  0  0  0
 51 54  1  0  0  0
 47 48  1  0  0  0
  1  4  1  0  0  0
 13 16  1  0  0  0
M  END
> <minimizedAffinity>
-9.65021

> <CNNscore>
0.2174713165

> <CNNaffinity>
7.3808655739

> <CNN_VS>
1.6051265001

> <CNNaffinity_variance>
0.3834793568

$$$$
[H]N=C(N([H])[H])N([H])C([H])([H])C([H])([H])C([H])([H])[C@@]([H])(C(=O)c1nc2c([H])c([H])c([H])c([H])c2s1)N([H])C(=O)[C@@]1([H])N(C(=O)[C@]([H])(N([H])C(=O)OC([H])([H])c2c([H])c([H])c([H])c([H])c2[H])C([H])([H])c2c([H])c([H])c([H])c([H])c2[H])C([H])([H])C([H])([H])C1([H])[H]


 54 58  0  0  0  0  0  0  0  0999 V2000
    3.4347    9.8342   16.6566 N   0  0  0  0  0  0  0  0  0  0  0  0
    3.1428   10.8886   17.4355 C   0  0  0  0  0  0  0  0  0  0  0  0
    2.0038   11.4892   17.4176 O   0  0  0  0  0  0  0  0  0  0  0  0
    2.1107    9.7569   16.2556 H   0  0  0  0  0  0  0  0  0  0  0  0
    4.1529   11.3853   18.3544 C   0  0  0  0  0  0  0  0  0  0  0  0
    5.5131   11.5202   17.5936 C   0  0  0  0  0  0  0  0  0  0  0  0
    6.3296   12.1021   18.7266 C   0  0  0  0  0  0  0  0  0  0  0  0
    5.5172   11.8282   20.0087 C   0  0  0  0  0  0  0  0  0  0  0  0
    4.6804   10.6957   19.4883 N   0  0  0  0  0  0  0  0  0  0  0  0
    4.5266    9.4676   20.0803 C   0  0  0  0  0  0  0  0  0  0  0  0
    3.5263    8.7530   19.5590 O   0  0  0  0  0  0  0  0  0  0  0  0
    5.1586    8.6640   21.1469 C   0  0  0  0  0  0  0  0  0  0  0  0
    4.6519    7.4691   21.4779 N   0  0  0  0  0  0  0  0  0  0  0  0
    4.9884    6.0831   21.7100 C   0  0  0  0  0  0  0  0  0  0  0  0
    6.1930    5.7917   21.5535 O   0  0  0  0  0  0  0  0  0  0  0  0
    3.5066    7.4899   21.5782 H   0  0  0  0  0  0  0  0  0  0  0  0
    4.1059    5.1285   22.0873 O   0  0  0  0  0  0  0  0  0  0  0  0
    4.1379    4.2462   23.1668 C   0  0  0  0  0  0  0  0  0  0  0  0
    4.5977    2.9470   22.5782 C   0  0  0  0  0  0  0  0  0  0  0  0
    5.9310    2.7409   22.4215 C   0  0  0  0  0  0  0  0  0  0  0  0
    6.4366    1.5829   21.8118 C   0  0  0  0  0  0  0  0  0  0  0  0
    5.5549    0.6211   21.3597 C   0  0  0  0  0  0  0  0  0  0  0  0
    4.2013    0.8207   21.5185 C   0  0  0  0  0  0  0  0  0  0  0  0
    3.7214    1.9905   22.1321 C   0  0  0  0  0  0  0  0  0  0  0  0
    5.6194    9.5049   22.3431 C   0  0  0  0  0  0  0  0  0  0  0  0
    6.9220    9.0312   22.9141 C   0  0  0  0  0  0  0  0  0  0  0  0
    7.0521    8.8753   24.2810 C   0  0  0  0  0  0  0  0  0  0  0  0
    8.1965    8.4285   24.8958 C   0  0  0  0  0  0  0  0  0  0  0  0
    9.3004    8.1107   24.1206 C   0  0  0  0  0  0  0  0  0  0  0  0
    9.1613    8.2707   22.7378 C   0  0  0  0  0  0  0  0  0  0  0  0
    8.0105    8.7195   22.1351 C   0  0  0  0  0  0  0  0  0  0  0  0
    3.6592    8.7197   15.7908 C   0  0  0  0  0  0  0  0  0  0  0  0
    4.8509    7.8815   16.0266 C   0  0  0  0  0  0  0  0  0  0  0  0
    6.0116    8.3625   15.8380 O   0  0  0  0  0  0  0  0  0  0  0  0
    4.7866    6.4784   16.4905 C   0  0  0  0  0  0  0  0  0  0  0  0
    4.2763    5.4031   15.9260 N   0  0  0  0  0  0  0  0  0  0  0  0
    4.2922    4.2530   16.5509 C   0  0  0  0  0  0  0  0  0  0  0  0
    3.7594    3.0506   16.0434 C   0  0  0  0  0  0  0  0  0  0  0  0
    3.8141    1.9218   16.7998 C   0  0  0  0  0  0  0  0  0  0  0  0
    4.3667    1.8603   18.0566 C   0  0  0  0  0  0  0  0  0  0  0  0
    4.8912    3.0212   18.5571 C   0  0  0  0  0  0  0  0  0  0  0  0
    4.8528    4.2100   17.8005 C   0  0  0  0  0  0  0  0  0  0  0  0
    5.3288    5.8446   18.0039 S   0  0  0  0  0  0  0  0  0  0  0  0
    3.6703    9.1565   14.3392 C   0  0  0  0  0  0  0  0  0  0  0  0
    3.2665    8.0607   13.4098 C   0  0  0  0  0  0  0  0  0  0  0  0
    4.2678    7.8971   12.3101 C   0  0  0  0  0  0  0  0  0  0  0  0
    5.6359    7.8715   12.7146 N   0  0  0  0  0  0  0  0  0  0  0  0
    5.9822    7.7381   13.7040 H   0  0  0  0  0  0  0  0  0  0  0  0
    7.9827    7.6781   11.9513 N   0  0  0  0  0  0  0  0  0  0  0  0
    6.6339    8.0376   11.7139 C   0  0  0  0  0  0  0  0  0  0  0  0
    6.3457    8.5403   10.5519 N   0  0  0  0  0  0  0  0  0  0  0  0
    8.6941    8.3826   12.2851 H   0  0  0  0  0  0  0  0  0  0  0  0
    8.3166    6.6905   11.8141 H   0  0  0  0  0  0  0  0  0  0  0  0
    7.0548    8.6741    9.8201 H   0  0  0  0  0  0  0  0  0  0  0  0
 49 50  1  0  0  0
 50 51  2  0  0  0
 50 47  1  0  0  0
 47 46  1  0  0  0
 46 45  1  0  0  0
 45 44  1  0  0  0
 44 32  1  0  0  0
 32  1  1  0  0  0
  1  2  1  0  0  0
  2  3  2  0  0  0
  2  5  1  0  0  0
  5  6  1  0  0  0
  6  7  1  0  0  0
  7  8  1  0  0  0
  8  9  1  0  0  0
  9 10  1  0  0  0
 10 11  2  0  0  0
 10 12  1  0  0  0
 12 25  1  0  0  0
 25 26  1  0  0  0
 26 27  2  0  0  0
 27 28  1  0  0  0
 28 29  2  0  0  0
 29 30  1  0  0  0
 30 31  2  0  0  0
 12 13  1  0  0  0
 13 14  1  0  0  0
 14 15  2  0  0  0
 14 17  1  0  0  0
 17 18  1  0  0  0
 18 19  1  0  0  0
 19 20  2  0  0  0
 20 21  1  0  0  0
 21 22  2  0  0  0
 22 23  1  0  0  0
 23 24  2  0  0  0
 32 33  1  0  0  0
 33 34  2  0  0  0
 33 35  1  0  0  0
 35 36  2  0  0  0
 36 37  1  0  0  0
 37 38  2  0  0  0
 38 39  1  0  0  0
 39 40  2  0  0  0
 40 41  1  0  0  0
 41 42  2  0  0  0
 42 43  1  0  0  0
  9  5  1  0  0  0
 31 26  1  0  0  0
 24 19  1  0  0  0
 43 35  1  0  0  0
 42 37  1  0  0  0
 49 52  1  0  0  0
 49 53  1  0  0  0
 51 54  1  0  0  0
 47 48  1  0  0  0
  1  4  1  0  0  0
 13 16  1  0  0  0
M  END
> <minimizedAffinity>
-9.55296

> <CNNscore>
0.2066786736

> <CNNaffinity>
6.8935203552

> <CNN_VS>
1.4247436523

> <CNNaffinity_variance>
0.5865508318

$$$$
[H]N=C(N([H])[H])N([H])C([H])([H])C([H])([H])C([H])([H])[C@@]([H])(C(=O)c1nc2c([H])c([H])c([H])c([H])c2s1)N([H])C(=O)[C@@]1([H])N(C(=O)[C@]([H])(N([H])C(=O)OC([H])([H])c2c([H])c([H])c([H])c([H])c2[H])C([H])([H])c2c([H])c([H])c([H])c([H])c2[H])C([H])([H])C([H])([H])C1([H])[H]


 54 58  0  0  0  0  0  0  0  0999 V2000
    5.9174    9.3520   18.5458 N   0  0  0  0  0  0  0  0  0  0  0  0
    6.2863    9.8979   17.3755 C   0  0  0  0  0  0  0  0  0  0  0  0
    7.4957   10.2503   17.1079 O   0  0  0  0  0  0  0  0  0  0  0  0
    7.2469    9.2409   18.9195 H   0  0  0  0  0  0  0  0  0  0  0  0
    5.2807   10.1030   16.3470 C   0  0  0  0  0  0  0  0  0  0  0  0
    4.0426   10.8202   16.9793 C   0  0  0  0  0  0  0  0  0  0  0  0
    3.2191   10.9663   15.7185 C   0  0  0  0  0  0  0  0  0  0  0  0
    3.8448    9.9941   14.6976 C   0  0  0  0  0  0  0  0  0  0  0  0
    4.5393    9.0866   15.6712 N   0  0  0  0  0  0  0  0  0  0  0  0
    4.4360    7.7193   15.7147 C   0  0  0  0  0  0  0  0  0  0  0  0
    5.3574    7.1458   16.4925 O   0  0  0  0  0  0  0  0  0  0  0  0
    3.5805    6.6536   15.1532 C   0  0  0  0  0  0  0  0  0  0  0  0
    3.6698    5.4024   15.6230 N   0  0  0  0  0  0  0  0  0  0  0  0
    3.0039    4.4120   16.4376 C   0  0  0  0  0  0  0  0  0  0  0  0
    1.9273    4.7798   16.9536 O   0  0  0  0  0  0  0  0  0  0  0  0
    4.6622    4.8959   15.3386 H   0  0  0  0  0  0  0  0  0  0  0  0
    3.4594    3.1548   16.6487 O   0  0  0  0  0  0  0  0  0  0  0  0
    4.5790    2.7068   17.3491 C   0  0  0  0  0  0  0  0  0  0  0  0
    4.0432    1.6772   18.2972 C   0  0  0  0  0  0  0  0  0  0  0  0
    3.1735    0.7480   17.8230 C   0  0  0  0  0  0  0  0  0  0  0  0
    2.5724   -0.2025   18.6617 C   0  0  0  0  0  0  0  0  0  0  0  0
    2.8746   -0.1973   20.0092 C   0  0  0  0  0  0  0  0  0  0  0  0
    3.7589    0.7392   20.4972 C   0  0  0  0  0  0  0  0  0  0  0  0
    4.3464    1.6808   19.6350 C   0  0  0  0  0  0  0  0  0  0  0  0
    3.4255    6.7439   13.6306 C   0  0  0  0  0  0  0  0  0  0  0  0
    1.9907    6.7727   13.1972 C   0  0  0  0  0  0  0  0  0  0  0  0
    0.9892    6.7432   14.1489 C   0  0  0  0  0  0  0  0  0  0  0  0
   -0.3515    6.7859   13.8521 C   0  0  0  0  0  0  0  0  0  0  0  0
   -0.7483    6.8613   12.5264 C   0  0  0  0  0  0  0  0  0  0  0  0
    0.2710    6.8911   11.5686 C   0  0  0  0  0  0  0  0  0  0  0  0
    1.6092    6.8469   11.8790 C   0  0  0  0  0  0  0  0  0  0  0  0
    5.6139    8.7796   19.8195 C   0  0  0  0  0  0  0  0  0  0  0  0
    4.6452    7.6674   19.8721 C   0  0  0  0  0  0  0  0  0  0  0  0
    3.5621    7.7384   19.2118 O   0  0  0  0  0  0  0  0  0  0  0  0
    4.8579    6.4324   20.6579 C   0  0  0  0  0  0  0  0  0  0  0  0
    4.1250    5.8661   21.5947 N   0  0  0  0  0  0  0  0  0  0  0  0
    4.5388    4.7798   22.1967 C   0  0  0  0  0  0  0  0  0  0  0  0
    3.8403    4.1076   23.2201 C   0  0  0  0  0  0  0  0  0  0  0  0
    4.3864    2.9987   23.7870 C   0  0  0  0  0  0  0  0  0  0  0  0
    5.6012    2.4660   23.4276 C   0  0  0  0  0  0  0  0  0  0  0  0
    6.2857    3.1082   22.4315 C   0  0  0  0  0  0  0  0  0  0  0  0
    5.7495    4.2600   21.8205 C   0  0  0  0  0  0  0  0  0  0  0  0
    6.2255    5.3771   20.6101 S   0  0  0  0  0  0  0  0  0  0  0  0
    5.1603    9.8458   20.7971 C   0  0  0  0  0  0  0  0  0  0  0  0
    6.2797   10.7280   21.2403 C   0  0  0  0  0  0  0  0  0  0  0  0
    7.2310    9.9814   22.1213 C   0  0  0  0  0  0  0  0  0  0  0  0
    6.9962   10.0931   23.5243 N   0  0  0  0  0  0  0  0  0  0  0  0
    6.9502   10.9968   24.0701 H   0  0  0  0  0  0  0  0  0  0  0  0
    6.8312    7.6261   23.6431 N   0  0  0  0  0  0  0  0  0  0  0  0
    6.8048    8.8959   24.2692 C   0  0  0  0  0  0  0  0  0  0  0  0
    6.5831    8.9264   25.5482 N   0  0  0  0  0  0  0  0  0  0  0  0
    5.9480    7.1511   23.3146 H   0  0  0  0  0  0  0  0  0  0  0  0
    7.7372    7.1198   23.4736 H   0  0  0  0  0  0  0  0  0  0  0  0
    6.4356    8.0723   26.1007 H   0  0  0  0  0  0  0  0  0  0  0  0
 49 50  1  0  0  0
 50 51  2  0  0  0
 50 47  1  0  0  0
 47 46  1  0  0  0
 46 45  1  0  0  0
 45 44  1  0  0  0
 44 32  1  0  0  0
 32  1  1  0  0  0
  1  2  1  0  0  0
  2  3  2  0  0  0
  2  5  1  0  0  0
  5  6  1  0  0  0
  6  7  1  0  0  0
  7  8  1  0  0  0
  8  9  1  0  0  0
  9 10  1  0  0  0
 10 11  2  0  0  0
 10 12  1  0  0  0
 12 25  1  0  0  0
 25 26  1  0  0  0
 26 27  2  0  0  0
 27 28  1  0  0  0
 28 29  2  0  0  0
 29 30  1  0  0  0
 30 31  2  0  0  0
 12 13  1  0  0  0
 13 14  1  0  0  0
 14 15  2  0  0  0
 14 17  1  0  0  0
 17 18  1  0  0  0
 18 19  1  0  0  0
 19 20  2  0  0  0
 20 21  1  0  0  0
 21 22  2  0  0  0
 22 23  1  0  0  0
 23 24  2  0  0  0
 32 33  1  0  0  0
 33 34  2  0  0  0
 33 35  1  0  0  0
 35 36  2  0  0  0
 36 37  1  0  0  0
 37 38  2  0  0  0
 38 39  1  0  0  0
 39 40  2  0  0  0
 40 41  1  0  0  0
 41 42  2  0  0  0
 42 43  1  0  0  0
  9  5  1  0  0  0
 31 26  1  0  0  0
 24 19  1  0  0  0
 43 35  1  0  0  0
 42 37  1  0  0  0
 49 52  1  0  0  0
 49 53  1  0  0  0
 51 54  1  0  0  0
 47 48  1  0  0  0
  1  4  1  0  0  0
 13 16  1  0  0  0
M  END
> <minimizedAffinity>
-9.97566

> <CNNscore>
0.2001357824

> <CNNaffinity>
7.1829595566

> <CNN_VS>
1.4375672340

> <CNNaffinity_variance>
0.4783477187

$$$$
[H]N=C(N([H])[H])N([H])C([H])([H])C([H])([H])C([H])([H])[C@@]([H])(C(=O)c1nc2c([H])c([H])c([H])c([H])c2s1)N([H])C(=O)[C@@]1([H])N(C(=O)[C@]([H])(N([H])C(=O)OC([H])([H])c2c([H])c([H])c([H])c([H])c2[H])C([H])([H])c2c([H])c([H])c([H])c([H])c2[H])C([H])([H])C([H])([H])C1([H])[H]


 54 58  0  0  0  0  0  0  0  0999 V2000
    3.2150    5.6105   16.4037 N   0  0  0  0  0  0  0  0  0  0  0  0
    2.2340    5.2352   15.5668 C   0  0  0  0  0  0  0  0  0  0  0  0
    1.1356    5.8917   15.4229 O   0  0  0  0  0  0  0  0  0  0  0  0
    2.5667    6.8132   16.6334 H   0  0  0  0  0  0  0  0  0  0  0  0
    2.4092    4.0311   14.7727 C   0  0  0  0  0  0  0  0  0  0  0  0
    3.2518    2.9979   15.5910 C   0  0  0  0  0  0  0  0  0  0  0  0
    3.2168    1.8618   14.5924 C   0  0  0  0  0  0  0  0  0  0  0  0
    2.7783    2.4954   13.2563 C   0  0  0  0  0  0  0  0  0  0  0  0
    3.1589    3.9148   13.5628 N   0  0  0  0  0  0  0  0  0  0  0  0
    3.9379    4.7285   12.7796 C   0  0  0  0  0  0  0  0  0  0  0  0
    3.8955    6.0115   13.1474 O   0  0  0  0  0  0  0  0  0  0  0  0
    4.8482    4.6121   11.6217 C   0  0  0  0  0  0  0  0  0  0  0  0
    5.8488    5.4882   11.4625 N   0  0  0  0  0  0  0  0  0  0  0  0
    6.3207    6.5845   10.6481 C   0  0  0  0  0  0  0  0  0  0  0  0
    5.5796    6.8990    9.6929 O   0  0  0  0  0  0  0  0  0  0  0  0
    6.7115    5.3090   12.2013 H   0  0  0  0  0  0  0  0  0  0  0  0
    7.4679    7.2691   10.8670 O   0  0  0  0  0  0  0  0  0  0  0  0
    7.8818    8.0045   11.9773 C   0  0  0  0  0  0  0  0  0  0  0  0
    9.3784    7.9371   11.9373 C   0  0  0  0  0  0  0  0  0  0  0  0
    9.9682    7.1537   10.9975 C   0  0  0  0  0  0  0  0  0  0  0  0
   11.3593    6.9808   10.9418 C   0  0  0  0  0  0  0  0  0  0  0  0
   12.1551    7.6277   11.8666 C   0  0  0  0  0  0  0  0  0  0  0  0
   11.5649    8.4273   12.8203 C   0  0  0  0  0  0  0  0  0  0  0  0
   10.1685    8.5825   12.8543 C   0  0  0  0  0  0  0  0  0  0  0  0
    4.1261    4.2391   10.3217 C   0  0  0  0  0  0  0  0  0  0  0  0
    4.6153    2.9471    9.7399 C   0  0  0  0  0  0  0  0  0  0  0  0
    3.7918    1.8375    9.7521 C   0  0  0  0  0  0  0  0  0  0  0  0
    4.1419    0.6176    9.2262 C   0  0  0  0  0  0  0  0  0  0  0  0
    5.3908    0.4651    8.6453 C   0  0  0  0  0  0  0  0  0  0  0  0
    6.2189    1.5926    8.6363 C   0  0  0  0  0  0  0  0  0  0  0  0
    5.8566    2.8078    9.1668 C   0  0  0  0  0  0  0  0  0  0  0  0
    4.2052    6.0825   17.3197 C   0  0  0  0  0  0  0  0  0  0  0  0
    5.1638    5.1073   17.8750 C   0  0  0  0  0  0  0  0  0  0  0  0
    6.3488    5.0536   17.4199 O   0  0  0  0  0  0  0  0  0  0  0  0
    4.8334    4.1638   18.9652 C   0  0  0  0  0  0  0  0  0  0  0  0
    4.4350    2.9086   18.9320 N   0  0  0  0  0  0  0  0  0  0  0  0
    4.1516    2.2714   20.0399 C   0  0  0  0  0  0  0  0  0  0  0  0
    3.7028    0.9370   20.1120 C   0  0  0  0  0  0  0  0  0  0  0  0
    3.4166    0.3912   21.3241 C   0  0  0  0  0  0  0  0  0  0  0  0
    3.5365    1.0587   22.5195 C   0  0  0  0  0  0  0  0  0  0  0  0
    3.9762    2.3535   22.4613 C   0  0  0  0  0  0  0  0  0  0  0  0
    4.2832    2.9514   21.2221 C   0  0  0  0  0  0  0  0  0  0  0  0
    4.8123    4.4836   20.6633 S   0  0  0  0  0  0  0  0  0  0  0  0
    3.5626    6.8223   18.4764 C   0  0  0  0  0  0  0  0  0  0  0  0
    4.3402    8.0289   18.8853 C   0  0  0  0  0  0  0  0  0  0  0  0
    3.4317    9.1929   19.1269 C   0  0  0  0  0  0  0  0  0  0  0  0
    3.7311   10.3778   18.3905 N   0  0  0  0  0  0  0  0  0  0  0  0
    4.6871   10.8182   18.2963 H   0  0  0  0  0  0  0  0  0  0  0  0
    2.7396   11.3429   16.3380 N   0  0  0  0  0  0  0  0  0  0  0  0
    2.6640   11.0368   17.7184 C   0  0  0  0  0  0  0  0  0  0  0  0
    1.5885   11.3956   18.3514 N   0  0  0  0  0  0  0  0  0  0  0  0
    3.0740   12.2835   15.9958 H   0  0  0  0  0  0  0  0  0  0  0  0
    2.4757   10.6349   15.6067 H   0  0  0  0  0  0  0  0  0  0  0  0
    0.8111   11.8787   17.8837 H   0  0  0  0  0  0  0  0  0  0  0  0
 49 50  1  0  0  0
 50 51  2  0  0  0
 50 47  1  0  0  0
 47 46  1  0  0  0
 46 45  1  0  0  0
 45 44  1  0  0  0
 44 32  1  0  0  0
 32  1  1  0  0  0
  1  2  1  0  0  0
  2  3  2  0  0  0
  2  5  1  0  0  0
  5  6  1  0  0  0
  6  7  1  0  0  0
  7  8  1  0  0  0
  8  9  1  0  0  0
  9 10  1  0  0  0
 10 11  2  0  0  0
 10 12  1  0  0  0
 12 25  1  0  0  0
 25 26  1  0  0  0
 26 27  2  0  0  0
 27 28  1  0  0  0
 28 29  2  0  0  0
 29 30  1  0  0  0
 30 31  2  0  0  0
 12 13  1  0  0  0
 13 14  1  0  0  0
 14 15  2  0  0  0
 14 17  1  0  0  0
 17 18  1  0  0  0
 18 19  1  0  0  0
 19 20  2  0  0  0
 20 21  1  0  0  0
 21 22  2  0  0  0
 22 23  1  0  0  0
 23 24  2  0  0  0
 32 33  1  0  0  0
 33 34  2  0  0  0
 33 35  1  0  0  0
 35 36  2  0  0  0
 36 37  1  0  0  0
 37 38  2  0  0  0
 38 39  1  0  0  0
 39 40  2  0  0  0
 40 41  1  0  0  0
 41 42  2  0  0  0
 42 43  1  0  0  0
  9  5  1  0  0  0
 31 26  1  0  0  0
 24 19  1  0  0  0
 43 35  1  0  0  0
 42 37  1  0  0  0
 49 52  1  0  0  0
 49 53  1  0  0  0
 51 54  1  0  0  0
 47 48  1  0  0  0
  1  4  1  0  0  0
 13 16  1  0  0  0
M  END
> <minimizedAffinity>
-9.23735

> <CNNscore>
0.1991873235

> <CNNaffinity>
6.7273445129

> <CNN_VS>
1.3400017023

> <CNNaffinity_variance>
0.3212863803

$$$$
[H]N=C(N([H])[H])N([H])C([H])([H])C([H])([H])C([H])([H])[C@@]([H])(C(=O)c1nc2c([H])c([H])c([H])c([H])c2s1)N([H])C(=O)[C@@]1([H])N(C(=O)[C@]([H])(N([H])C(=O)OC([H])([H])c2c([H])c([H])c([H])c([H])c2[H])C([H])([H])c2c([H])c([H])c([H])c([H])c2[H])C([H])([H])C([H])([H])C1([H])[H]


 54 58  0  0  0  0  0  0  0  0999 V2000
    2.7934    4.8388   14.9383 N   0  0  0  0  0  0  0  0  0  0  0  0
    1.9357    4.8665   13.9052 C   0  0  0  0  0  0  0  0  0  0  0  0
    1.3598    3.8155   13.4338 O   0  0  0  0  0  0  0  0  0  0  0  0
    2.4809    3.5089   15.1693 H   0  0  0  0  0  0  0  0  0  0  0  0
    1.6282    6.1417   13.2803 C   0  0  0  0  0  0  0  0  0  0  0  0
    0.4350    5.9491   12.2873 C   0  0  0  0  0  0  0  0  0  0  0  0
    0.2884    7.3914   11.8542 C   0  0  0  0  0  0  0  0  0  0  0  0
    1.5971    8.0885   12.2787 C   0  0  0  0  0  0  0  0  0  0  0  0
    2.4632    6.8663   12.3763 N   0  0  0  0  0  0  0  0  0  0  0  0
    3.6838    6.6920   11.7745 C   0  0  0  0  0  0  0  0  0  0  0  0
    4.3550    5.6360   12.2405 O   0  0  0  0  0  0  0  0  0  0  0  0
    4.5041    7.3317   10.7253 C   0  0  0  0  0  0  0  0  0  0  0  0
    3.9203    7.8402    9.6323 N   0  0  0  0  0  0  0  0  0  0  0  0
    2.8386    7.6517    8.6929 C   0  0  0  0  0  0  0  0  0  0  0  0
    2.1271    6.6444    8.8915 O   0  0  0  0  0  0  0  0  0  0  0  0
    4.4893    8.7465    9.2114 H   0  0  0  0  0  0  0  0  0  0  0  0
    2.5593    8.4836    7.6621 O   0  0  0  0  0  0  0  0  0  0  0  0
    3.0351    9.7641    7.3817 C   0  0  0  0  0  0  0  0  0  0  0  0
    4.1607    9.5450    6.4168 C   0  0  0  0  0  0  0  0  0  0  0  0
    3.9410    8.7601    5.3304 C   0  0  0  0  0  0  0  0  0  0  0  0
    4.9629    8.4481    4.4212 C   0  0  0  0  0  0  0  0  0  0  0  0
    6.2297    8.9554    4.6330 C   0  0  0  0  0  0  0  0  0  0  0  0
    6.4596    9.7556    5.7303 C   0  0  0  0  0  0  0  0  0  0  0  0
    5.4180   10.0519    6.6261 C   0  0  0  0  0  0  0  0  0  0  0  0
    5.8167    6.5893   10.4494 C   0  0  0  0  0  0  0  0  0  0  0  0
    5.8427    5.9467    9.0952 C   0  0  0  0  0  0  0  0  0  0  0  0
    5.2979    4.6880    8.9262 C   0  0  0  0  0  0  0  0  0  0  0  0
    5.2561    4.0264    7.7229 C   0  0  0  0  0  0  0  0  0  0  0  0
    5.7875    4.6360    6.5975 C   0  0  0  0  0  0  0  0  0  0  0  0
    6.3370    5.9100    6.7762 C   0  0  0  0  0  0  0  0  0  0  0  0
    6.3732    6.5609    7.9862 C   0  0  0  0  0  0  0  0  0  0  0  0
    3.6948    4.7160   16.0403 C   0  0  0  0  0  0  0  0  0  0  0  0
    3.1271    4.5035   17.3860 C   0  0  0  0  0  0  0  0  0  0  0  0
    1.9562    4.9182   17.6528 O   0  0  0  0  0  0  0  0  0  0  0  0
    3.8457    3.8117   18.4783 C   0  0  0  0  0  0  0  0  0  0  0  0
    4.4572    4.2826   19.5458 N   0  0  0  0  0  0  0  0  0  0  0  0
    5.0768    3.4741   20.3681 C   0  0  0  0  0  0  0  0  0  0  0  0
    5.7731    3.8771   21.5255 C   0  0  0  0  0  0  0  0  0  0  0  0
    6.3998    2.9428   22.2895 C   0  0  0  0  0  0  0  0  0  0  0  0
    6.4051    1.5964   22.0136 C   0  0  0  0  0  0  0  0  0  0  0  0
    5.7278    1.1937   20.8944 C   0  0  0  0  0  0  0  0  0  0  0  0
    5.0659    2.1346   20.0796 C   0  0  0  0  0  0  0  0  0  0  0  0
    4.1552    2.1181   18.6270 S   0  0  0  0  0  0  0  0  0  0  0  0
    4.6323    5.9055   16.1071 C   0  0  0  0  0  0  0  0  0  0  0  0
    3.9179    7.2057   15.9439 C   0  0  0  0  0  0  0  0  0  0  0  0
    4.2915    8.1606   17.0335 C   0  0  0  0  0  0  0  0  0  0  0  0
    3.6516    7.9491   18.2911 N   0  0  0  0  0  0  0  0  0  0  0  0
    2.6162    7.7961   18.4362 H   0  0  0  0  0  0  0  0  0  0  0  0
    5.6364    8.7240   19.5512 N   0  0  0  0  0  0  0  0  0  0  0  0
    4.4608    7.9398   19.4616 C   0  0  0  0  0  0  0  0  0  0  0  0
    4.1581    7.1989   20.4840 N   0  0  0  0  0  0  0  0  0  0  0  0
    6.5858    8.3296   19.3130 H   0  0  0  0  0  0  0  0  0  0  0  0
    5.5987    9.7324   19.8471 H   0  0  0  0  0  0  0  0  0  0  0  0
    4.7347    7.1743   21.3346 H   0  0  0  0  0  0  0  0  0  0  0  0
 49 50  1  0  0  0
 50 51  2  0  0  0
 50 47  1  0  0  0
 47 46  1  0  0  0
 46 45  1  0  0  0
 45 44  1  0  0  0
 44 32  1  0  0  0
 32  1  1  0  0  0
  1  2  1  0  0  0
  2  3  2  0  0  0
  2  5  1  0  0  0
  5  6  1  0  0  0
  6  7  1  0  0  0
  7  8  1  0  0  0
  8  9  1  0  0  0
  9 10  1  0  0  0
 10 11  2  0  0  0
 10 12  1  0  0  0
 12 25  1  0  0  0
 25 26  1  0  0  0
 26 27  2  0  0  0
 27 28  1  0  0  0
 28 29  2  0  0  0
 29 30  1  0  0  0
 30 31  2  0  0  0
 12 13  1  0  0  0
 13 14  1  0  0  0
 14 15  2  0  0  0
 14 17  1  0  0  0
 17 18  1  0  0  0
 18 19  1  0  0  0
 19 20  2  0  0  0
 20 21  1  0  0  0
 21 22  2  0  0  0
 22 23  1  0  0  0
 23 24  2  0  0  0
 32 33  1  0  0  0
 33 34  2  0  0  0
 33 35  1  0  0  0
 35 36  2  0  0  0
 36 37  1  0  0  0
 37 38  2  0  0  0
 38 39  1  0  0  0
 39 40  2  0  0  0
 40 41  1  0  0  0
 41 42  2  0  0  0
 42 43  1  0  0  0
  9  5  1  0  0  0
 31 26  1  0  0  0
 24 19  1  0  0  0
 43 35  1  0  0  0
 42 37  1  0  0  0
 49 52  1  0  0  0
 49 53  1  0  0  0
 51 54  1  0  0  0
 47 48  1  0  0  0
  1  4  1  0  0  0
 13 16  1  0  0  0
M  END
> <minimizedAffinity>
-7.82248

> <CNNscore>
0.1839459836

> <CNNaffinity>
6.5127286911

> <CNN_VS>
1.1979902983

> <CNNaffinity_variance>
0.4647856355

$$$$
[H]c1c([H])c([H])c([C@]2([H])N(S(=O)(=O)c3c(C(F)(F)F)c([H])c(C(F)(F)F)c([H])c3C(F)(F)F)C([H])([H])[C@@]([H])(c3c([H])c([H])c(Cl)c([H])c3[H])C2([H])[H])c([H])c1[H]


 39 42  0  0  0  0  0  0  0  0999 V2000
    5.6653    4.2004   17.4212 S   0  0  0  0  0  0  0  0  0  0  0  0
    5.8612    2.8838   16.7365 O   0  0  0  0  0  0  0  0  0  0  0  0
    7.0052    4.9051   17.1972 O   0  0  0  0  0  0  0  0  0  0  0  0
    5.7803    5.1702   19.8994 C   0  0  0  0  0  0  0  0  0  0  0  0
    5.3497    5.1116   21.2374 C   0  0  0  0  0  0  0  0  0  0  0  0
    4.5472    4.1606   21.7637 C   0  0  0  0  0  0  0  0  0  0  0  0
    4.1243    3.1806   20.9221 C   0  0  0  0  0  0  0  0  0  0  0  0
    4.4780    3.1170   19.5685 C   0  0  0  0  0  0  0  0  0  0  0  0
    5.3155    4.1416   19.0794 C   0  0  0  0  0  0  0  0  0  0  0  0
    6.7046    6.2106   19.5069 C   0  0  0  0  0  0  0  0  0  0  0  0
    6.5964    7.2460   20.5218 F   0  0  0  0  0  0  0  0  0  0  0  0
    6.4396    7.0006   18.4070 F   0  0  0  0  0  0  0  0  0  0  0  0
    8.0559    5.8496   19.6335 F   0  0  0  0  0  0  0  0  0  0  0  0
    4.1342    4.1540   23.1891 C   0  0  0  0  0  0  0  0  0  0  0  0
    2.7482    4.1804   23.2834 F   0  0  0  0  0  0  0  0  0  0  0  0
    4.6719    3.0697   23.8358 F   0  0  0  0  0  0  0  0  0  0  0  0
    4.6250    5.2896   23.7886 F   0  0  0  0  0  0  0  0  0  0  0  0
    4.0527    1.9480   18.7936 C   0  0  0  0  0  0  0  0  0  0  0  0
    5.0829    1.0314   18.6054 F   0  0  0  0  0  0  0  0  0  0  0  0
    3.1889    2.0867   17.7785 F   0  0  0  0  0  0  0  0  0  0  0  0
    3.2548    1.1581   19.7137 F   0  0  0  0  0  0  0  0  0  0  0  0
    4.6881    5.2913   16.4497 N   0  0  0  0  0  0  0  0  0  0  0  0
    3.9588    4.4756   15.4306 C   0  0  0  0  0  0  0  0  0  0  0  0
    2.8101    5.4626   15.1769 C   0  0  0  0  0  0  0  0  0  0  0  0
    2.3148    5.4251   16.6289 C   0  0  0  0  0  0  0  0  0  0  0  0
    3.5960    5.7707   17.3230 C   0  0  0  0  0  0  0  0  0  0  0  0
    1.8442    5.0788   14.1732 C   0  0  0  0  0  0  0  0  0  0  0  0
    1.8571    3.8569   13.5452 C   0  0  0  0  0  0  0  0  0  0  0  0
    0.8935    3.5747   12.6029 C   0  0  0  0  0  0  0  0  0  0  0  0
   -0.0992    4.4893   12.2615 C   0  0  0  0  0  0  0  0  0  0  0  0
   -1.3073    4.1489   11.0644 Cl  0  0  0  0  0  0  0  0  0  0  0  0
   -0.1095    5.7074   12.8913 C   0  0  0  0  0  0  0  0  0  0  0  0
    0.8525    5.9819   13.8303 C   0  0  0  0  0  0  0  0  0  0  0  0
    3.7197    7.1470   17.7143 C   0  0  0  0  0  0  0  0  0  0  0  0
    3.5194    7.5507   19.0107 C   0  0  0  0  0  0  0  0  0  0  0  0
    3.5690    8.8531   19.4555 C   0  0  0  0  0  0  0  0  0  0  0  0
    3.8324    9.8364   18.5485 C   0  0  0  0  0  0  0  0  0  0  0  0
    4.0483    9.5035   17.2139 C   0  0  0  0  0  0  0  0  0  0  0  0
    3.9894    8.1644   16.8190 C   0  0  0  0  0  0  0  0  0  0  0  0
  4 10  1  0  0  0
 10 11  1  0  0  0
 10 12  1  0  0  0
 10 13  1  0  0  0
  4  5  2  0  0  0
  5  6  1  0  0  0
  6 14  1  0  0  0
 14 15  1  0  0  0
 14 16  1  0  0  0
 14 17  1  0  0  0
  6  7  2  0  0  0
  7  8  1  0  0  0
  8 18  1  0  0  0
 18 19  1  0  0  0
 18 20  1  0  0  0
 18 21  1  0  0  0
  8  9  2  0  0  0
  9  1  1  0  0  0
  1  2  2  0  0  0
  1  3  2  0  0  0
  1 22  1  0  0  0
 22 23  1  0  0  0
 23 24  1  0  0  0
 24 27  1  0  0  0
 27 28  2  0  0  0
 28 29  1  0  0  0
 29 30  2  0  0  0
 30 31  1  0  0  0
 30 32  1  0  0  0
 32 33  2  0  0  0
 24 25  1  0  0  0
 25 26  1  0  0  0
 26 34  1  0  0  0
 34 35  2  0  0  0
 35 36  1  0  0  0
 36 37  2  0  0  0
 37 38  1  0  0  0
 38 39  2  0  0  0
  9  4  1  0  0  0
 26 22  1  0  0  0
 39 34  1  0  0  0
 33 27  1  0  0  0
M  END
> <minimizedAffinity>
-7.69710

> <CNNscore>
0.3790806234

> <CNNaffinity>
6.6061220169

> <CNN_VS>
2.5042529106

> <CNNaffinity_variance>
0.7617779970

$$$$
[H]c1c([H])c([H])c([C@]2([H])N(S(=O)(=O)c3c(C(F)(F)F)c([H])c(C(F)(F)F)c([H])c3C(F)(F)F)C([H])([H])[C@@]([H])(c3c([H])c([H])c(Cl)c([H])c3[H])C2([H])[H])c([H])c1[H]


 39 42  0  0  0  0  0  0  0  0999 V2000
    5.6563    4.1947   17.3937 S   0  0  0  0  0  0  0  0  0  0  0  0
    6.0367    2.9930   16.5863 O   0  0  0  0  0  0  0  0  0  0  0  0
    6.9341    5.0367   17.3766 O   0  0  0  0  0  0  0  0  0  0  0  0
    4.4422    2.7542   19.2769 C   0  0  0  0  0  0  0  0  0  0  0  0
    4.1867    2.5251   20.6412 C   0  0  0  0  0  0  0  0  0  0  0  0
    4.5898    3.3158   21.6597 C   0  0  0  0  0  0  0  0  0  0  0  0
    5.3024    4.4254   21.3298 C   0  0  0  0  0  0  0  0  0  0  0  0
    5.6259    4.7739   20.0125 C   0  0  0  0  0  0  0  0  0  0  0  0
    5.1787    3.9051   18.9948 C   0  0  0  0  0  0  0  0  0  0  0  0
    3.8740    1.8545   18.2979 C   0  0  0  0  0  0  0  0  0  0  0  0
    3.1034    0.8783   19.0512 F   0  0  0  0  0  0  0  0  0  0  0  0
    4.6804    0.9671   17.6151 F   0  0  0  0  0  0  0  0  0  0  0  0
    2.8711    2.4352   17.5048 F   0  0  0  0  0  0  0  0  0  0  0  0
    4.2805    3.0190   23.0806 C   0  0  0  0  0  0  0  0  0  0  0  0
    5.4527    2.7528   23.7774 F   0  0  0  0  0  0  0  0  0  0  0  0
    3.5745    4.0539   23.6406 F   0  0  0  0  0  0  0  0  0  0  0  0
    3.4909    1.8948   23.1274 F   0  0  0  0  0  0  0  0  0  0  0  0
    6.2982    6.0549   19.7780 C   0  0  0  0  0  0  0  0  0  0  0  0
    5.9016    7.0366   20.6812 F   0  0  0  0  0  0  0  0  0  0  0  0
    6.5539    6.4663   18.5286 F   0  0  0  0  0  0  0  0  0  0  0  0
    7.6487    5.8664   20.2759 F   0  0  0  0  0  0  0  0  0  0  0  0
    4.6597    5.3046   16.4644 N   0  0  0  0  0  0  0  0  0  0  0  0
    3.8943    4.5069   15.4577 C   0  0  0  0  0  0  0  0  0  0  0  0
    2.7466    5.5056   15.2497 C   0  0  0  0  0  0  0  0  0  0  0  0
    2.2939    5.4543   16.7150 C   0  0  0  0  0  0  0  0  0  0  0  0
    3.5977    5.7817   17.3752 C   0  0  0  0  0  0  0  0  0  0  0  0
    1.7486    5.1412   14.2704 C   0  0  0  0  0  0  0  0  0  0  0  0
    1.7085    3.9116   13.6589 C   0  0  0  0  0  0  0  0  0  0  0  0
    0.7173    3.6496   12.7395 C   0  0  0  0  0  0  0  0  0  0  0  0
   -0.2511    4.5923   12.4053 C   0  0  0  0  0  0  0  0  0  0  0  0
   -1.4935    4.2770   11.2368 Cl  0  0  0  0  0  0  0  0  0  0  0  0
   -0.2085    5.8181   13.0186 C   0  0  0  0  0  0  0  0  0  0  0  0
    0.7807    6.0725   13.9347 C   0  0  0  0  0  0  0  0  0  0  0  0
    3.7437    7.1522   17.7790 C   0  0  0  0  0  0  0  0  0  0  0  0
    3.4053    7.5741   19.0404 C   0  0  0  0  0  0  0  0  0  0  0  0
    3.4675    8.8750   19.4880 C   0  0  0  0  0  0  0  0  0  0  0  0
    3.8927    9.8374   18.6210 C   0  0  0  0  0  0  0  0  0  0  0  0
    4.2549    9.4852   17.3235 C   0  0  0  0  0  0  0  0  0  0  0  0
    4.1755    8.1484   16.9242 C   0  0  0  0  0  0  0  0  0  0  0  0
  4 10  1  0  0  0
 10 11  1  0  0  0
 10 12  1  0  0  0
 10 13  1  0  0  0
  4  5  2  0  0  0
  5  6  1  0  0  0
  6 14  1  0  0  0
 14 15  1  0  0  0
 14 16  1  0  0  0
 14 17  1  0  0  0
  6  7  2  0  0  0
  7  8  1  0  0  0
  8 18  1  0  0  0
 18 19  1  0  0  0
 18 20  1  0  0  0
 18 21  1  0  0  0
  8  9  2  0  0  0
  9  1  1  0  0  0
  1  2  2  0  0  0
  1  3  2  0  0  0
  1 22  1  0  0  0
 22 23  1  0  0  0
 23 24  1  0  0  0
 24 27  1  0  0  0
 27 28  2  0  0  0
 28 29  1  0  0  0
 29 30  2  0  0  0
 30 31  1  0  0  0
 30 32  1  0  0  0
 32 33  2  0  0  0
 24 25  1  0  0  0
 25 26  1  0  0  0
 26 34  1  0  0  0
 34 35  2  0  0  0
 35 36  1  0  0  0
 36 37  2  0  0  0
 37 38  1  0  0  0
 38 39  2  0  0  0
  9  4  1  0  0  0
 26 22  1  0  0  0
 39 34  1  0  0  0
 33 27  1  0  0  0
M  END
> <minimizedAffinity>
-8.14278

> <CNNscore>
0.3645318449

> <CNNaffinity>
6.6773400307

> <CNN_VS>
2.4341030121

> <CNNaffinity_variance>
0.4429160953

$$$$
[H]c1c([H])c([H])c([C@]2([H])N(S(=O)(=O)c3c(C(F)(F)F)c([H])c(C(F)(F)F)c([H])c3C(F)(F)F)C([H])([H])[C@@]([H])(c3c([H])c([H])c(Cl)c([H])c3[H])C2([H])[H])c([H])c1[H]


 39 42  0  0  0  0  0  0  0  0999 V2000
    3.3204    5.0572   18.4259 S   0  0  0  0  0  0  0  0  0  0  0  0
    2.5509    6.0788   19.2036 O   0  0  0  0  0  0  0  0  0  0  0  0
    2.2459    4.4194   17.5424 O   0  0  0  0  0  0  0  0  0  0  0  0
    4.3908    2.6360   18.7217 C   0  0  0  0  0  0  0  0  0  0  0  0
    5.1487    1.7403   19.4977 C   0  0  0  0  0  0  0  0  0  0  0  0
    5.6035    1.9744   20.7482 C   0  0  0  0  0  0  0  0  0  0  0  0
    5.2984    3.1806   21.2958 C   0  0  0  0  0  0  0  0  0  0  0  0
    4.5508    4.1635   20.6354 C   0  0  0  0  0  0  0  0  0  0  0  0
    4.1081    3.8589   19.3309 C   0  0  0  0  0  0  0  0  0  0  0  0
    3.9102    2.2066   17.4272 C   0  0  0  0  0  0  0  0  0  0  0  0
    4.4563    0.8753   17.2190 F   0  0  0  0  0  0  0  0  0  0  0  0
    4.3961    2.7888   16.2744 F   0  0  0  0  0  0  0  0  0  0  0  0
    2.5317    1.9409   17.3908 F   0  0  0  0  0  0  0  0  0  0  0  0
    6.3949    0.9814   21.5163 C   0  0  0  0  0  0  0  0  0  0  0  0
    5.8435   -0.2852   21.3669 F   0  0  0  0  0  0  0  0  0  0  0  0
    7.7105    1.0174   21.1276 F   0  0  0  0  0  0  0  0  0  0  0  0
    6.3385    1.3176   22.8480 F   0  0  0  0  0  0  0  0  0  0  0  0
    4.1900    5.3760   21.3754 C   0  0  0  0  0  0  0  0  0  0  0  0
    2.9214    5.2954   21.9419 F   0  0  0  0  0  0  0  0  0  0  0  0
    4.5625    6.5811   20.9228 F   0  0  0  0  0  0  0  0  0  0  0  0
    4.9574    5.3069   22.6057 F   0  0  0  0  0  0  0  0  0  0  0  0
    4.2463    5.7994   17.1296 N   0  0  0  0  0  0  0  0  0  0  0  0
    3.3904    5.8216   15.9037 C   0  0  0  0  0  0  0  0  0  0  0  0
    4.1038    6.9784   15.1890 C   0  0  0  0  0  0  0  0  0  0  0  0
    3.8060    7.9914   16.3026 C   0  0  0  0  0  0  0  0  0  0  0  0
    4.3683    7.2337   17.4656 C   0  0  0  0  0  0  0  0  0  0  0  0
    3.6090    7.3241   13.8762 C   0  0  0  0  0  0  0  0  0  0  0  0
    2.4369    8.0109   13.6709 C   0  0  0  0  0  0  0  0  0  0  0  0
    2.0443    8.3015   12.3834 C   0  0  0  0  0  0  0  0  0  0  0  0
    2.7973    7.9215   11.2756 C   0  0  0  0  0  0  0  0  0  0  0  0
    2.3028    8.2691    9.6499 Cl  0  0  0  0  0  0  0  0  0  0  0  0
    3.9671    7.2372   11.4847 C   0  0  0  0  0  0  0  0  0  0  0  0
    4.3535    6.9519   12.7698 C   0  0  0  0  0  0  0  0  0  0  0  0
    5.6890    7.6320   17.8654 C   0  0  0  0  0  0  0  0  0  0  0  0
    6.5797    6.7401   18.4083 C   0  0  0  0  0  0  0  0  0  0  0  0
    7.8419    7.0521   18.8622 C   0  0  0  0  0  0  0  0  0  0  0  0
    8.2571    8.3480   18.7783 C   0  0  0  0  0  0  0  0  0  0  0  0
    7.4085    9.3103   18.2373 C   0  0  0  0  0  0  0  0  0  0  0  0
    6.1390    8.9363   17.7888 C   0  0  0  0  0  0  0  0  0  0  0  0
  4 10  1  0  0  0
 10 11  1  0  0  0
 10 12  1  0  0  0
 10 13  1  0  0  0
  4  5  2  0  0  0
  5  6  1  0  0  0
  6 14  1  0  0  0
 14 15  1  0  0  0
 14 16  1  0  0  0
 14 17  1  0  0  0
  6  7  2  0  0  0
  7  8  1  0  0  0
  8 18  1  0  0  0
 18 19  1  0  0  0
 18 20  1  0  0  0
 18 21  1  0  0  0
  8  9  2  0  0  0
  9  1  1  0  0  0
  1  2  2  0  0  0
  1  3  2  0  0  0
  1 22  1  0  0  0
 22 23  1  0  0  0
 23 24  1  0  0  0
 24 27  1  0  0  0
 27 28  2  0  0  0
 28 29  1  0  0  0
 29 30  2  0  0  0
 30 31  1  0  0  0
 30 32  1  0  0  0
 32 33  2  0  0  0
 24 25  1  0  0  0
 25 26  1  0  0  0
 26 34  1  0  0  0
 34 35  2  0  0  0
 35 36  1  0  0  0
 36 37  2  0  0  0
 37 38  1  0  0  0
 38 39  2  0  0  0
  9  4  1  0  0  0
 26 22  1  0  0  0
 39 34  1  0  0  0
 33 27  1  0  0  0
M  END
> <minimizedAffinity>
-9.10241

> <CNNscore>
0.3434087932

> <CNNaffinity>
6.5003151894

> <CNN_VS>
2.2322654724

> <CNNaffinity_variance>
0.4473211765

$$$$
[H]c1c([H])c([H])c([C@]2([H])N(S(=O)(=O)c3c(C(F)(F)F)c([H])c(C(F)(F)F)c([H])c3C(F)(F)F)C([H])([H])[C@@]([H])(c3c([H])c([H])c(Cl)c([H])c3[H])C2([H])[H])c([H])c1[H]


 39 42  0  0  0  0  0  0  0  0999 V2000
    3.4221    5.2451   18.5220 S   0  0  0  0  0  0  0  0  0  0  0  0
    2.7624    6.2362   19.4294 O   0  0  0  0  0  0  0  0  0  0  0  0
    2.2604    4.7429   17.6616 O   0  0  0  0  0  0  0  0  0  0  0  0
    4.6707    4.0926   20.5734 C   0  0  0  0  0  0  0  0  0  0  0  0
    5.1889    2.9278   21.1682 C   0  0  0  0  0  0  0  0  0  0  0  0
    5.2540    1.7105   20.5859 C   0  0  0  0  0  0  0  0  0  0  0  0
    4.7759    1.6111   19.3173 C   0  0  0  0  0  0  0  0  0  0  0  0
    4.2346    2.6903   18.6076 C   0  0  0  0  0  0  0  0  0  0  0  0
    4.1921    3.9338   19.2726 C   0  0  0  0  0  0  0  0  0  0  0  0
    4.7436    5.3408   21.2997 C   0  0  0  0  0  0  0  0  0  0  0  0
    5.5682    5.0767   22.4678 F   0  0  0  0  0  0  0  0  0  0  0  0
    3.6354    5.8286   21.9615 F   0  0  0  0  0  0  0  0  0  0  0  0
    5.5006    6.3321   20.6543 F   0  0  0  0  0  0  0  0  0  0  0  0
    5.8200    0.5205   21.2686 C   0  0  0  0  0  0  0  0  0  0  0  0
    4.8550   -0.4740   21.3703 F   0  0  0  0  0  0  0  0  0  0  0  0
    6.9413    0.0820   20.6101 F   0  0  0  0  0  0  0  0  0  0  0  0
    6.1928    0.8859   22.5403 F   0  0  0  0  0  0  0  0  0  0  0  0
    3.8596    2.4821   17.2061 C   0  0  0  0  0  0  0  0  0  0  0  0
    4.7318    3.1118   16.3232 F   0  0  0  0  0  0  0  0  0  0  0  0
    2.5686    2.4558   16.8477 F   0  0  0  0  0  0  0  0  0  0  0  0
    4.2428    1.1125   16.9149 F   0  0  0  0  0  0  0  0  0  0  0  0
    4.3092    6.0448   17.2328 N   0  0  0  0  0  0  0  0  0  0  0  0
    3.4884    5.9616   15.9858 C   0  0  0  0  0  0  0  0  0  0  0  0
    4.1095    7.1658   15.2632 C   0  0  0  0  0  0  0  0  0  0  0  0
    3.6884    8.1686   16.3458 C   0  0  0  0  0  0  0  0  0  0  0  0
    4.2874    7.4907   17.5393 C   0  0  0  0  0  0  0  0  0  0  0  0
    3.6202    7.4369   13.9309 C   0  0  0  0  0  0  0  0  0  0  0  0
    2.3536    7.9037   13.6753 C   0  0  0  0  0  0  0  0  0  0  0  0
    1.9735    8.1387   12.3727 C   0  0  0  0  0  0  0  0  0  0  0  0
    2.8322    7.9184   11.2992 C   0  0  0  0  0  0  0  0  0  0  0  0
    2.3569    8.1962    9.6544 Cl  0  0  0  0  0  0  0  0  0  0  0  0
    4.0959    7.4535   11.5584 C   0  0  0  0  0  0  0  0  0  0  0  0
    4.4691    7.2227   12.8584 C   0  0  0  0  0  0  0  0  0  0  0  0
    5.5538    8.0194   17.9628 C   0  0  0  0  0  0  0  0  0  0  0  0
    6.6561    7.2170   18.1198 C   0  0  0  0  0  0  0  0  0  0  0  0
    7.8884    7.6364   18.5694 C   0  0  0  0  0  0  0  0  0  0  0  0
    8.0449    8.9511   18.8946 C   0  0  0  0  0  0  0  0  0  0  0  0
    6.9710    9.8272   18.7600 C   0  0  0  0  0  0  0  0  0  0  0  0
    5.7436    9.3472   18.2954 C   0  0  0  0  0  0  0  0  0  0  0  0
  4 10  1  0  0  0
 10 11  1  0  0  0
 10 12  1  0  0  0
 10 13  1  0  0  0
  4  5  2  0  0  0
  5  6  1  0  0  0
  6 14  1  0  0  0
 14 15  1  0  0  0
 14 16  1  0  0  0
 14 17  1  0  0  0
  6  7  2  0  0  0
  7  8  1  0  0  0
  8 18  1  0  0  0
 18 19  1  0  0  0
 18 20  1  0  0  0
 18 21  1  0  0  0
  8  9  2  0  0  0
  9  1  1  0  0  0
  1  2  2  0  0  0
  1  3  2  0  0  0
  1 22  1  0  0  0
 22 23  1  0  0  0
 23 24  1  0  0  0
 24 27  1  0  0  0
 27 28  2  0  0  0
 28 29  1  0  0  0
 29 30  2  0  0  0
 30 31  1  0  0  0
 30 32  1  0  0  0
 32 33  2  0  0  0
 24 25  1  0  0  0
 25 26  1  0  0  0
 26 34  1  0  0  0
 34 35  2  0  0  0
 35 36  1  0  0  0
 36 37  2  0  0  0
 37 38  1  0  0  0
 38 39  2  0  0  0
  9  4  1  0  0  0
 26 22  1  0  0  0
 39 34  1  0  0  0
 33 27  1  0  0  0
M  END
> <minimizedAffinity>
-8.88802

> <CNNscore>
0.2798104882

> <CNNaffinity>
6.4630103111

> <CNN_VS>
1.8084180355

> <CNNaffinity_variance>
0.4361254573

$$$$
[H]c1c([H])c([H])c([C@]2([H])N(S(=O)(=O)c3c(C(F)(F)F)c([H])c(C(F)(F)F)c([H])c3C(F)(F)F)C([H])([H])[C@@]([H])(c3c([H])c([H])c(Cl)c([H])c3[H])C2([H])[H])c([H])c1[H]


 39 42  0  0  0  0  0  0  0  0999 V2000
    2.8408    3.8587   16.6898 S   0  0  0  0  0  0  0  0  0  0  0  0
    1.9233    4.9579   17.1265 O   0  0  0  0  0  0  0  0  0  0  0  0
    1.8804    2.8306   16.0874 O   0  0  0  0  0  0  0  0  0  0  0  0
    4.5833    3.9413   18.7028 C   0  0  0  0  0  0  0  0  0  0  0  0
    5.2347    3.2808   19.7604 C   0  0  0  0  0  0  0  0  0  0  0  0
    5.1364    1.9635   20.0435 C   0  0  0  0  0  0  0  0  0  0  0  0
    4.3380    1.2199   19.2327 C   0  0  0  0  0  0  0  0  0  0  0  0
    3.6333    1.7489   18.1441 C   0  0  0  0  0  0  0  0  0  0  0  0
    3.7755    3.1318   17.9036 C   0  0  0  0  0  0  0  0  0  0  0  0
    4.8531    5.3447   18.4824 C   0  0  0  0  0  0  0  0  0  0  0  0
    5.8045    5.7356   19.5100 F   0  0  0  0  0  0  0  0  0  0  0  0
    3.8871    6.2918   18.7541 F   0  0  0  0  0  0  0  0  0  0  0  0
    5.5923    5.6066   17.3174 F   0  0  0  0  0  0  0  0  0  0  0  0
    5.8571    1.3268   21.1738 C   0  0  0  0  0  0  0  0  0  0  0  0
    6.4567    0.1465   20.7518 F   0  0  0  0  0  0  0  0  0  0  0  0
    6.7679    2.2014   21.7112 F   0  0  0  0  0  0  0  0  0  0  0  0
    4.9425    1.0155   22.1517 F   0  0  0  0  0  0  0  0  0  0  0  0
    2.8985    0.8239   17.2767 C   0  0  0  0  0  0  0  0  0  0  0  0
    3.5294    0.6293   16.0516 F   0  0  0  0  0  0  0  0  0  0  0  0
    1.5585    0.8322   17.2596 F   0  0  0  0  0  0  0  0  0  0  0  0
    3.1477   -0.4924   17.8355 F   0  0  0  0  0  0  0  0  0  0  0  0
    3.6726    4.2703   15.1974 N   0  0  0  0  0  0  0  0  0  0  0  0
    3.4339    3.1681   14.2156 C   0  0  0  0  0  0  0  0  0  0  0  0
    3.6803    3.9868   12.9401 C   0  0  0  0  0  0  0  0  0  0  0  0
    2.5366    4.9703   13.2220 C   0  0  0  0  0  0  0  0  0  0  0  0
    2.9329    5.4022   14.6002 C   0  0  0  0  0  0  0  0  0  0  0  0
    3.5967    3.2674   11.6897 C   0  0  0  0  0  0  0  0  0  0  0  0
    4.2848    3.6395   10.5603 C   0  0  0  0  0  0  0  0  0  0  0  0
    4.1483    2.8913    9.4124 C   0  0  0  0  0  0  0  0  0  0  0  0
    3.3325    1.7645    9.3551 C   0  0  0  0  0  0  0  0  0  0  0  0
    3.1418    0.8254    7.9095 Cl  0  0  0  0  0  0  0  0  0  0  0  0
    2.6481    1.3957   10.4847 C   0  0  0  0  0  0  0  0  0  0  0  0
    2.7895    2.1444   11.6257 C   0  0  0  0  0  0  0  0  0  0  0  0
    3.6292    6.6566   14.6641 C   0  0  0  0  0  0  0  0  0  0  0  0
    3.6939    7.3894   15.8228 C   0  0  0  0  0  0  0  0  0  0  0  0
    4.2962    8.6209   15.9532 C   0  0  0  0  0  0  0  0  0  0  0  0
    4.8770    9.1764   14.8518 C   0  0  0  0  0  0  0  0  0  0  0  0
    4.8527    8.4913   13.6399 C   0  0  0  0  0  0  0  0  0  0  0  0
    4.2302    7.2424   13.5662 C   0  0  0  0  0  0  0  0  0  0  0  0
  4 10  1  0  0  0
 10 11  1  0  0  0
 10 12  1  0  0  0
 10 13  1  0  0  0
  4  5  2  0  0  0
  5  6  1  0  0  0
  6 14  1  0  0  0
 14 15  1  0  0  0
 14 16  1  0  0  0
 14 17  1  0  0  0
  6  7  2  0  0  0
  7  8  1  0  0  0
  8 18  1  0  0  0
 18 19  1  0  0  0
 18 20  1  0  0  0
 18 21  1  0  0  0
  8  9  2  0  0  0
  9  1  1  0  0  0
  1  2  2  0  0  0
  1  3  2  0  0  0
  1 22  1  0  0  0
 22 23  1  0  0  0
 23 24  1  0  0  0
 24 27  1  0  0  0
 27 28  2  0  0  0
 28 29  1  0  0  0
 29 30  2  0  0  0
 30 31  1  0  0  0
 30 32  1  0  0  0
 32 33  2  0  0  0
 24 25  1  0  0  0
 25 26  1  0  0  0
 26 34  1  0  0  0
 34 35  2  0  0  0
 35 36  1  0  0  0
 36 37  2  0  0  0
 37 38  1  0  0  0
 38 39  2  0  0  0
  9  4  1  0  0  0
 26 22  1  0  0  0
 39 34  1  0  0  0
 33 27  1  0  0  0
M  END
> <minimizedAffinity>
-9.22540

> <CNNscore>
0.2734380066

> <CNNaffinity>
6.8758406639

> <CNN_VS>
1.8801162243

> <CNNaffinity_variance>
0.5909332037

$$$$
[H]c1c([H])c([H])c([C@]2([H])N(S(=O)(=O)c3c(C(F)(F)F)c([H])c(C(F)(F)F)c([H])c3C(F)(F)F)C([H])([H])[C@@]([H])(c3c([H])c([H])c(Cl)c([H])c3[H])C2([H])[H])c([H])c1[H]


 39 42  0  0  0  0  0  0  0  0999 V2000
    2.4575    4.9198   10.9988 S   0  0  0  0  0  0  0  0  0  0  0  0
    2.9692    6.1964   10.4080 O   0  0  0  0  0  0  0  0  0  0  0  0
    3.6926    4.0163   10.9829 O   0  0  0  0  0  0  0  0  0  0  0  0
    1.4819    3.1798    9.2335 C   0  0  0  0  0  0  0  0  0  0  0  0
    0.3691    2.5214    8.6794 C   0  0  0  0  0  0  0  0  0  0  0  0
   -0.9234    2.7717    8.9828 C   0  0  0  0  0  0  0  0  0  0  0  0
   -1.1602    3.7439    9.9028 C   0  0  0  0  0  0  0  0  0  0  0  0
   -0.1465    4.4782   10.5311 C   0  0  0  0  0  0  0  0  0  0  0  0
    1.1821    4.1665   10.1732 C   0  0  0  0  0  0  0  0  0  0  0  0
    2.8031    2.8517    8.7460 C   0  0  0  0  0  0  0  0  0  0  0  0
    2.6015    1.9939    7.5895 F   0  0  0  0  0  0  0  0  0  0  0  0
    3.6214    2.0045    9.4649 F   0  0  0  0  0  0  0  0  0  0  0  0
    3.4805    3.9349    8.1630 F   0  0  0  0  0  0  0  0  0  0  0  0
   -2.0537    2.0427    8.3553 C   0  0  0  0  0  0  0  0  0  0  0  0
   -2.9251    2.9424    7.7537 F   0  0  0  0  0  0  0  0  0  0  0  0
   -1.5835    1.1103    7.4650 F   0  0  0  0  0  0  0  0  0  0  0  0
   -2.7413    1.3761    9.3414 F   0  0  0  0  0  0  0  0  0  0  0  0
   -0.5337    5.5786   11.4183 C   0  0  0  0  0  0  0  0  0  0  0  0
   -0.0132    6.8018   11.0066 F   0  0  0  0  0  0  0  0  0  0  0  0
   -0.6165    5.3838   12.7416 F   0  0  0  0  0  0  0  0  0  0  0  0
   -1.9257    5.8430   11.1025 F   0  0  0  0  0  0  0  0  0  0  0  0
    2.3034    5.0359   12.7456 N   0  0  0  0  0  0  0  0  0  0  0  0
    2.2953    3.6483   13.3026 C   0  0  0  0  0  0  0  0  0  0  0  0
    2.7652    4.0049   14.7203 C   0  0  0  0  0  0  0  0  0  0  0  0
    4.1019    4.5903   14.2455 C   0  0  0  0  0  0  0  0  0  0  0  0
    3.5836    5.5789   13.2470 C   0  0  0  0  0  0  0  0  0  0  0  0
    2.8567    2.9110   15.6600 C   0  0  0  0  0  0  0  0  0  0  0  0
    3.5431    2.9946   16.8472 C   0  0  0  0  0  0  0  0  0  0  0  0
    3.5735    1.9021   17.6850 C   0  0  0  0  0  0  0  0  0  0  0  0
    2.9298    0.7086   17.3696 C   0  0  0  0  0  0  0  0  0  0  0  0
    2.9761   -0.6777   18.4109 Cl  0  0  0  0  0  0  0  0  0  0  0  0
    2.2448    0.6293   16.1843 C   0  0  0  0  0  0  0  0  0  0  0  0
    2.2170    1.7217   15.3546 C   0  0  0  0  0  0  0  0  0  0  0  0
    3.5006    6.9316   13.7224 C   0  0  0  0  0  0  0  0  0  0  0  0
    4.4381    7.4566   14.5763 C   0  0  0  0  0  0  0  0  0  0  0  0
    4.4027    8.7232   15.1157 C   0  0  0  0  0  0  0  0  0  0  0  0
    3.3569    9.5353   14.7909 C   0  0  0  0  0  0  0  0  0  0  0  0
    2.3667    9.0726   13.9283 C   0  0  0  0  0  0  0  0  0  0  0  0
    2.4553    7.7789   13.4075 C   0  0  0  0  0  0  0  0  0  0  0  0
  4 10  1  0  0  0
 10 11  1  0  0  0
 10 12  1  0  0  0
 10 13  1  0  0  0
  4  5  2  0  0  0
  5  6  1  0  0  0
  6 14  1  0  0  0
 14 15  1  0  0  0
 14 16  1  0  0  0
 14 17  1  0  0  0
  6  7  2  0  0  0
  7  8  1  0  0  0
  8 18  1  0  0  0
 18 19  1  0  0  0
 18 20  1  0  0  0
 18 21  1  0  0  0
  8  9  2  0  0  0
  9  1  1  0  0  0
  1  2  2  0  0  0
  1  3  2  0  0  0
  1 22  1  0  0  0
 22 23  1  0  0  0
 23 24  1  0  0  0
 24 27  1  0  0  0
 27 28  2  0  0  0
 28 29  1  0  0  0
 29 30  2  0  0  0
 30 31  1  0  0  0
 30 32  1  0  0  0
 32 33  2  0  0  0
 24 25  1  0  0  0
 25 26  1  0  0  0
 26 34  1  0  0  0
 34 35  2  0  0  0
 35 36  1  0  0  0
 36 37  2  0  0  0
 37 38  1  0  0  0
 38 39  2  0  0  0
  9  4  1  0  0  0
 26 22  1  0  0  0
 39 34  1  0  0  0
 33 27  1  0  0  0
M  END
> <minimizedAffinity>
-6.01754

> <CNNscore>
0.2733609378

> <CNNaffinity>
6.5722045898

> <CNN_VS>
1.7965840101

> <CNNaffinity_variance>
0.7231485248

$$$$
[H]c1c([H])c([H])c([C@]2([H])N(S(=O)(=O)c3c(C(F)(F)F)c([H])c(C(F)(F)F)c([H])c3C(F)(F)F)C([H])([H])[C@@]([H])(c3c([H])c([H])c(Cl)c([H])c3[H])C2([H])[H])c([H])c1[H]


 39 42  0  0  0  0  0  0  0  0999 V2000
    2.4322    3.0800   10.2188 S   0  0  0  0  0  0  0  0  0  0  0  0
    2.6942    4.1975    9.2580 O   0  0  0  0  0  0  0  0  0  0  0  0
    3.8229    2.4773   10.4298 O   0  0  0  0  0  0  0  0  0  0  0  0
    0.0021    2.1938    9.5826 C   0  0  0  0  0  0  0  0  0  0  0  0
   -0.8057    1.1812    9.0338 C   0  0  0  0  0  0  0  0  0  0  0  0
   -0.3757   -0.0336    8.6280 C   0  0  0  0  0  0  0  0  0  0  0  0
    0.9519   -0.2914    8.7651 C   0  0  0  0  0  0  0  0  0  0  0  0
    1.8674    0.6254    9.2968 C   0  0  0  0  0  0  0  0  0  0  0  0
    1.3559    1.8772    9.6987 C   0  0  0  0  0  0  0  0  0  0  0  0
   -0.6221    3.4141   10.0431 C   0  0  0  0  0  0  0  0  0  0  0  0
   -2.0427    3.2640    9.7722 F   0  0  0  0  0  0  0  0  0  0  0  0
   -0.4274    4.5977    9.3610 F   0  0  0  0  0  0  0  0  0  0  0  0
   -0.6282    3.5590   11.4399 F   0  0  0  0  0  0  0  0  0  0  0  0
   -1.2841   -1.0615    8.0618 C   0  0  0  0  0  0  0  0  0  0  0  0
   -1.4074   -0.8839    6.6892 F   0  0  0  0  0  0  0  0  0  0  0  0
   -0.8361   -2.3194    8.3782 F   0  0  0  0  0  0  0  0  0  0  0  0
   -2.5270   -0.9012    8.6267 F   0  0  0  0  0  0  0  0  0  0  0  0
    3.2510    0.1869    9.5000 C   0  0  0  0  0  0  0  0  0  0  0  0
    3.5933    0.1142   10.8469 F   0  0  0  0  0  0  0  0  0  0  0  0
    4.2177    0.5872    8.6627 F   0  0  0  0  0  0  0  0  0  0  0  0
    3.2370   -1.2385    9.2254 F   0  0  0  0  0  0  0  0  0  0  0  0
    2.2108    3.6785   11.8563 N   0  0  0  0  0  0  0  0  0  0  0  0
    2.5949    2.5873   12.8035 C   0  0  0  0  0  0  0  0  0  0  0  0
    2.9077    3.4803   14.0129 C   0  0  0  0  0  0  0  0  0  0  0  0
    4.0260    4.2462   13.2934 C   0  0  0  0  0  0  0  0  0  0  0  0
    3.2651    4.6897   12.0822 C   0  0  0  0  0  0  0  0  0  0  0  0
    3.2925    2.8018   15.2291 C   0  0  0  0  0  0  0  0  0  0  0  0
    2.8991    1.5209   15.5326 C   0  0  0  0  0  0  0  0  0  0  0  0
    3.3177    0.9507   16.7141 C   0  0  0  0  0  0  0  0  0  0  0  0
    4.1300    1.6305   17.6178 C   0  0  0  0  0  0  0  0  0  0  0  0
    4.6489    0.9265   19.1156 Cl  0  0  0  0  0  0  0  0  0  0  0  0
    4.5215    2.9084   17.3109 C   0  0  0  0  0  0  0  0  0  0  0  0
    4.1023    3.4703   16.1315 C   0  0  0  0  0  0  0  0  0  0  0  0
    2.7803    6.0406   12.1337 C   0  0  0  0  0  0  0  0  0  0  0  0
    3.5556    7.0693   12.6075 C   0  0  0  0  0  0  0  0  0  0  0  0
    3.1486    8.3786   12.7365 C   0  0  0  0  0  0  0  0  0  0  0  0
    1.8737    8.6981   12.3739 C   0  0  0  0  0  0  0  0  0  0  0  0
    1.0278    7.7073   11.8826 C   0  0  0  0  0  0  0  0  0  0  0  0
    1.4952    6.3952   11.7696 C   0  0  0  0  0  0  0  0  0  0  0  0
  4 10  1  0  0  0
 10 11  1  0  0  0
 10 12  1  0  0  0
 10 13  1  0  0  0
  4  5  2  0  0  0
  5  6  1  0  0  0
  6 14  1  0  0  0
 14 15  1  0  0  0
 14 16  1  0  0  0
 14 17  1  0  0  0
  6  7  2  0  0  0
  7  8  1  0  0  0
  8 18  1  0  0  0
 18 19  1  0  0  0
 18 20  1  0  0  0
 18 21  1  0  0  0
  8  9  2  0  0  0
  9  1  1  0  0  0
  1  2  2  0  0  0
  1  3  2  0  0  0
  1 22  1  0  0  0
 22 23  1  0  0  0
 23 24  1  0  0  0
 24 27  1  0  0  0
 27 28  2  0  0  0
 28 29  1  0  0  0
 29 30  2  0  0  0
 30 31  1  0  0  0
 30 32  1  0  0  0
 32 33  2  0  0  0
 24 25  1  0  0  0
 25 26  1  0  0  0
 26 34  1  0  0  0
 34 35  2  0  0  0
 35 36  1  0  0  0
 36 37  2  0  0  0
 37 38  1  0  0  0
 38 39  2  0  0  0
  9  4  1  0  0  0
 26 22  1  0  0  0
 39 34  1  0  0  0
 33 27  1  0  0  0
M  END
> <minimizedAffinity>
-6.59783

> <CNNscore>
0.2369790226

> <CNNaffinity>
6.4250402451

> <CNN_VS>
1.5225998163

> <CNNaffinity_variance>
0.4948107600

$$$$
[H]c1c([H])c([H])c([C@]2([H])N(S(=O)(=O)c3c(C(F)(F)F)c([H])c(C(F)(F)F)c([H])c3C(F)(F)F)C([H])([H])[C@@]([H])(c3c([H])c([H])c(Cl)c([H])c3[H])C2([H])[H])c([H])c1[H]


 39 42  0  0  0  0  0  0  0  0999 V2000
    3.8134    5.6940   19.4716 S   0  0  0  0  0  0  0  0  0  0  0  0
    3.4523    6.9035   18.6671 O   0  0  0  0  0  0  0  0  0  0  0  0
    2.6668    5.5996   20.4808 O   0  0  0  0  0  0  0  0  0  0  0  0
    6.3989    6.3114   19.6427 C   0  0  0  0  0  0  0  0  0  0  0  0
    7.5603    6.4286   20.4279 C   0  0  0  0  0  0  0  0  0  0  0  0
    7.6782    6.0465   21.7184 C   0  0  0  0  0  0  0  0  0  0  0  0
    6.5762    5.5037   22.3003 C   0  0  0  0  0  0  0  0  0  0  0  0
    5.3568    5.3275   21.6345 C   0  0  0  0  0  0  0  0  0  0  0  0
    5.2977    5.7499   20.2897 C   0  0  0  0  0  0  0  0  0  0  0  0
    6.4547    6.6944   18.2495 C   0  0  0  0  0  0  0  0  0  0  0  0
    7.7483    7.3308   18.0608 F   0  0  0  0  0  0  0  0  0  0  0  0
    5.6698    7.7266   17.7778 F   0  0  0  0  0  0  0  0  0  0  0  0
    6.5567    5.6092   17.3640 F   0  0  0  0  0  0  0  0  0  0  0  0
    8.9377    6.1928   22.4896 C   0  0  0  0  0  0  0  0  0  0  0  0
    8.6561    6.5960   23.7891 F   0  0  0  0  0  0  0  0  0  0  0  0
    9.6535    5.0224   22.4592 F   0  0  0  0  0  0  0  0  0  0  0  0
    9.7001    7.1698   21.8948 F   0  0  0  0  0  0  0  0  0  0  0  0
    4.2781    4.6247   22.3349 C   0  0  0  0  0  0  0  0  0  0  0  0
    3.9309    3.4292   21.7129 F   0  0  0  0  0  0  0  0  0  0  0  0
    3.2763    5.3132   22.8989 F   0  0  0  0  0  0  0  0  0  0  0  0
    4.9049    4.0559   23.5142 F   0  0  0  0  0  0  0  0  0  0  0  0
    3.4509    4.2109   18.6011 N   0  0  0  0  0  0  0  0  0  0  0  0
    3.2081    4.5631   17.1684 C   0  0  0  0  0  0  0  0  0  0  0  0
    3.5306    3.1854   16.5719 C   0  0  0  0  0  0  0  0  0  0  0  0
    4.9766    3.1828   17.0854 C   0  0  0  0  0  0  0  0  0  0  0  0
    4.7109    3.4407   18.5365 C   0  0  0  0  0  0  0  0  0  0  0  0
    3.3712    3.0521   15.1419 C   0  0  0  0  0  0  0  0  0  0  0  0
    2.7260    1.9919   14.5526 C   0  0  0  0  0  0  0  0  0  0  0  0
    2.6170    1.9493   13.1805 C   0  0  0  0  0  0  0  0  0  0  0  0
    3.1410    2.9482   12.3643 C   0  0  0  0  0  0  0  0  0  0  0  0
    3.0227    2.8949   10.6348 Cl  0  0  0  0  0  0  0  0  0  0  0  0
    3.7832    4.0053   12.9563 C   0  0  0  0  0  0  0  0  0  0  0  0
    3.8872    4.0427   14.3239 C   0  0  0  0  0  0  0  0  0  0  0  0
    4.7272    2.2722   19.3713 C   0  0  0  0  0  0  0  0  0  0  0  0
    3.6626    1.4078   19.4258 C   0  0  0  0  0  0  0  0  0  0  0  0
    3.5797    0.2971   20.2357 C   0  0  0  0  0  0  0  0  0  0  0  0
    4.6285    0.0193   21.0613 C   0  0  0  0  0  0  0  0  0  0  0  0
    5.7454    0.8507   21.0608 C   0  0  0  0  0  0  0  0  0  0  0  0
    5.7768    1.9628   20.2152 C   0  0  0  0  0  0  0  0  0  0  0  0
  4 10  1  0  0  0
 10 11  1  0  0  0
 10 12  1  0  0  0
 10 13  1  0  0  0
  4  5  2  0  0  0
  5  6  1  0  0  0
  6 14  1  0  0  0
 14 15  1  0  0  0
 14 16  1  0  0  0
 14 17  1  0  0  0
  6  7  2  0  0  0
  7  8  1  0  0  0
  8 18  1  0  0  0
 18 19  1  0  0  0
 18 20  1  0  0  0
 18 21  1  0  0  0
  8  9  2  0  0  0
  9  1  1  0  0  0
  1  2  2  0  0  0
  1  3  2  0  0  0
  1 22  1  0  0  0
 22 23  1  0  0  0
 23 24  1  0  0  0
 24 27  1  0  0  0
 27 28  2  0  0  0
 28 29  1  0  0  0
 29 30  2  0  0  0
 30 31  1  0  0  0
 30 32  1  0  0  0
 32 33  2  0  0  0
 24 25  1  0  0  0
 25 26  1  0  0  0
 26 34  1  0  0  0
 34 35  2  0  0  0
 35 36  1  0  0  0
 36 37  2  0  0  0
 37 38  1  0  0  0
 38 39  2  0  0  0
  9  4  1  0  0  0
 26 22  1  0  0  0
 39 34  1  0  0  0
 33 27  1  0  0  0
M  END
> <minimizedAffinity>
-9.45492

> <CNNscore>
0.2278660089

> <CNNaffinity>
6.7190122604

> <CNN_VS>
1.5310344696

> <CNNaffinity_variance>
0.4724484980

$$$$
[H]c1c([H])c([H])c([C@]2([H])N(S(=O)(=O)c3c(C(F)(F)F)c([H])c(C(F)(F)F)c([H])c3C(F)(F)F)C([H])([H])[C@@]([H])(c3c([H])c([H])c(Cl)c([H])c3[H])C2([H])[H])c([H])c1[H]


 39 42  0  0  0  0  0  0  0  0999 V2000
    3.8363    5.8243   19.5625 S   0  0  0  0  0  0  0  0  0  0  0  0
    3.4569    7.0389   18.7741 O   0  0  0  0  0  0  0  0  0  0  0  0
    2.6784    5.6842   20.5534 O   0  0  0  0  0  0  0  0  0  0  0  0
    5.4034    5.2742   21.6451 C   0  0  0  0  0  0  0  0  0  0  0  0
    6.6860    5.2817   22.2231 C   0  0  0  0  0  0  0  0  0  0  0  0
    7.7905    5.8365   21.6776 C   0  0  0  0  0  0  0  0  0  0  0  0
    7.6413    6.4367   20.4671 C   0  0  0  0  0  0  0  0  0  0  0  0
    6.4220    6.5029   19.7813 C   0  0  0  0  0  0  0  0  0  0  0  0
    5.3073    5.9016   20.4027 C   0  0  0  0  0  0  0  0  0  0  0  0
    4.3028    4.7071   22.3919 C   0  0  0  0  0  0  0  0  0  0  0  0
    4.8817    4.1717   23.6135 F   0  0  0  0  0  0  0  0  0  0  0  0
    3.6864    3.5518   21.9569 F   0  0  0  0  0  0  0  0  0  0  0  0
    3.4144    5.6628   22.9113 F   0  0  0  0  0  0  0  0  0  0  0  0
    9.1159    5.8147   22.3449 C   0  0  0  0  0  0  0  0  0  0  0  0
    9.8245    6.9687   22.0340 F   0  0  0  0  0  0  0  0  0  0  0  0
    8.9648    5.6546   23.6993 F   0  0  0  0  0  0  0  0  0  0  0  0
    9.8241    4.7371   21.8685 F   0  0  0  0  0  0  0  0  0  0  0  0
    6.3653    7.2779   18.5386 C   0  0  0  0  0  0  0  0  0  0  0  0
    5.8275    8.5474   18.7278 F   0  0  0  0  0  0  0  0  0  0  0  0
    6.0712    6.6755   17.3782 F   0  0  0  0  0  0  0  0  0  0  0  0
    7.7363    7.6828   18.2861 F   0  0  0  0  0  0  0  0  0  0  0  0
    3.5224    4.3487   18.6611 N   0  0  0  0  0  0  0  0  0  0  0  0
    3.2945    4.7199   17.2307 C   0  0  0  0  0  0  0  0  0  0  0  0
    3.6585    3.3605   16.6164 C   0  0  0  0  0  0  0  0  0  0  0  0
    5.0958    3.3822   17.1535 C   0  0  0  0  0  0  0  0  0  0  0  0
    4.8008    3.6088   18.6042 C   0  0  0  0  0  0  0  0  0  0  0  0
    3.5253    3.2484   15.1819 C   0  0  0  0  0  0  0  0  0  0  0  0
    3.9601    4.2154   14.3083 C   0  0  0  0  0  0  0  0  0  0  0  0
    3.7958    4.0221   12.9548 C   0  0  0  0  0  0  0  0  0  0  0  0
    3.2007    2.8747   12.4372 C   0  0  0  0  0  0  0  0  0  0  0  0
    2.9750    2.6297   10.7350 Cl  0  0  0  0  0  0  0  0  0  0  0  0
    2.7690    1.9113   13.3123 C   0  0  0  0  0  0  0  0  0  0  0  0
    2.9369    2.1092   14.6595 C   0  0  0  0  0  0  0  0  0  0  0  0
    4.8308    2.4267   19.4192 C   0  0  0  0  0  0  0  0  0  0  0  0
    3.8014    1.5189   19.4144 C   0  0  0  0  0  0  0  0  0  0  0  0
    3.7310    0.3910   20.2014 C   0  0  0  0  0  0  0  0  0  0  0  0
    4.7554    0.1408   21.0656 C   0  0  0  0  0  0  0  0  0  0  0  0
    5.8361    1.0166   21.1260 C   0  0  0  0  0  0  0  0  0  0  0  0
    5.8565    2.1445   20.3012 C   0  0  0  0  0  0  0  0  0  0  0  0
  4 10  1  0  0  0
 10 11  1  0  0  0
 10 12  1  0  0  0
 10 13  1  0  0  0
  4  5  2  0  0  0
  5  6  1  0  0  0
  6 14  1  0  0  0
 14 15  1  0  0  0
 14 16  1  0  0  0
 14 17  1  0  0  0
  6  7  2  0  0  0
  7  8  1  0  0  0
  8 18  1  0  0  0
 18 19  1  0  0  0
 18 20  1  0  0  0
 18 21  1  0  0  0
  8  9  2  0  0  0
  9  1  1  0  0  0
  1  2  2  0  0  0
  1  3  2  0  0  0
  1 22  1  0  0  0
 22 23  1  0  0  0
 23 24  1  0  0  0
 24 27  1  0  0  0
 27 28  2  0  0  0
 28 29  1  0  0  0
 29 30  2  0  0  0
 30 31  1  0  0  0
 30 32  1  0  0  0
 32 33  2  0  0  0
 24 25  1  0  0  0
 25 26  1  0  0  0
 26 34  1  0  0  0
 34 35  2  0  0  0
 35 36  1  0  0  0
 36 37  2  0  0  0
 37 38  1  0  0  0
 38 39  2  0  0  0
  9  4  1  0  0  0
 26 22  1  0  0  0
 39 34  1  0  0  0
 33 27  1  0  0  0
M  END
> <minimizedAffinity>
-8.84079

> <CNNscore>
0.2049306184

> <CNNaffinity>
6.6609659195

> <CNN_VS>
1.3650358915

> <CNNaffinity_variance>
0.4885606170

$$$$
[H]c1c([H])c(C(F)(F)F)c([H])c([H])c1C(=O)N1C([H])([H])C([H])([H])C([H])([H])[C@@]1([H])C(=O)N([H])[C@]([H])(C([H])([H])[H])C(F)(F)F


 27 28  0  0  0  0  0  0  0  0999 V2000
    0.9315    6.3414   11.4489 C   0  0  0  0  0  0  0  0  0  0  0  0
    0.3765    7.5439   12.1834 C   0  0  0  0  0  0  0  0  0  0  0  0
    1.5911    7.9954   12.9696 C   0  0  0  0  0  0  0  0  0  0  0  0
    2.2445    6.6636   13.3172 C   0  0  0  0  0  0  0  0  0  0  0  0
    1.6123    5.6419   12.5212 N   0  0  0  0  0  0  0  0  0  0  0  0
    1.6368    4.2436   12.6560 C   0  0  0  0  0  0  0  0  0  0  0  0
    1.0950    3.5009   11.7622 O   0  0  0  0  0  0  0  0  0  0  0  0
    2.2503    3.5712   13.7830 C   0  0  0  0  0  0  0  0  0  0  0  0
    3.2433    4.1302   14.5546 C   0  0  0  0  0  0  0  0  0  0  0  0
    3.7880    3.4274   15.6117 C   0  0  0  0  0  0  0  0  0  0  0  0
    3.3640    2.1425   15.9309 C   0  0  0  0  0  0  0  0  0  0  0  0
    2.3589    1.5827   15.1426 C   0  0  0  0  0  0  0  0  0  0  0  0
    1.8059    2.2873   14.0836 C   0  0  0  0  0  0  0  0  0  0  0  0
    3.9553    1.3882   17.0723 C   0  0  0  0  0  0  0  0  0  0  0  0
    3.7311    0.0275   16.8889 F   0  0  0  0  0  0  0  0  0  0  0  0
    5.2642    1.7112   17.2886 F   0  0  0  0  0  0  0  0  0  0  0  0
    3.2180    1.7363   18.2287 F   0  0  0  0  0  0  0  0  0  0  0  0
    1.5898    7.7244    9.4340 N   0  0  0  0  0  0  0  0  0  0  0  0
    1.8044    6.6566   10.3185 C   0  0  0  0  0  0  0  0  0  0  0  0
    2.8150    5.9119   10.1269 O   0  0  0  0  0  0  0  0  0  0  0  0
    0.7538    8.3469    9.6744 H   0  0  0  0  0  0  0  0  0  0  0  0
    2.4728    9.6196    8.0647 C   0  0  0  0  0  0  0  0  0  0  0  0
    2.2992    8.1294    8.2806 C   0  0  0  0  0  0  0  0  0  0  0  0
    1.8464    7.5425    6.9819 C   0  0  0  0  0  0  0  0  0  0  0  0
    1.9842    6.1487    6.9597 F   0  0  0  0  0  0  0  0  0  0  0  0
    2.6408    8.0329    5.9310 F   0  0  0  0  0  0  0  0  0  0  0  0
    0.5534    7.8647    6.6677 F   0  0  0  0  0  0  0  0  0  0  0  0
 22 23  1  0  0  0
 23 18  1  0  0  0
 18 19  1  0  0  0
 19 20  2  0  0  0
 19  1  1  0  0  0
  1  2  1  0  0  0
  2  3  1  0  0  0
  3  4  1  0  0  0
  4  5  1  0  0  0
  5  6  1  0  0  0
  6  7  2  0  0  0
  6  8  1  0  0  0
  8  9  2  0  0  0
  9 10  1  0  0  0
 10 11  2  0  0  0
 11 12  1  0  0  0
 12 13  2  0  0  0
 11 14  1  0  0  0
 14 15  1  0  0  0
 14 16  1  0  0  0
 14 17  1  0  0  0
 23 24  1  0  0  0
 24 25  1  0  0  0
 24 26  1  0  0  0
 24 27  1  0  0  0
  5  1  1  0  0  0
 13  8  1  0  0  0
 18 21  1  0  0  0
M  END
> <minimizedAffinity>
-6.01429

> <CNNscore>
0.4342457652

> <CNNaffinity>
4.6518783569

> <CNN_VS>
2.0200583935

> <CNNaffinity_variance>
0.1915651858

$$$$
[H]c1c([H])c(C(F)(F)F)c([H])c([H])c1C(=O)N1C([H])([H])C([H])([H])C([H])([H])[C@@]1([H])C(=O)N([H])[C@]([H])(C([H])([H])[H])C(F)(F)F


 27 28  0  0  0  0  0  0  0  0999 V2000
    4.0073    7.3198   16.6540 C   0  0  0  0  0  0  0  0  0  0  0  0
    4.9295    8.3558   17.2621 C   0  0  0  0  0  0  0  0  0  0  0  0
    6.2620    7.6360   17.2015 C   0  0  0  0  0  0  0  0  0  0  0  0
    5.8460    6.1961   17.4753 C   0  0  0  0  0  0  0  0  0  0  0  0
    4.4105    6.1247   17.3692 N   0  0  0  0  0  0  0  0  0  0  0  0
    3.5189    5.1267   17.7970 C   0  0  0  0  0  0  0  0  0  0  0  0
    2.2743    5.2041   17.4987 O   0  0  0  0  0  0  0  0  0  0  0  0
    3.9340    3.9842   18.5852 C   0  0  0  0  0  0  0  0  0  0  0  0
    4.1199    2.7251   18.0618 C   0  0  0  0  0  0  0  0  0  0  0  0
    4.5107    1.6793   18.8751 C   0  0  0  0  0  0  0  0  0  0  0  0
    4.7242    1.8535   20.2377 C   0  0  0  0  0  0  0  0  0  0  0  0
    4.5315    3.1321   20.7604 C   0  0  0  0  0  0  0  0  0  0  0  0
    4.1441    4.1858   19.9459 C   0  0  0  0  0  0  0  0  0  0  0  0
    5.1453    0.7217   21.1111 C   0  0  0  0  0  0  0  0  0  0  0  0
    4.2439   -0.3284   20.9690 F   0  0  0  0  0  0  0  0  0  0  0  0
    6.4483    0.3659   20.9115 F   0  0  0  0  0  0  0  0  0  0  0  0
    5.0067    1.1551   22.4509 F   0  0  0  0  0  0  0  0  0  0  0  0
    3.7266    6.0331   14.4926 N   0  0  0  0  0  0  0  0  0  0  0  0
    4.1035    7.1841   15.2009 C   0  0  0  0  0  0  0  0  0  0  0  0
    4.5619    8.1699   14.5446 O   0  0  0  0  0  0  0  0  0  0  0  0
    3.3004    5.2557   15.0912 H   0  0  0  0  0  0  0  0  0  0  0  0
    2.6804    6.2381   12.2320 C   0  0  0  0  0  0  0  0  0  0  0  0
    3.8013    5.7266   13.1149 C   0  0  0  0  0  0  0  0  0  0  0  0
    4.0213    4.2895   12.7650 C   0  0  0  0  0  0  0  0  0  0  0  0
    5.1455    4.1148   11.9477 F   0  0  0  0  0  0  0  0  0  0  0  0
    2.9244    3.8004   12.0346 F   0  0  0  0  0  0  0  0  0  0  0  0
    4.1421    3.4808   13.8630 F   0  0  0  0  0  0  0  0  0  0  0  0
 22 23  1  0  0  0
 23 18  1  0  0  0
 18 19  1  0  0  0
 19 20  2  0  0  0
 19  1  1  0  0  0
  1  2  1  0  0  0
  2  3  1  0  0  0
  3  4  1  0  0  0
  4  5  1  0  0  0
  5  6  1  0  0  0
  6  7  2  0  0  0
  6  8  1  0  0  0
  8  9  2  0  0  0
  9 10  1  0  0  0
 10 11  2  0  0  0
 11 12  1  0  0  0
 12 13  2  0  0  0
 11 14  1  0  0  0
 14 15  1  0  0  0
 14 16  1  0  0  0
 14 17  1  0  0  0
 23 24  1  0  0  0
 24 25  1  0  0  0
 24 26  1  0  0  0
 24 27  1  0  0  0
  5  1  1  0  0  0
 13  8  1  0  0  0
 18 21  1  0  0  0
M  END
> <minimizedAffinity>
-7.29648

> <CNNscore>
0.4196082652

> <CNNaffinity>
5.5011472702

> <CNN_VS>
2.3083269596

> <CNNaffinity_variance>
0.3121626675

$$$$
[H]c1c([H])c(C(F)(F)F)c([H])c([H])c1C(=O)N1C([H])([H])C([H])([H])C([H])([H])[C@@]1([H])C(=O)N([H])[C@]([H])(C([H])([H])[H])C(F)(F)F


 27 28  0  0  0  0  0  0  0  0999 V2000
    3.1588    3.8601   14.2316 C   0  0  0  0  0  0  0  0  0  0  0  0
    2.9894    2.5876   13.4283 C   0  0  0  0  0  0  0  0  0  0  0  0
    1.8894    1.8926   14.2055 C   0  0  0  0  0  0  0  0  0  0  0  0
    2.2293    2.2861   15.6376 C   0  0  0  0  0  0  0  0  0  0  0  0
    3.2125    3.3386   15.5835 N   0  0  0  0  0  0  0  0  0  0  0  0
    4.0524    3.8464   16.5887 C   0  0  0  0  0  0  0  0  0  0  0  0
    4.7820    4.8755   16.3594 O   0  0  0  0  0  0  0  0  0  0  0  0
    4.1514    3.2536   17.9069 C   0  0  0  0  0  0  0  0  0  0  0  0
    4.1104    3.9816   19.0741 C   0  0  0  0  0  0  0  0  0  0  0  0
    4.2175    3.3496   20.2977 C   0  0  0  0  0  0  0  0  0  0  0  0
    4.3738    1.9719   20.3975 C   0  0  0  0  0  0  0  0  0  0  0  0
    4.4164    1.2420   19.2098 C   0  0  0  0  0  0  0  0  0  0  0  0
    4.3041    1.8724   17.9795 C   0  0  0  0  0  0  0  0  0  0  0  0
    4.4893    1.2948   21.7201 C   0  0  0  0  0  0  0  0  0  0  0  0
    4.2453   -0.0657   21.5626 F   0  0  0  0  0  0  0  0  0  0  0  0
    5.6670    1.5785   22.3501 F   0  0  0  0  0  0  0  0  0  0  0  0
    3.4306    1.7737   22.5275 F   0  0  0  0  0  0  0  0  0  0  0  0
    1.5301    5.1604   12.7953 N   0  0  0  0  0  0  0  0  0  0  0  0
    2.1067    4.8575   14.0381 C   0  0  0  0  0  0  0  0  0  0  0  0
    1.6966    5.4895   15.0603 O   0  0  0  0  0  0  0  0  0  0  0  0
    1.8780    4.5617   11.9799 H   0  0  0  0  0  0  0  0  0  0  0  0
    0.8446    7.5638   12.7808 C   0  0  0  0  0  0  0  0  0  0  0  0
    0.5541    6.1169   12.4349 C   0  0  0  0  0  0  0  0  0  0  0  0
   -0.8485    5.8302   12.8671 C   0  0  0  0  0  0  0  0  0  0  0  0
   -1.1428    4.4615   12.8193 F   0  0  0  0  0  0  0  0  0  0  0  0
   -1.7564    6.4581   11.9968 F   0  0  0  0  0  0  0  0  0  0  0  0
   -1.1317    6.3005   14.1212 F   0  0  0  0  0  0  0  0  0  0  0  0
 22 23  1  0  0  0
 23 18  1  0  0  0
 18 19  1  0  0  0
 19 20  2  0  0  0
 19  1  1  0  0  0
  1  2  1  0  0  0
  2  3  1  0  0  0
  3  4  1  0  0  0
  4  5  1  0  0  0
  5  6  1  0  0  0
  6  7  2  0  0  0
  6  8  1  0  0  0
  8  9  2  0  0  0
  9 10  1  0  0  0
 10 11  2  0  0  0
 11 12  1  0  0  0
 12 13  2  0  0  0
 11 14  1  0  0  0
 14 15  1  0  0  0
 14 16  1  0  0  0
 14 17  1  0  0  0
 23 24  1  0  0  0
 24 25  1  0  0  0
 24 26  1  0  0  0
 24 27  1  0  0  0
  5  1  1  0  0  0
 13  8  1  0  0  0
 18 21  1  0  0  0
M  END
> <minimizedAffinity>
-7.54056

> <CNNscore>
0.4050293863

> <CNNaffinity>
5.1978540421

> <CNN_VS>
2.1052837372

> <CNNaffinity_variance>
0.3763104677

$$$$
[H]c1c([H])c(C(F)(F)F)c([H])c([H])c1C(=O)N1C([H])([H])C([H])([H])C([H])([H])[C@@]1([H])C(=O)N([H])[C@]([H])(C([H])([H])[H])C(F)(F)F


 27 28  0  0  0  0  0  0  0  0999 V2000
    4.5881    4.0408   17.2845 C   0  0  0  0  0  0  0  0  0  0  0  0
    4.6986    5.2405   18.2020 C   0  0  0  0  0  0  0  0  0  0  0  0
    3.2709    5.3669   18.6950 C   0  0  0  0  0  0  0  0  0  0  0  0
    2.4812    4.9626   17.4563 C   0  0  0  0  0  0  0  0  0  0  0  0
    3.4045    4.3769   16.5173 N   0  0  0  0  0  0  0  0  0  0  0  0
    3.2545    4.1089   15.1463 C   0  0  0  0  0  0  0  0  0  0  0  0
    4.1666    3.4694   14.5115 O   0  0  0  0  0  0  0  0  0  0  0  0
    2.0982    4.5316   14.3826 C   0  0  0  0  0  0  0  0  0  0  0  0
    1.4446    3.7234   13.4806 C   0  0  0  0  0  0  0  0  0  0  0  0
    0.3509    4.1958   12.7815 C   0  0  0  0  0  0  0  0  0  0  0  0
   -0.1238    5.4907   12.9552 C   0  0  0  0  0  0  0  0  0  0  0  0
    0.5457    6.3037   13.8695 C   0  0  0  0  0  0  0  0  0  0  0  0
    1.6410    5.8314   14.5771 C   0  0  0  0  0  0  0  0  0  0  0  0
   -1.3041    5.9958   12.1980 C   0  0  0  0  0  0  0  0  0  0  0  0
   -1.9549    6.9649   12.9548 F   0  0  0  0  0  0  0  0  0  0  0  0
   -0.9789    6.4025   10.9359 F   0  0  0  0  0  0  0  0  0  0  0  0
   -2.2220    4.9241   12.0934 F   0  0  0  0  0  0  0  0  0  0  0  0
    4.8623    2.5345   19.2999 N   0  0  0  0  0  0  0  0  0  0  0  0
    4.4889    2.7499   17.9647 C   0  0  0  0  0  0  0  0  0  0  0  0
    4.0413    1.7647   17.3000 O   0  0  0  0  0  0  0  0  0  0  0  0
    5.1832    3.4100   19.8242 H   0  0  0  0  0  0  0  0  0  0  0  0
    3.5435    0.8637   20.6098 C   0  0  0  0  0  0  0  0  0  0  0  0
    4.8756    1.3561   20.0801 C   0  0  0  0  0  0  0  0  0  0  0  0
    5.8451    1.3237   21.2181 C   0  0  0  0  0  0  0  0  0  0  0  0
    6.7125    0.2266   21.1372 F   0  0  0  0  0  0  0  0  0  0  0  0
    5.1530    1.1887   22.4341 F   0  0  0  0  0  0  0  0  0  0  0  0
    6.5881    2.4686   21.3248 F   0  0  0  0  0  0  0  0  0  0  0  0
 22 23  1  0  0  0
 23 18  1  0  0  0
 18 19  1  0  0  0
 19 20  2  0  0  0
 19  1  1  0  0  0
  1  2  1  0  0  0
  2  3  1  0  0  0
  3  4  1  0  0  0
  4  5  1  0  0  0
  5  6  1  0  0  0
  6  7  2  0  0  0
  6  8  1  0  0  0
  8  9  2  0  0  0
  9 10  1  0  0  0
 10 11  2  0  0  0
 11 12  1  0  0  0
 12 13  2  0  0  0
 11 14  1  0  0  0
 14 15  1  0  0  0
 14 16  1  0  0  0
 14 17  1  0  0  0
 23 24  1  0  0  0
 24 25  1  0  0  0
 24 26  1  0  0  0
 24 27  1  0  0  0
  5  1  1  0  0  0
 13  8  1  0  0  0
 18 21  1  0  0  0
M  END
> <minimizedAffinity>
-7.15410

> <CNNscore>
0.4013663828

> <CNNaffinity>
5.1736140251

> <CNN_VS>
2.0765147209

> <CNNaffinity_variance>
0.4548652172

$$$$
[H]c1c([H])c(C(F)(F)F)c([H])c([H])c1C(=O)N1C([H])([H])C([H])([H])C([H])([H])[C@@]1([H])C(=O)N([H])[C@]([H])(C([H])([H])[H])C(F)(F)F


 27 28  0  0  0  0  0  0  0  0999 V2000
    3.3712    3.7950   15.2017 C   0  0  0  0  0  0  0  0  0  0  0  0
    3.3804    2.4859   14.4404 C   0  0  0  0  0  0  0  0  0  0  0  0
    2.3724    1.6773   15.2324 C   0  0  0  0  0  0  0  0  0  0  0  0
    2.6408    2.1583   16.6530 C   0  0  0  0  0  0  0  0  0  0  0  0
    3.4773    3.3291   16.5707 N   0  0  0  0  0  0  0  0  0  0  0  0
    4.2311    3.9757   17.5644 C   0  0  0  0  0  0  0  0  0  0  0  0
    4.8214    5.0842   17.3060 O   0  0  0  0  0  0  0  0  0  0  0  0
    4.3918    3.4441   18.9025 C   0  0  0  0  0  0  0  0  0  0  0  0
    4.7706    2.1476   19.1663 C   0  0  0  0  0  0  0  0  0  0  0  0
    4.8977    1.7065   20.4691 C   0  0  0  0  0  0  0  0  0  0  0  0
    4.6467    2.5421   21.5513 C   0  0  0  0  0  0  0  0  0  0  0  0
    4.2613    3.8537   21.2751 C   0  0  0  0  0  0  0  0  0  0  0  0
    4.1375    4.3017   19.9684 C   0  0  0  0  0  0  0  0  0  0  0  0
    4.7848    2.0612   22.9552 C   0  0  0  0  0  0  0  0  0  0  0  0
    3.8850    1.0233   23.1760 F   0  0  0  0  0  0  0  0  0  0  0  0
    6.0759    1.7546   23.2768 F   0  0  0  0  0  0  0  0  0  0  0  0
    4.3575    3.1127   23.8001 F   0  0  0  0  0  0  0  0  0  0  0  0
    1.5541    4.7590   13.7269 N   0  0  0  0  0  0  0  0  0  0  0  0
    2.1992    4.6378   14.9669 C   0  0  0  0  0  0  0  0  0  0  0  0
    1.7441    5.3033   15.9482 O   0  0  0  0  0  0  0  0  0  0  0  0
    1.9493    4.1372   12.9514 H   0  0  0  0  0  0  0  0  0  0  0  0
   -0.4766    4.9719   12.2854 C   0  0  0  0  0  0  0  0  0  0  0  0
    0.4577    5.5559   13.3264 C   0  0  0  0  0  0  0  0  0  0  0  0
    0.7727    6.9556   12.9047 C   0  0  0  0  0  0  0  0  0  0  0  0
    1.0128    7.7926   14.0020 F   0  0  0  0  0  0  0  0  0  0  0  0
   -0.3238    7.5087   12.2208 F   0  0  0  0  0  0  0  0  0  0  0  0
    1.8376    7.0325   12.0477 F   0  0  0  0  0  0  0  0  0  0  0  0
 22 23  1  0  0  0
 23 18  1  0  0  0
 18 19  1  0  0  0
 19 20  2  0  0  0
 19  1  1  0  0  0
  1  2  1  0  0  0
  2  3  1  0  0  0
  3  4  1  0  0  0
  4  5  1  0  0  0
  5  6  1  0  0  0
  6  7  2  0  0  0
  6  8  1  0  0  0
  8  9  2  0  0  0
  9 10  1  0  0  0
 10 11  2  0  0  0
 11 12  1  0  0  0
 12 13  2  0  0  0
 11 14  1  0  0  0
 14 15  1  0  0  0
 14 16  1  0  0  0
 14 17  1  0  0  0
 23 24  1  0  0  0
 24 25  1  0  0  0
 24 26  1  0  0  0
 24 27  1  0  0  0
  5  1  1  0  0  0
 13  8  1  0  0  0
 18 21  1  0  0  0
M  END
> <minimizedAffinity>
-7.63102

> <CNNscore>
0.3951974213

> <CNNaffinity>
5.3154211044

> <CNN_VS>
2.1006407738

> <CNNaffinity_variance>
0.2491802722

$$$$
[H]c1c([H])c(C(F)(F)F)c([H])c([H])c1C(=O)N1C([H])([H])C([H])([H])C([H])([H])[C@@]1([H])C(=O)N([H])[C@]([H])(C([H])([H])[H])C(F)(F)F


 27 28  0  0  0  0  0  0  0  0999 V2000
    4.9869    8.5250   17.8959 C   0  0  0  0  0  0  0  0  0  0  0  0
    6.1990    9.3110   18.3501 C   0  0  0  0  0  0  0  0  0  0  0  0
    7.3245    8.3904   17.9221 C   0  0  0  0  0  0  0  0  0  0  0  0
    6.7109    7.0184   18.1718 C   0  0  0  0  0  0  0  0  0  0  0  0
    5.2997    7.2021   18.4003 N   0  0  0  0  0  0  0  0  0  0  0  0
    4.3483    6.3238   18.9456 C   0  0  0  0  0  0  0  0  0  0  0  0
    3.1069    6.6441   18.9547 O   0  0  0  0  0  0  0  0  0  0  0  0
    4.6986    5.0417   19.5221 C   0  0  0  0  0  0  0  0  0  0  0  0
    4.5064    3.8399   18.8795 C   0  0  0  0  0  0  0  0  0  0  0  0
    4.8584    2.6536   19.4933 C   0  0  0  0  0  0  0  0  0  0  0  0
    5.4087    2.6262   20.7695 C   0  0  0  0  0  0  0  0  0  0  0  0
    5.5981    3.8483   21.4144 C   0  0  0  0  0  0  0  0  0  0  0  0
    5.2507    5.0419   20.7994 C   0  0  0  0  0  0  0  0  0  0  0  0
    5.7864    1.3434   21.4276 C   0  0  0  0  0  0  0  0  0  0  0  0
    4.6396    0.7169   21.9050 F   0  0  0  0  0  0  0  0  0  0  0  0
    6.5578    0.5528   20.6250 F   0  0  0  0  0  0  0  0  0  0  0  0
    6.5402    1.6717   22.5791 F   0  0  0  0  0  0  0  0  0  0  0  0
    3.8435    7.6937   15.7965 N   0  0  0  0  0  0  0  0  0  0  0  0
    4.7385    8.5504   16.4548 C   0  0  0  0  0  0  0  0  0  0  0  0
    5.3789    9.3989   15.7599 O   0  0  0  0  0  0  0  0  0  0  0  0
    3.2956    7.0361   16.4381 H   0  0  0  0  0  0  0  0  0  0  0  0
    4.6897    7.5424   13.4496 C   0  0  0  0  0  0  0  0  0  0  0  0
    3.5296    7.5575   14.4252 C   0  0  0  0  0  0  0  0  0  0  0  0
    2.5046    8.5007   13.8813 C   0  0  0  0  0  0  0  0  0  0  0  0
    1.2015    8.0170   14.0560 F   0  0  0  0  0  0  0  0  0  0  0  0
    2.6836    8.6568   12.4958 F   0  0  0  0  0  0  0  0  0  0  0  0
    2.5873    9.7555   14.4224 F   0  0  0  0  0  0  0  0  0  0  0  0
 22 23  1  0  0  0
 23 18  1  0  0  0
 18 19  1  0  0  0
 19 20  2  0  0  0
 19  1  1  0  0  0
  1  2  1  0  0  0
  2  3  1  0  0  0
  3  4  1  0  0  0
  4  5  1  0  0  0
  5  6  1  0  0  0
  6  7  2  0  0  0
  6  8  1  0  0  0
  8  9  2  0  0  0
  9 10  1  0  0  0
 10 11  2  0  0  0
 11 12  1  0  0  0
 12 13  2  0  0  0
 11 14  1  0  0  0
 14 15  1  0  0  0
 14 16  1  0  0  0
 14 17  1  0  0  0
 23 24  1  0  0  0
 24 25  1  0  0  0
 24 26  1  0  0  0
 24 27  1  0  0  0
  5  1  1  0  0  0
 13  8  1  0  0  0
 18 21  1  0  0  0
M  END
> <minimizedAffinity>
-6.86399

> <CNNscore>
0.3899706304

> <CNNaffinity>
5.0355906487

> <CNN_VS>
1.9637324810

> <CNNaffinity_variance>
0.3777001202

$$$$
[H]c1c([H])c(C(F)(F)F)c([H])c([H])c1C(=O)N1C([H])([H])C([H])([H])C([H])([H])[C@@]1([H])C(=O)N([H])[C@]([H])(C([H])([H])[H])C(F)(F)F


 27 28  0  0  0  0  0  0  0  0999 V2000
    0.5187    4.1751   10.1789 C   0  0  0  0  0  0  0  0  0  0  0  0
   -0.9594    3.9617   10.4299 C   0  0  0  0  0  0  0  0  0  0  0  0
   -1.1731    4.8078   11.6691 C   0  0  0  0  0  0  0  0  0  0  0  0
    0.1396    4.5988   12.4139 C   0  0  0  0  0  0  0  0  0  0  0  0
    1.0656    3.9698   11.5061 N   0  0  0  0  0  0  0  0  0  0  0  0
    2.2830    3.3169   11.7619 C   0  0  0  0  0  0  0  0  0  0  0  0
    3.0196    2.9233   10.7890 O   0  0  0  0  0  0  0  0  0  0  0  0
    2.7666    3.0474   13.1007 C   0  0  0  0  0  0  0  0  0  0  0  0
    2.5001    1.8845   13.7867 C   0  0  0  0  0  0  0  0  0  0  0  0
    2.9891    1.6978   15.0650 C   0  0  0  0  0  0  0  0  0  0  0  0
    3.7555    2.6663   15.7029 C   0  0  0  0  0  0  0  0  0  0  0  0
    4.0191    3.8427   15.0014 C   0  0  0  0  0  0  0  0  0  0  0  0
    3.5341    4.0316   13.7159 C   0  0  0  0  0  0  0  0  0  0  0  0
    4.2805    2.4603   17.0825 C   0  0  0  0  0  0  0  0  0  0  0  0
    4.2923    1.0994   17.3711 F   0  0  0  0  0  0  0  0  0  0  0  0
    5.4803    3.0807   17.2820 F   0  0  0  0  0  0  0  0  0  0  0  0
    3.3386    3.0238   17.9754 F   0  0  0  0  0  0  0  0  0  0  0  0
    0.2078    6.0510    8.5085 N   0  0  0  0  0  0  0  0  0  0  0  0
    0.8666    5.4746    9.6049 C   0  0  0  0  0  0  0  0  0  0  0  0
    1.8285    6.1147   10.1319 O   0  0  0  0  0  0  0  0  0  0  0  0
   -0.6256    5.4912    8.1390 H   0  0  0  0  0  0  0  0  0  0  0  0
   -0.7190    7.8650    7.0603 C   0  0  0  0  0  0  0  0  0  0  0  0
    0.4486    7.2568    7.8117 C   0  0  0  0  0  0  0  0  0  0  0  0
    1.6245    7.2670    6.8879 C   0  0  0  0  0  0  0  0  0  0  0  0
    2.7736    7.7755    7.5071 F   0  0  0  0  0  0  0  0  0  0  0  0
    1.3651    8.1063    5.7906 F   0  0  0  0  0  0  0  0  0  0  0  0
    1.9108    6.0334    6.3679 F   0  0  0  0  0  0  0  0  0  0  0  0
 22 23  1  0  0  0
 23 18  1  0  0  0
 18 19  1  0  0  0
 19 20  2  0  0  0
 19  1  1  0  0  0
  1  2  1  0  0  0
  2  3  1  0  0  0
  3  4  1  0  0  0
  4  5  1  0  0  0
  5  6  1  0  0  0
  6  7  2  0  0  0
  6  8  1  0  0  0
  8  9  2  0  0  0
  9 10  1  0  0  0
 10 11  2  0  0  0
 11 12  1  0  0  0
 12 13  2  0  0  0
 11 14  1  0  0  0
 14 15  1  0  0  0
 14 16  1  0  0  0
 14 17  1  0  0  0
 23 24  1  0  0  0
 24 25  1  0  0  0
 24 26  1  0  0  0
 24 27  1  0  0  0
  5  1  1  0  0  0
 13  8  1  0  0  0
 18 21  1  0  0  0
M  END
> <minimizedAffinity>
-5.58439

> <CNNscore>
0.3883597255

> <CNNaffinity>
4.5472917557

> <CNN_VS>
1.7659850121

> <CNNaffinity_variance>
0.2125821412

$$$$
[H]c1c([H])c(C(F)(F)F)c([H])c([H])c1C(=O)N1C([H])([H])C([H])([H])C([H])([H])[C@@]1([H])C(=O)N([H])[C@]([H])(C([H])([H])[H])C(F)(F)F


 27 28  0  0  0  0  0  0  0  0999 V2000
    2.2005    4.1242   13.2632 C   0  0  0  0  0  0  0  0  0  0  0  0
    0.9950    4.9969   13.5437 C   0  0  0  0  0  0  0  0  0  0  0  0
    1.5231    5.8800   14.6566 C   0  0  0  0  0  0  0  0  0  0  0  0
    2.4166    4.9106   15.4203 C   0  0  0  0  0  0  0  0  0  0  0  0
    2.5886    3.7347   14.6048 N   0  0  0  0  0  0  0  0  0  0  0  0
    3.0679    2.4586   14.9448 C   0  0  0  0  0  0  0  0  0  0  0  0
    3.2530    1.5762   14.0332 O   0  0  0  0  0  0  0  0  0  0  0  0
    3.3676    2.0664   16.3069 C   0  0  0  0  0  0  0  0  0  0  0  0
    4.2578    2.7372   17.1140 C   0  0  0  0  0  0  0  0  0  0  0  0
    4.5000    2.3022   18.4025 C   0  0  0  0  0  0  0  0  0  0  0  0
    3.8663    1.1815   18.9267 C   0  0  0  0  0  0  0  0  0  0  0  0
    2.9672    0.5063   18.1014 C   0  0  0  0  0  0  0  0  0  0  0  0
    2.7176    0.9430   16.8089 C   0  0  0  0  0  0  0  0  0  0  0  0
    4.1314    0.7159   20.3174 C   0  0  0  0  0  0  0  0  0  0  0  0
    3.4930   -0.5029   20.5234 F   0  0  0  0  0  0  0  0  0  0  0  0
    5.4632    0.7031   20.6181 F   0  0  0  0  0  0  0  0  0  0  0  0
    3.4906    1.6261   21.1910 F   0  0  0  0  0  0  0  0  0  0  0  0
    3.1184    5.9691   11.7935 N   0  0  0  0  0  0  0  0  0  0  0  0
    3.2755    4.7772   12.5169 C   0  0  0  0  0  0  0  0  0  0  0  0
    4.4189    4.2246   12.5227 O   0  0  0  0  0  0  0  0  0  0  0  0
    2.1490    6.4154   11.8666 H   0  0  0  0  0  0  0  0  0  0  0  0
    5.0184    7.5906   11.7066 C   0  0  0  0  0  0  0  0  0  0  0  0
    4.0289    6.6928   10.9906 C   0  0  0  0  0  0  0  0  0  0  0  0
    3.4397    7.4874    9.8691 C   0  0  0  0  0  0  0  0  0  0  0  0
    2.4426    8.3645   10.3150 F   0  0  0  0  0  0  0  0  0  0  0  0
    2.8220    6.6273    8.9447 F   0  0  0  0  0  0  0  0  0  0  0  0
    4.3736    8.1996    9.1657 F   0  0  0  0  0  0  0  0  0  0  0  0
 22 23  1  0  0  0
 23 18  1  0  0  0
 18 19  1  0  0  0
 19 20  2  0  0  0
 19  1  1  0  0  0
  1  2  1  0  0  0
  2  3  1  0  0  0
  3  4  1  0  0  0
  4  5  1  0  0  0
  5  6  1  0  0  0
  6  7  2  0  0  0
  6  8  1  0  0  0
  8  9  2  0  0  0
  9 10  1  0  0  0
 10 11  2  0  0  0
 11 12  1  0  0  0
 12 13  2  0  0  0
 11 14  1  0  0  0
 14 15  1  0  0  0
 14 16  1  0  0  0
 14 17  1  0  0  0
 23 24  1  0  0  0
 24 25  1  0  0  0
 24 26  1  0  0  0
 24 27  1  0  0  0
  5  1  1  0  0  0
 13  8  1  0  0  0
 18 21  1  0  0  0
M  END
> <minimizedAffinity>
-6.69264

> <CNNscore>
0.3701965511

> <CNNaffinity>
4.9229536057

> <CNN_VS>
1.8224604130

> <CNNaffinity_variance>
0.2701194584

$$$$
[H]c1c([H])c(C(F)(F)F)c([H])c([H])c1C(=O)N1C([H])([H])C([H])([H])C([H])([H])[C@@]1([H])C(=O)N([H])[C@]([H])(C([H])([H])[H])C(F)(F)F


 27 28  0  0  0  0  0  0  0  0999 V2000
    1.9873    7.4632   12.3662 C   0  0  0  0  0  0  0  0  0  0  0  0
    2.5840    8.7011   13.0024 C   0  0  0  0  0  0  0  0  0  0  0  0
    4.0199    8.2626   13.2103 C   0  0  0  0  0  0  0  0  0  0  0  0
    3.8442    6.7892   13.5561 C   0  0  0  0  0  0  0  0  0  0  0  0
    2.4854    6.4229   13.2448 N   0  0  0  0  0  0  0  0  0  0  0  0
    1.7403    5.2954   13.6289 C   0  0  0  0  0  0  0  0  0  0  0  0
    0.5701    5.1006   13.1427 O   0  0  0  0  0  0  0  0  0  0  0  0
    2.2281    4.3138   14.5762 C   0  0  0  0  0  0  0  0  0  0  0  0
    2.2994    4.5347   15.9327 C   0  0  0  0  0  0  0  0  0  0  0  0
    2.7822    3.5542   16.7774 C   0  0  0  0  0  0  0  0  0  0  0  0
    3.2142    2.3234   16.2969 C   0  0  0  0  0  0  0  0  0  0  0  0
    3.1405    2.1086   14.9208 C   0  0  0  0  0  0  0  0  0  0  0  0
    2.6515    3.0888   14.0700 C   0  0  0  0  0  0  0  0  0  0  0  0
    3.7347    1.2688   17.2125 C   0  0  0  0  0  0  0  0  0  0  0  0
    3.2496    1.4950   18.4966 F   0  0  0  0  0  0  0  0  0  0  0  0
    3.4988    0.0084   16.7437 F   0  0  0  0  0  0  0  0  0  0  0  0
    5.1349    1.4505   17.3042 F   0  0  0  0  0  0  0  0  0  0  0  0
    3.3384    7.9835   10.2901 N   0  0  0  0  0  0  0  0  0  0  0  0
    2.3456    7.2558   10.9634 C   0  0  0  0  0  0  0  0  0  0  0  0
    1.7125    6.3641   10.3177 O   0  0  0  0  0  0  0  0  0  0  0  0
    3.8723    8.6842   10.8969 H   0  0  0  0  0  0  0  0  0  0  0  0
    5.2603    7.8888    8.6951 C   0  0  0  0  0  0  0  0  0  0  0  0
    3.7659    7.9413    8.9436 C   0  0  0  0  0  0  0  0  0  0  0  0
    3.2013    8.9856    8.0342 C   0  0  0  0  0  0  0  0  0  0  0  0
    2.1990    9.7389    8.6590 F   0  0  0  0  0  0  0  0  0  0  0  0
    2.5984    8.3762    6.9202 F   0  0  0  0  0  0  0  0  0  0  0  0
    4.1511    9.8375    7.5381 F   0  0  0  0  0  0  0  0  0  0  0  0
 22 23  1  0  0  0
 23 18  1  0  0  0
 18 19  1  0  0  0
 19 20  2  0  0  0
 19  1  1  0  0  0
  1  2  1  0  0  0
  2  3  1  0  0  0
  3  4  1  0  0  0
  4  5  1  0  0  0
  5  6  1  0  0  0
  6  7  2  0  0  0
  6  8  1  0  0  0
  8  9  2  0  0  0
  9 10  1  0  0  0
 10 11  2  0  0  0
 11 12  1  0  0  0
 12 13  2  0  0  0
 11 14  1  0  0  0
 14 15  1  0  0  0
 14 16  1  0  0  0
 14 17  1  0  0  0
 23 24  1  0  0  0
 24 25  1  0  0  0
 24 26  1  0  0  0
 24 27  1  0  0  0
  5  1  1  0  0  0
 13  8  1  0  0  0
 18 21  1  0  0  0
M  END
> <minimizedAffinity>
-6.36220

> <CNNscore>
0.3550028205

> <CNNaffinity>
4.6844725609

> <CNN_VS>
1.6630009413

> <CNNaffinity_variance>
0.2412368506

$$$$
[H]c1c([H])c([H])c2c(c1[H])c1c3c(c4c5c([H])c([H])c([H])c([H])c5n5c4c1n2[C@]1([H])O[C@]5(C([H])([H])[H])[C@@]([H])(OC([H])([H])[H])[C@]([H])(N([H])C([H])([H])[H])C1([H])[H])C([H])([H])N([H])C3=O


 37 44  0  0  0  0  0  0  0  0999 V2000
    5.2465    7.2123   21.0225 C   0  0  0  0  0  0  0  0  0  0  0  0
    5.3406    5.7029   21.4173 C   0  0  0  0  0  0  0  0  0  0  0  0
    5.0451    5.0934   20.2201 C   0  0  0  0  0  0  0  0  0  0  0  0
    6.0520    5.4992   19.3588 O   0  0  0  0  0  0  0  0  0  0  0  0
    5.4651    6.5312   18.5602 C   0  0  0  0  0  0  0  0  0  0  0  0
    6.7260    7.1018   17.8541 C   0  0  0  0  0  0  0  0  0  0  0  0
    4.9101    7.4362   19.5354 C   0  0  0  0  0  0  0  0  0  0  0  0
    4.7068    5.8712   17.5287 N   0  0  0  0  0  0  0  0  0  0  0  0
    4.4602    6.3699   16.2759 C   0  0  0  0  0  0  0  0  0  0  0  0
    4.6769    7.5841   15.6896 C   0  0  0  0  0  0  0  0  0  0  0  0
    4.2985    7.8057   14.3705 C   0  0  0  0  0  0  0  0  0  0  0  0
    3.6977    6.8229   13.6138 C   0  0  0  0  0  0  0  0  0  0  0  0
    3.4660    5.5819   14.1862 C   0  0  0  0  0  0  0  0  0  0  0  0
    3.8535    5.4084   15.4838 C   0  0  0  0  0  0  0  0  0  0  0  0
    3.7201    4.2979   16.2700 C   0  0  0  0  0  0  0  0  0  0  0  0
    3.2375    3.0084   16.1008 C   0  0  0  0  0  0  0  0  0  0  0  0
    2.6376    2.4144   14.8786 C   0  0  0  0  0  0  0  0  0  0  0  0
    2.3012    1.0697   15.2519 N   0  0  0  0  0  0  0  0  0  0  0  0
    2.6809    0.8203   16.6237 C   0  0  0  0  0  0  0  0  0  0  0  0
    2.4744   -0.2970   17.1207 O   0  0  0  0  0  0  0  0  0  0  0  0
    3.2528    2.0496   17.0988 C   0  0  0  0  0  0  0  0  0  0  0  0
    3.7679    2.3666   18.3460 C   0  0  0  0  0  0  0  0  0  0  0  0
    3.8980    1.7444   19.5467 C   0  0  0  0  0  0  0  0  0  0  0  0
    3.6153    0.4912   19.9966 C   0  0  0  0  0  0  0  0  0  0  0  0
    3.8992    0.2100   21.3454 C   0  0  0  0  0  0  0  0  0  0  0  0
    4.4405    1.1424   22.1985 C   0  0  0  0  0  0  0  0  0  0  0  0
    4.7248    2.4151   21.7305 C   0  0  0  0  0  0  0  0  0  0  0  0
    4.4398    2.6754   20.4030 C   0  0  0  0  0  0  0  0  0  0  0  0
    4.6445    3.8219   19.7850 N   0  0  0  0  0  0  0  0  0  0  0  0
    4.2413    3.6511   18.4936 C   0  0  0  0  0  0  0  0  0  0  0  0
    4.2298    4.6096   17.4750 C   0  0  0  0  0  0  0  0  0  0  0  0
    1.8460    0.4032   14.5923 H   0  0  0  0  0  0  0  0  0  0  0  0
    6.9817    7.2110   22.5807 C   0  0  0  0  0  0  0  0  0  0  0  0
    6.3799    7.9309   21.4789 N   0  0  0  0  0  0  0  0  0  0  0  0
    6.1039    8.8583   21.8129 H   0  0  0  0  0  0  0  0  0  0  0  0
    3.5934    7.8782   19.3563 O   0  0  0  0  0  0  0  0  0  0  0  0
    3.5009    9.1995   18.9360 C   0  0  0  0  0  0  0  0  0  0  0  0
 33 34  1  0  0  0
 34  1  1  0  0  0
  1  2  1  0  0  0
  2  3  1  0  0  0
  3  4  1  0  0  0
  4  5  1  0  0  0
  5  6  1  0  0  0
  5  7  1  0  0  0
  7 36  1  0  0  0
 36 37  1  0  0  0
  5  8  1  0  0  0
  8  9  1  0  0  0
  9 10  2  0  0  0
 10 11  1  0  0  0
 11 12  2  0  0  0
 12 13  1  0  0  0
 13 14  2  0  0  0
 14 15  1  0  0  0
 15 16  2  0  0  0
 16 17  1  0  0  0
 17 18  1  0  0  0
 18 19  1  0  0  0
 19 20  2  0  0  0
 19 21  1  0  0  0
 21 22  2  0  0  0
 22 23  1  0  0  0
 23 24  2  0  0  0
 24 25  1  0  0  0
 25 26  2  0  0  0
 26 27  1  0  0  0
 27 28  2  0  0  0
 28 29  1  0  0  0
 29 30  1  0  0  0
 30 31  2  0  0  0
  7  1  1  0  0  0
 31  8  1  0  0  0
 29  3  1  0  0  0
 14  9  1  0  0  0
 31 15  1  0  0  0
 21 16  1  0  0  0
 30 22  1  0  0  0
 28 23  1  0  0  0
 34 35  1  0  0  0
 18 32  1  0  0  0
M  END
> <minimizedAffinity>
-11.10861

> <CNNscore>
0.5872339606

> <CNNaffinity>
6.8097543716

> <CNN_VS>
3.9989190102

> <CNNaffinity_variance>
0.1677107066

$$$$
[H]c1c([H])c([H])c2c(c1[H])c1c3c(c4c5c([H])c([H])c([H])c([H])c5n5c4c1n2[C@]1([H])O[C@]5(C([H])([H])[H])[C@@]([H])(OC([H])([H])[H])[C@]([H])(N([H])C([H])([H])[H])C1([H])[H])C([H])([H])N([H])C3=O


 37 44  0  0  0  0  0  0  0  0999 V2000
   -0.1351    4.5876    9.4521 C   0  0  0  0  0  0  0  0  0  0  0  0
   -0.9211    3.2397    9.5424 C   0  0  0  0  0  0  0  0  0  0  0  0
    0.1033    2.3255    9.4595 C   0  0  0  0  0  0  0  0  0  0  0  0
    0.8920    2.5765   10.5709 O   0  0  0  0  0  0  0  0  0  0  0  0
    2.0070    3.3235   10.0750 C   0  0  0  0  0  0  0  0  0  0  0  0
    2.6553    3.7925   11.4068 C   0  0  0  0  0  0  0  0  0  0  0  0
    1.3905    4.4003    9.3412 C   0  0  0  0  0  0  0  0  0  0  0  0
    2.9244    2.3668    9.5115 N   0  0  0  0  0  0  0  0  0  0  0  0
    4.2859    2.5109    9.4424 C   0  0  0  0  0  0  0  0  0  0  0  0
    5.1340    3.5497    9.6999 C   0  0  0  0  0  0  0  0  0  0  0  0
    6.5044    3.3996    9.5217 C   0  0  0  0  0  0  0  0  0  0  0  0
    7.0528    2.2134    9.0837 C   0  0  0  0  0  0  0  0  0  0  0  0
    6.2131    1.1441    8.8146 C   0  0  0  0  0  0  0  0  0  0  0  0
    4.8745    1.3358    9.0033 C   0  0  0  0  0  0  0  0  0  0  0  0
    3.8511    0.4541    8.7931 C   0  0  0  0  0  0  0  0  0  0  0  0
    3.7416   -0.8696    8.3928 C   0  0  0  0  0  0  0  0  0  0  0  0
    4.8364   -1.7988    8.0126 C   0  0  0  0  0  0  0  0  0  0  0  0
    4.1740   -3.0268    7.6749 N   0  0  0  0  0  0  0  0  0  0  0  0
    2.7458   -2.8900    7.8473 C   0  0  0  0  0  0  0  0  0  0  0  0
    2.0069   -3.8573    7.6100 O   0  0  0  0  0  0  0  0  0  0  0  0
    2.5350   -1.5398    8.2908 C   0  0  0  0  0  0  0  0  0  0  0  0
    1.3555   -0.8780    8.5942 C   0  0  0  0  0  0  0  0  0  0  0  0
    0.0276   -1.1634    8.5611 C   0  0  0  0  0  0  0  0  0  0  0  0
   -0.6914   -2.2796    8.2611 C   0  0  0  0  0  0  0  0  0  0  0  0
   -2.0926   -2.1867    8.3437 C   0  0  0  0  0  0  0  0  0  0  0  0
   -2.7380   -1.0294    8.7100 C   0  0  0  0  0  0  0  0  0  0  0  0
   -1.9969    0.1012    9.0137 C   0  0  0  0  0  0  0  0  0  0  0  0
   -0.6213   -0.0066    8.9274 C   0  0  0  0  0  0  0  0  0  0  0  0
    0.2411    0.9581    9.1806 N   0  0  0  0  0  0  0  0  0  0  0  0
    1.4855    0.4347    8.9889 C   0  0  0  0  0  0  0  0  0  0  0  0
    2.7112    1.0997    9.0979 C   0  0  0  0  0  0  0  0  0  0  0  0
    4.6924   -3.8720    7.3534 H   0  0  0  0  0  0  0  0  0  0  0  0
   -1.8556    5.1023   10.9401 C   0  0  0  0  0  0  0  0  0  0  0  0
   -0.5403    5.4841   10.4725 N   0  0  0  0  0  0  0  0  0  0  0  0
   -0.5930    6.4394   10.1083 H   0  0  0  0  0  0  0  0  0  0  0  0
    1.8608    4.6789    8.0519 O   0  0  0  0  0  0  0  0  0  0  0  0
    2.6436    5.8247    7.9792 C   0  0  0  0  0  0  0  0  0  0  0  0
 33 34  1  0  0  0
 34  1  1  0  0  0
  1  2  1  0  0  0
  2  3  1  0  0  0
  3  4  1  0  0  0
  4  5  1  0  0  0
  5  6  1  0  0  0
  5  7  1  0  0  0
  7 36  1  0  0  0
 36 37  1  0  0  0
  5  8  1  0  0  0
  8  9  1  0  0  0
  9 10  2  0  0  0
 10 11  1  0  0  0
 11 12  2  0  0  0
 12 13  1  0  0  0
 13 14  2  0  0  0
 14 15  1  0  0  0
 15 16  2  0  0  0
 16 17  1  0  0  0
 17 18  1  0  0  0
 18 19  1  0  0  0
 19 20  2  0  0  0
 19 21  1  0  0  0
 21 22  2  0  0  0
 22 23  1  0  0  0
 23 24  2  0  0  0
 24 25  1  0  0  0
 25 26  2  0  0  0
 26 27  1  0  0  0
 27 28  2  0  0  0
 28 29  1  0  0  0
 29 30  1  0  0  0
 30 31  2  0  0  0
  7  1  1  0  0  0
 31  8  1  0  0  0
 29  3  1  0  0  0
 14  9  1  0  0  0
 31 15  1  0  0  0
 21 16  1  0  0  0
 30 22  1  0  0  0
 28 23  1  0  0  0
 34 35  1  0  0  0
 18 32  1  0  0  0
M  END
> <minimizedAffinity>
-5.49447

> <CNNscore>
0.4628348053

> <CNNaffinity>
5.4823322296

> <CNN_VS>
2.5374140739

> <CNNaffinity_variance>
0.2588708103

$$$$
[H]c1c([H])c([H])c2c(c1[H])c1c3c(c4c5c([H])c([H])c([H])c([H])c5n5c4c1n2[C@]1([H])O[C@]5(C([H])([H])[H])[C@@]([H])(OC([H])([H])[H])[C@]([H])(N([H])C([H])([H])[H])C1([H])[H])C([H])([H])N([H])C3=O


 37 44  0  0  0  0  0  0  0  0999 V2000
    4.6130   -2.6374    7.0729 C   0  0  0  0  0  0  0  0  0  0  0  0
    5.3830   -1.4850    7.7952 C   0  0  0  0  0  0  0  0  0  0  0  0
    4.3423   -0.7537    8.3190 C   0  0  0  0  0  0  0  0  0  0  0  0
    3.7057   -1.6205    9.1929 O   0  0  0  0  0  0  0  0  0  0  0  0
    2.5484   -2.0776    8.4866 C   0  0  0  0  0  0  0  0  0  0  0  0
    2.0825   -3.2339    9.4138 C   0  0  0  0  0  0  0  0  0  0  0  0
    3.0830   -2.5449    7.2320 C   0  0  0  0  0  0  0  0  0  0  0  0
    1.5519   -1.0462    8.6201 N   0  0  0  0  0  0  0  0  0  0  0  0
    0.1951   -1.2420    8.6199 C   0  0  0  0  0  0  0  0  0  0  0  0
   -0.5971   -2.3238    8.3610 C   0  0  0  0  0  0  0  0  0  0  0  0
   -1.9811   -2.2143    8.4285 C   0  0  0  0  0  0  0  0  0  0  0  0
   -2.5993   -1.0262    8.7539 C   0  0  0  0  0  0  0  0  0  0  0  0
   -1.8174    0.0869    9.0202 C   0  0  0  0  0  0  0  0  0  0  0  0
   -0.4629   -0.0659    8.9423 C   0  0  0  0  0  0  0  0  0  0  0  0
    0.5116    0.8726    9.1389 C   0  0  0  0  0  0  0  0  0  0  0  0
    0.5486    2.2102    9.5045 C   0  0  0  0  0  0  0  0  0  0  0  0
   -0.6001    3.1064    9.7944 C   0  0  0  0  0  0  0  0  0  0  0  0
   -0.0053    4.3752   10.1061 N   0  0  0  0  0  0  0  0  0  0  0  0
    1.4352    4.2846   10.0353 C   0  0  0  0  0  0  0  0  0  0  0  0
    2.1227    5.2866   10.2833 O   0  0  0  0  0  0  0  0  0  0  0  0
    1.7218    2.9279    9.6598 C   0  0  0  0  0  0  0  0  0  0  0  0
    2.9404    2.3048    9.4410 C   0  0  0  0  0  0  0  0  0  0  0  0
    4.2487    2.6713    9.4350 C   0  0  0  0  0  0  0  0  0  0  0  0
    4.9061    3.8304    9.7126 C   0  0  0  0  0  0  0  0  0  0  0  0
    6.3078    3.8225    9.5928 C   0  0  0  0  0  0  0  0  0  0  0  0
    7.0125    2.7047    9.2133 C   0  0  0  0  0  0  0  0  0  0  0  0
    6.3338    1.5297    8.9332 C   0  0  0  0  0  0  0  0  0  0  0  0
    4.9569    1.5542    9.0554 C   0  0  0  0  0  0  0  0  0  0  0  0
    4.1490    0.5360    8.8343 N   0  0  0  0  0  0  0  0  0  0  0  0
    2.8822    0.9778    9.0786 C   0  0  0  0  0  0  0  0  0  0  0  0
    1.6909    0.2593    8.9339 C   0  0  0  0  0  0  0  0  0  0  0  0
   -0.5736    5.2164   10.3428 H   0  0  0  0  0  0  0  0  0  0  0  0
    4.2971   -4.9400    6.8799 C   0  0  0  0  0  0  0  0  0  0  0  0
    5.1588   -3.9027    7.4050 N   0  0  0  0  0  0  0  0  0  0  0  0
    5.2125   -4.0127    8.4214 H   0  0  0  0  0  0  0  0  0  0  0  0
    2.4566   -2.1327    6.0494 O   0  0  0  0  0  0  0  0  0  0  0  0
    3.3263   -2.0033    4.9734 C   0  0  0  0  0  0  0  0  0  0  0  0
 33 34  1  0  0  0
 34  1  1  0  0  0
  1  2  1  0  0  0
  2  3  1  0  0  0
  3  4  1  0  0  0
  4  5  1  0  0  0
  5  6  1  0  0  0
  5  7  1  0  0  0
  7 36  1  0  0  0
 36 37  1  0  0  0
  5  8  1  0  0  0
  8  9  1  0  0  0
  9 10  2  0  0  0
 10 11  1  0  0  0
 11 12  2  0  0  0
 12 13  1  0  0  0
 13 14  2  0  0  0
 14 15  1  0  0  0
 15 16  2  0  0  0
 16 17  1  0  0  0
 17 18  1  0  0  0
 18 19  1  0  0  0
 19 20  2  0  0  0
 19 21  1  0  0  0
 21 22  2  0  0  0
 22 23  1  0  0  0
 23 24  2  0  0  0
 24 25  1  0  0  0
 25 26  2  0  0  0
 26 27  1  0  0  0
 27 28  2  0  0  0
 28 29  1  0  0  0
 29 30  1  0  0  0
 30 31  2  0  0  0
  7  1  1  0  0  0
 31  8  1  0  0  0
 29  3  1  0  0  0
 14  9  1  0  0  0
 31 15  1  0  0  0
 21 16  1  0  0  0
 30 22  1  0  0  0
 28 23  1  0  0  0
 34 35  1  0  0  0
 18 32  1  0  0  0
M  END
> <minimizedAffinity>
-5.57012

> <CNNscore>
0.4587625563

> <CNNaffinity>
5.3963804245

> <CNN_VS>
2.4756572247

> <CNNaffinity_variance>
0.1678705066

$$$$
[H]c1c([H])c([H])c2c(c1[H])c1c3c(c4c5c([H])c([H])c([H])c([H])c5n5c4c1n2[C@]1([H])O[C@]5(C([H])([H])[H])[C@@]([H])(OC([H])([H])[H])[C@]([H])(N([H])C([H])([H])[H])C1([H])[H])C([H])([H])N([H])C3=O


 37 44  0  0  0  0  0  0  0  0999 V2000
   -0.0213    4.2566   10.8263 C   0  0  0  0  0  0  0  0  0  0  0  0
    0.3145    5.4710    9.9014 C   0  0  0  0  0  0  0  0  0  0  0  0
    1.4882    5.0498    9.3208 C   0  0  0  0  0  0  0  0  0  0  0  0
    1.1449    3.9046    8.6200 O   0  0  0  0  0  0  0  0  0  0  0  0
    1.5878    2.8194    9.4406 C   0  0  0  0  0  0  0  0  0  0  0  0
    0.9091    1.6198    8.7236 C   0  0  0  0  0  0  0  0  0  0  0  0
    1.0026    3.1092   10.7258 C   0  0  0  0  0  0  0  0  0  0  0  0
    2.9995    2.6701    9.1972 N   0  0  0  0  0  0  0  0  0  0  0  0
    3.7063    1.4991    9.2901 C   0  0  0  0  0  0  0  0  0  0  0  0
    3.3974    0.2501    9.7476 C   0  0  0  0  0  0  0  0  0  0  0  0
    4.3504   -0.7616    9.7283 C   0  0  0  0  0  0  0  0  0  0  0  0
    5.6265   -0.5466    9.2541 C   0  0  0  0  0  0  0  0  0  0  0  0
    5.9653    0.7129    8.7849 C   0  0  0  0  0  0  0  0  0  0  0  0
    4.9986    1.6763    8.8225 C   0  0  0  0  0  0  0  0  0  0  0  0
    5.0876    2.9859    8.4399 C   0  0  0  0  0  0  0  0  0  0  0  0
    6.0611    3.7951    7.8728 C   0  0  0  0  0  0  0  0  0  0  0  0
    7.4510    3.4236    7.5028 C   0  0  0  0  0  0  0  0  0  0  0  0
    8.0239    4.6288    6.9736 N   0  0  0  0  0  0  0  0  0  0  0  0
    7.0501    5.6964    6.9908 C   0  0  0  0  0  0  0  0  0  0  0  0
    7.3647    6.8164    6.5610 O   0  0  0  0  0  0  0  0  0  0  0  0
    5.8583    5.1269    7.5556 C   0  0  0  0  0  0  0  0  0  0  0  0
    4.6280    5.7125    7.8105 C   0  0  0  0  0  0  0  0  0  0  0  0
    4.0839    6.9524    7.6999 C   0  0  0  0  0  0  0  0  0  0  0  0
    4.5358    8.1427    7.2183 C   0  0  0  0  0  0  0  0  0  0  0  0
    3.6546    9.2379    7.2730 C   0  0  0  0  0  0  0  0  0  0  0  0
    2.3828    9.1405    7.7859 C   0  0  0  0  0  0  0  0  0  0  0  0
    1.9323    7.9243    8.2733 C   0  0  0  0  0  0  0  0  0  0  0  0
    2.8105    6.8582    8.2126 C   0  0  0  0  0  0  0  0  0  0  0  0
    2.5571    5.6314    8.6239 N   0  0  0  0  0  0  0  0  0  0  0  0
    3.6758    4.8929    8.3738 C   0  0  0  0  0  0  0  0  0  0  0  0
    3.8885    3.5452    8.6815 C   0  0  0  0  0  0  0  0  0  0  0  0
    9.0094    4.6792    6.6377 H   0  0  0  0  0  0  0  0  0  0  0  0
   -2.1899    5.0210   10.4366 C   0  0  0  0  0  0  0  0  0  0  0  0
   -1.3699    3.8508   10.6665 N   0  0  0  0  0  0  0  0  0  0  0  0
   -1.7053    3.3843   11.5138 H   0  0  0  0  0  0  0  0  0  0  0  0
    1.8218    3.0364   11.8592 O   0  0  0  0  0  0  0  0  0  0  0  0
    1.1386    2.6954   13.0202 C   0  0  0  0  0  0  0  0  0  0  0  0
 33 34  1  0  0  0
 34  1  1  0  0  0
  1  2  1  0  0  0
  2  3  1  0  0  0
  3  4  1  0  0  0
  4  5  1  0  0  0
  5  6  1  0  0  0
  5  7  1  0  0  0
  7 36  1  0  0  0
 36 37  1  0  0  0
  5  8  1  0  0  0
  8  9  1  0  0  0
  9 10  2  0  0  0
 10 11  1  0  0  0
 11 12  2  0  0  0
 12 13  1  0  0  0
 13 14  2  0  0  0
 14 15  1  0  0  0
 15 16  2  0  0  0
 16 17  1  0  0  0
 17 18  1  0  0  0
 18 19  1  0  0  0
 19 20  2  0  0  0
 19 21  1  0  0  0
 21 22  2  0  0  0
 22 23  1  0  0  0
 23 24  2  0  0  0
 24 25  1  0  0  0
 25 26  2  0  0  0
 26 27  1  0  0  0
 27 28  2  0  0  0
 28 29  1  0  0  0
 29 30  1  0  0  0
 30 31  2  0  0  0
  7  1  1  0  0  0
 31  8  1  0  0  0
 29  3  1  0  0  0
 14  9  1  0  0  0
 31 15  1  0  0  0
 21 16  1  0  0  0
 30 22  1  0  0  0
 28 23  1  0  0  0
 34 35  1  0  0  0
 18 32  1  0  0  0
M  END
> <minimizedAffinity>
-5.80353

> <CNNscore>
0.4197325706

> <CNNaffinity>
5.5194973946

> <CNN_VS>
2.3167128563

> <CNNaffinity_variance>
0.1235579029

$$$$
[H]c1c([H])c([H])c2c(c1[H])c1c3c(c4c5c([H])c([H])c([H])c([H])c5n5c4c1n2[C@]1([H])O[C@]5(C([H])([H])[H])[C@@]([H])(OC([H])([H])[H])[C@]([H])(N([H])C([H])([H])[H])C1([H])[H])C([H])([H])N([H])C3=O


 37 44  0  0  0  0  0  0  0  0999 V2000
    8.0643    2.8123    5.7402 C   0  0  0  0  0  0  0  0  0  0  0  0
    6.9715    1.9401    6.4386 C   0  0  0  0  0  0  0  0  0  0  0  0
    6.1330    2.9094    6.9380 C   0  0  0  0  0  0  0  0  0  0  0  0
    5.6662    3.5831    5.8206 O   0  0  0  0  0  0  0  0  0  0  0  0
    6.4327    4.7901    5.7665 C   0  0  0  0  0  0  0  0  0  0  0  0
    6.0479    5.3133    4.3551 C   0  0  0  0  0  0  0  0  0  0  0  0
    7.7956    4.3264    5.8409 C   0  0  0  0  0  0  0  0  0  0  0  0
    5.8254    5.7043    6.6993 N   0  0  0  0  0  0  0  0  0  0  0  0
    5.8313    7.0712    6.5963 C   0  0  0  0  0  0  0  0  0  0  0  0
    6.4730    7.9474    5.7684 C   0  0  0  0  0  0  0  0  0  0  0  0
    6.2885    9.3173    5.9151 C   0  0  0  0  0  0  0  0  0  0  0  0
    5.4630    9.8375    6.8885 C   0  0  0  0  0  0  0  0  0  0  0  0
    4.8010    8.9691    7.7421 C   0  0  0  0  0  0  0  0  0  0  0  0
    5.0113    7.6321    7.5623 C   0  0  0  0  0  0  0  0  0  0  0  0
    4.4960    6.5864    8.2766 C   0  0  0  0  0  0  0  0  0  0  0  0
    3.6084    6.4414    9.3326 C   0  0  0  0  0  0  0  0  0  0  0  0
    2.9072    7.5129   10.0856 C   0  0  0  0  0  0  0  0  0  0  0  0
    2.1284    6.8183   11.0715 N   0  0  0  0  0  0  0  0  0  0  0  0
    2.3112    5.3908   10.9403 C   0  0  0  0  0  0  0  0  0  0  0  0
    1.7067    4.6252   11.7061 O   0  0  0  0  0  0  0  0  0  0  0  0
    3.2339    5.2150    9.8533 C   0  0  0  0  0  0  0  0  0  0  0  0
    3.7606    4.0518    9.3141 C   0  0  0  0  0  0  0  0  0  0  0  0
    3.6865    2.7209    9.5769 C   0  0  0  0  0  0  0  0  0  0  0  0
    2.9879    1.9729   10.4744 C   0  0  0  0  0  0  0  0  0  0  0  0
    3.1785    0.5794   10.4408 C   0  0  0  0  0  0  0  0  0  0  0  0
    4.0286   -0.0306    9.5490 C   0  0  0  0  0  0  0  0  0  0  0  0
    4.7348    0.7398    8.6394 C   0  0  0  0  0  0  0  0  0  0  0  0
    4.5365    2.1072    8.6857 C   0  0  0  0  0  0  0  0  0  0  0  0
    5.1166    2.9934    7.9005 N   0  0  0  0  0  0  0  0  0  0  0  0
    4.6397    4.2171    8.2673 C   0  0  0  0  0  0  0  0  0  0  0  0
    5.0040    5.4614    7.7425 C   0  0  0  0  0  0  0  0  0  0  0  0
    1.5309    7.3166   11.7652 H   0  0  0  0  0  0  0  0  0  0  0  0
    9.6369    2.7974    4.0180 C   0  0  0  0  0  0  0  0  0  0  0  0
    8.3215    2.3515    4.4247 N   0  0  0  0  0  0  0  0  0  0  0  0
    7.6346    2.7368    3.7707 H   0  0  0  0  0  0  0  0  0  0  0  0
    8.6613    4.9537    6.7453 O   0  0  0  0  0  0  0  0  0  0  0  0
    9.5272    5.8627    6.1496 C   0  0  0  0  0  0  0  0  0  0  0  0
 33 34  1  0  0  0
 34  1  1  0  0  0
  1  2  1  0  0  0
  2  3  1  0  0  0
  3  4  1  0  0  0
  4  5  1  0  0  0
  5  6  1  0  0  0
  5  7  1  0  0  0
  7 36  1  0  0  0
 36 37  1  0  0  0
  5  8  1  0  0  0
  8  9  1  0  0  0
  9 10  2  0  0  0
 10 11  1  0  0  0
 11 12  2  0  0  0
 12 13  1  0  0  0
 13 14  2  0  0  0
 14 15  1  0  0  0
 15 16  2  0  0  0
 16 17  1  0  0  0
 17 18  1  0  0  0
 18 19  1  0  0  0
 19 20  2  0  0  0
 19 21  1  0  0  0
 21 22  2  0  0  0
 22 23  1  0  0  0
 23 24  2  0  0  0
 24 25  1  0  0  0
 25 26  2  0  0  0
 26 27  1  0  0  0
 27 28  2  0  0  0
 28 29  1  0  0  0
 29 30  1  0  0  0
 30 31  2  0  0  0
  7  1  1  0  0  0
 31  8  1  0  0  0
 29  3  1  0  0  0
 14  9  1  0  0  0
 31 15  1  0  0  0
 21 16  1  0  0  0
 30 22  1  0  0  0
 28 23  1  0  0  0
 34 35  1  0  0  0
 18 32  1  0  0  0
M  END
> <minimizedAffinity>
-5.51838

> <CNNscore>
0.3813192546

> <CNNaffinity>
5.4848971367

> <CNN_VS>
2.0914969444

> <CNNaffinity_variance>
0.1679298580

$$$$
[H]c1c([H])c([H])c2c(c1[H])c1c3c(c4c5c([H])c([H])c([H])c([H])c5n5c4c1n2[C@]1([H])O[C@]5(C([H])([H])[H])[C@@]([H])(OC([H])([H])[H])[C@]([H])(N([H])C([H])([H])[H])C1([H])[H])C([H])([H])N([H])C3=O


 37 44  0  0  0  0  0  0  0  0999 V2000
    0.0561    3.7132   10.7273 C   0  0  0  0  0  0  0  0  0  0  0  0
    1.1400    2.5896   10.8022 C   0  0  0  0  0  0  0  0  0  0  0  0
    2.1974    3.1934   10.1624 C   0  0  0  0  0  0  0  0  0  0  0  0
    2.4979    4.2988   10.9422 O   0  0  0  0  0  0  0  0  0  0  0  0
    1.9187    5.4100   10.2517 C   0  0  0  0  0  0  0  0  0  0  0  0
    2.0540    6.5214   11.3289 C   0  0  0  0  0  0  0  0  0  0  0  0
    0.5538    4.9986   10.0381 C   0  0  0  0  0  0  0  0  0  0  0  0
    2.8406    5.7686    9.2047 N   0  0  0  0  0  0  0  0  0  0  0  0
    3.0074    7.0256    8.6837 C   0  0  0  0  0  0  0  0  0  0  0  0
    2.3310    8.2021    8.8358 C   0  0  0  0  0  0  0  0  0  0  0  0
    2.7369    9.3406    8.1493 C   0  0  0  0  0  0  0  0  0  0  0  0
    3.8220    9.3265    7.2997 C   0  0  0  0  0  0  0  0  0  0  0  0
    4.5248    8.1444    7.1274 C   0  0  0  0  0  0  0  0  0  0  0  0
    4.0914    7.0511    7.8209 C   0  0  0  0  0  0  0  0  0  0  0  0
    4.5966    5.7807    7.8085 C   0  0  0  0  0  0  0  0  0  0  0  0
    5.6650    5.1384    7.2000 C   0  0  0  0  0  0  0  0  0  0  0  0
    6.6603    5.7176    6.2617 C   0  0  0  0  0  0  0  0  0  0  0  0
    7.5298    4.6247    5.9293 N   0  0  0  0  0  0  0  0  0  0  0  0
    7.1207    3.4280    6.6285 C   0  0  0  0  0  0  0  0  0  0  0  0
    7.7633    2.3792    6.4707 O   0  0  0  0  0  0  0  0  0  0  0  0
    5.9659    3.8019    7.3970 C   0  0  0  0  0  0  0  0  0  0  0  0
    5.1728    3.0376    8.2385 C   0  0  0  0  0  0  0  0  0  0  0  0
    5.1123    1.7363    8.6244 C   0  0  0  0  0  0  0  0  0  0  0  0
    5.8771    0.6393    8.3705 C   0  0  0  0  0  0  0  0  0  0  0  0
    5.4870   -0.5725    8.9690 C   0  0  0  0  0  0  0  0  0  0  0  0
    4.3832   -0.6754    9.7822 C   0  0  0  0  0  0  0  0  0  0  0  0
    3.6115    0.4473   10.0345 C   0  0  0  0  0  0  0  0  0  0  0  0
    4.0082    1.6301    9.4387 C   0  0  0  0  0  0  0  0  0  0  0  0
    3.4021    2.7940    9.5659 N   0  0  0  0  0  0  0  0  0  0  0  0
    4.1177    3.6934    8.8322 C   0  0  0  0  0  0  0  0  0  0  0  0
    3.8283    5.0473    8.6335 C   0  0  0  0  0  0  0  0  0  0  0  0
    8.3301    4.7273    5.2695 H   0  0  0  0  0  0  0  0  0  0  0  0
   -1.5953    4.9140   11.8541 C   0  0  0  0  0  0  0  0  0  0  0  0
   -0.5474    3.9254   11.9921 N   0  0  0  0  0  0  0  0  0  0  0  0
    0.1417    4.2782   12.6619 H   0  0  0  0  0  0  0  0  0  0  0  0
    0.0071    5.1527    8.7581 O   0  0  0  0  0  0  0  0  0  0  0  0
   -0.7770    6.2916    8.6199 C   0  0  0  0  0  0  0  0  0  0  0  0
 33 34  1  0  0  0
 34  1  1  0  0  0
  1  2  1  0  0  0
  2  3  1  0  0  0
  3  4  1  0  0  0
  4  5  1  0  0  0
  5  6  1  0  0  0
  5  7  1  0  0  0
  7 36  1  0  0  0
 36 37  1  0  0  0
  5  8  1  0  0  0
  8  9  1  0  0  0
  9 10  2  0  0  0
 10 11  1  0  0  0
 11 12  2  0  0  0
 12 13  1  0  0  0
 13 14  2  0  0  0
 14 15  1  0  0  0
 15 16  2  0  0  0
 16 17  1  0  0  0
 17 18  1  0  0  0
 18 19  1  0  0  0
 19 20  2  0  0  0
 19 21  1  0  0  0
 21 22  2  0  0  0
 22 23  1  0  0  0
 23 24  2  0  0  0
 24 25  1  0  0  0
 25 26  2  0  0  0
 26 27  1  0  0  0
 27 28  2  0  0  0
 28 29  1  0  0  0
 29 30  1  0  0  0
 30 31  2  0  0  0
  7  1  1  0  0  0
 31  8  1  0  0  0
 29  3  1  0  0  0
 14  9  1  0  0  0
 31 15  1  0  0  0
 21 16  1  0  0  0
 30 22  1  0  0  0
 28 23  1  0  0  0
 34 35  1  0  0  0
 18 32  1  0  0  0
M  END
> <minimizedAffinity>
-6.09427

> <CNNscore>
0.3646026552

> <CNNaffinity>
5.5038967133

> <CNN_VS>
2.0067353249

> <CNNaffinity_variance>
0.1045803279

$$$$
[H]c1c([H])c([H])c2c(c1[H])c1c3c(c4c5c([H])c([H])c([H])c([H])c5n5c4c1n2[C@]1([H])O[C@]5(C([H])([H])[H])[C@@]([H])(OC([H])([H])[H])[C@]([H])(N([H])C([H])([H])[H])C1([H])[H])C([H])([H])N([H])C3=O


 37 44  0  0  0  0  0  0  0  0999 V2000
    5.7991    0.7773    8.1932 C   0  0  0  0  0  0  0  0  0  0  0  0
    4.5611    0.8859    9.1410 C   0  0  0  0  0  0  0  0  0  0  0  0
    4.1521    2.1772    8.9017 C   0  0  0  0  0  0  0  0  0  0  0  0
    3.8175    2.1987    7.5571 O   0  0  0  0  0  0  0  0  0  0  0  0
    4.9311    2.8182    6.9064 C   0  0  0  0  0  0  0  0  0  0  0  0
    4.5913    2.5315    5.4177 C   0  0  0  0  0  0  0  0  0  0  0  0
    6.0617    2.0598    7.3801 C   0  0  0  0  0  0  0  0  0  0  0  0
    4.7674    4.2391    7.0761 N   0  0  0  0  0  0  0  0  0  0  0  0
    5.2162    5.2035    6.2114 C   0  0  0  0  0  0  0  0  0  0  0  0
    6.0188    5.1739    5.1070 C   0  0  0  0  0  0  0  0  0  0  0  0
    6.3174    6.3465    4.4229 C   0  0  0  0  0  0  0  0  0  0  0  0
    5.8227    7.5677    4.8273 C   0  0  0  0  0  0  0  0  0  0  0  0
    5.0064    7.6246    5.9460 C   0  0  0  0  0  0  0  0  0  0  0  0
    4.7393    6.4491    6.5871 C   0  0  0  0  0  0  0  0  0  0  0  0
    3.9865    6.2446    7.7098 C   0  0  0  0  0  0  0  0  0  0  0  0
    3.2213    7.0348    8.5550 C   0  0  0  0  0  0  0  0  0  0  0  0
    3.0025    8.5021    8.4784 C   0  0  0  0  0  0  0  0  0  0  0  0
    2.1490    8.8039    9.5926 N   0  0  0  0  0  0  0  0  0  0  0  0
    1.8313    7.5975   10.3220 C   0  0  0  0  0  0  0  0  0  0  0  0
    1.0936    7.6621   11.3167 O   0  0  0  0  0  0  0  0  0  0  0  0
    2.5193    6.5373    9.6390 C   0  0  0  0  0  0  0  0  0  0  0  0
    2.5674    5.1814    9.9228 C   0  0  0  0  0  0  0  0  0  0  0  0
    2.0839    4.3582   10.8895 C   0  0  0  0  0  0  0  0  0  0  0  0
    1.2783    4.5426   11.9710 C   0  0  0  0  0  0  0  0  0  0  0  0
    0.9898    3.4150   12.7612 C   0  0  0  0  0  0  0  0  0  0  0  0
    1.4865    2.1649   12.4773 C   0  0  0  0  0  0  0  0  0  0  0  0
    2.3055    1.9878   11.3739 C   0  0  0  0  0  0  0  0  0  0  0  0
    2.5795    3.1057   10.6081 C   0  0  0  0  0  0  0  0  0  0  0  0
    3.3324    3.1285    9.5259 N   0  0  0  0  0  0  0  0  0  0  0  0
    3.3323    4.4146    9.0727 C   0  0  0  0  0  0  0  0  0  0  0  0
    4.0303    4.9266    7.9740 C   0  0  0  0  0  0  0  0  0  0  0  0
    1.8303    9.7729    9.8068 H   0  0  0  0  0  0  0  0  0  0  0  0
    4.8583   -1.3524    8.0586 C   0  0  0  0  0  0  0  0  0  0  0  0
    5.7440   -0.4060    7.4149 N   0  0  0  0  0  0  0  0  0  0  0  0
    6.6727   -0.8308    7.3446 H   0  0  0  0  0  0  0  0  0  0  0  0
    7.1795    2.7597    7.8510 O   0  0  0  0  0  0  0  0  0  0  0  0
    8.2476    2.7678    6.9622 C   0  0  0  0  0  0  0  0  0  0  0  0
 33 34  1  0  0  0
 34  1  1  0  0  0
  1  2  1  0  0  0
  2  3  1  0  0  0
  3  4  1  0  0  0
  4  5  1  0  0  0
  5  6  1  0  0  0
  5  7  1  0  0  0
  7 36  1  0  0  0
 36 37  1  0  0  0
  5  8  1  0  0  0
  8  9  1  0  0  0
  9 10  2  0  0  0
 10 11  1  0  0  0
 11 12  2  0  0  0
 12 13  1  0  0  0
 13 14  2  0  0  0
 14 15  1  0  0  0
 15 16  2  0  0  0
 16 17  1  0  0  0
 17 18  1  0  0  0
 18 19  1  0  0  0
 19 20  2  0  0  0
 19 21  1  0  0  0
 21 22  2  0  0  0
 22 23  1  0  0  0
 23 24  2  0  0  0
 24 25  1  0  0  0
 25 26  2  0  0  0
 26 27  1  0  0  0
 27 28  2  0  0  0
 28 29  1  0  0  0
 29 30  1  0  0  0
 30 31  2  0  0  0
  7  1  1  0  0  0
 31  8  1  0  0  0
 29  3  1  0  0  0
 14  9  1  0  0  0
 31 15  1  0  0  0
 21 16  1  0  0  0
 30 22  1  0  0  0
 28 23  1  0  0  0
 34 35  1  0  0  0
 18 32  1  0  0  0
M  END
> <minimizedAffinity>
-5.48768

> <CNNscore>
0.3482978046

> <CNNaffinity>
5.5242333412

> <CNN_VS>
1.9240783453

> <CNNaffinity_variance>
0.2008551806

$$$$
[H]c1c([H])c([H])c2c(c1[H])c1c3c(c4c5c([H])c([H])c([H])c([H])c5n5c4c1n2[C@]1([H])O[C@]5(C([H])([H])[H])[C@@]([H])(OC([H])([H])[H])[C@]([H])(N([H])C([H])([H])[H])C1([H])[H])C([H])([H])N([H])C3=O


 37 44  0  0  0  0  0  0  0  0999 V2000
    1.2908    0.5892    9.8137 C   0  0  0  0  0  0  0  0  0  0  0  0
    0.6432    1.8684   10.4356 C   0  0  0  0  0  0  0  0  0  0  0  0
    1.6775    2.7695   10.3342 C   0  0  0  0  0  0  0  0  0  0  0  0
    1.9168    2.8814    8.9739 O   0  0  0  0  0  0  0  0  0  0  0  0
    3.0763    2.0785    8.7326 C   0  0  0  0  0  0  0  0  0  0  0  0
    3.0806    2.0374    7.1795 C   0  0  0  0  0  0  0  0  0  0  0  0
    2.7362    0.8099    9.3267 C   0  0  0  0  0  0  0  0  0  0  0  0
    4.2146    2.8791    9.1038 N   0  0  0  0  0  0  0  0  0  0  0  0
    5.4684    2.7864    8.5572 C   0  0  0  0  0  0  0  0  0  0  0  0
    6.0530    1.9046    7.6937 C   0  0  0  0  0  0  0  0  0  0  0  0
    7.3822    2.0633    7.3193 C   0  0  0  0  0  0  0  0  0  0  0  0
    8.1514    3.1015    7.7988 C   0  0  0  0  0  0  0  0  0  0  0  0
    7.5816    4.0096    8.6774 C   0  0  0  0  0  0  0  0  0  0  0  0
    6.2737    3.8156    9.0179 C   0  0  0  0  0  0  0  0  0  0  0  0
    5.4984    4.5519    9.8699 C   0  0  0  0  0  0  0  0  0  0  0  0
    5.6652    5.7012   10.6286 C   0  0  0  0  0  0  0  0  0  0  0  0
    6.8871    6.5357   10.7595 C   0  0  0  0  0  0  0  0  0  0  0  0
    6.5187    7.5848   11.6676 N   0  0  0  0  0  0  0  0  0  0  0  0
    5.1403    7.4345   12.0747 C   0  0  0  0  0  0  0  0  0  0  0  0
    4.6412    8.2586   12.8555 O   0  0  0  0  0  0  0  0  0  0  0  0
    4.6629    6.2568   11.4046 C   0  0  0  0  0  0  0  0  0  0  0  0
    3.4162    5.6525   11.4494 C   0  0  0  0  0  0  0  0  0  0  0  0
    2.2459    5.8533   12.1097 C   0  0  0  0  0  0  0  0  0  0  0  0
    1.8021    6.8032   12.9777 C   0  0  0  0  0  0  0  0  0  0  0  0
    0.4885    6.6708   13.4636 C   0  0  0  0  0  0  0  0  0  0  0  0
   -0.3370    5.6353   13.0945 C   0  0  0  0  0  0  0  0  0  0  0  0
    0.1243    4.6737   12.2101 C   0  0  0  0  0  0  0  0  0  0  0  0
    1.4173    4.8180   11.7422 C   0  0  0  0  0  0  0  0  0  0  0  0
    2.0222    4.0068   10.8970 N   0  0  0  0  0  0  0  0  0  0  0  0
    3.2713    4.5132   10.6901 C   0  0  0  0  0  0  0  0  0  0  0  0
    4.2884    3.9655    9.9016 C   0  0  0  0  0  0  0  0  0  0  0  0
    7.1866    8.3280   11.9643 H   0  0  0  0  0  0  0  0  0  0  0  0
   -0.9161    0.4732    9.0687 C   0  0  0  0  0  0  0  0  0  0  0  0
    0.4341    0.0001    8.8503 N   0  0  0  0  0  0  0  0  0  0  0  0
    0.4373   -1.0191    8.9452 H   0  0  0  0  0  0  0  0  0  0  0  0
    3.6728    0.2003   10.1706 O   0  0  0  0  0  0  0  0  0  0  0  0
    4.3647   -0.8459    9.5724 C   0  0  0  0  0  0  0  0  0  0  0  0
 33 34  1  0  0  0
 34  1  1  0  0  0
  1  2  1  0  0  0
  2  3  1  0  0  0
  3  4  1  0  0  0
  4  5  1  0  0  0
  5  6  1  0  0  0
  5  7  1  0  0  0
  7 36  1  0  0  0
 36 37  1  0  0  0
  5  8  1  0  0  0
  8  9  1  0  0  0
  9 10  2  0  0  0
 10 11  1  0  0  0
 11 12  2  0  0  0
 12 13  1  0  0  0
 13 14  2  0  0  0
 14 15  1  0  0  0
 15 16  2  0  0  0
 16 17  1  0  0  0
 17 18  1  0  0  0
 18 19  1  0  0  0
 19 20  2  0  0  0
 19 21  1  0  0  0
 21 22  2  0  0  0
 22 23  1  0  0  0
 23 24  2  0  0  0
 24 25  1  0  0  0
 25 26  2  0  0  0
 26 27  1  0  0  0
 27 28  2  0  0  0
 28 29  1  0  0  0
 29 30  1  0  0  0
 30 31  2  0  0  0
  7  1  1  0  0  0
 31  8  1  0  0  0
 29  3  1  0  0  0
 14  9  1  0  0  0
 31 15  1  0  0  0
 21 16  1  0  0  0
 30 22  1  0  0  0
 28 23  1  0  0  0
 34 35  1  0  0  0
 18 32  1  0  0  0
M  END
> <minimizedAffinity>
-6.19678

> <CNNscore>
0.3260380626

> <CNNaffinity>
5.5762796402

> <CNN_VS>
1.8180793524

> <CNNaffinity_variance>
0.1525647193

$$$$
[H]c1c([H])c([H])c2c(c1[H])c1c3c(c4c5c([H])c([H])c([H])c([H])c5n5c4c1n2[C@]1([H])O[C@]5(C([H])([H])[H])[C@@]([H])(OC([H])([H])[H])[C@]([H])(N([H])C([H])([H])[H])C1([H])[H])C([H])([H])N([H])C3=O


 37 44  0  0  0  0  0  0  0  0999 V2000
    5.3513    6.2183   10.3684 C   0  0  0  0  0  0  0  0  0  0  0  0
    5.8870    7.0333    9.1471 C   0  0  0  0  0  0  0  0  0  0  0  0
    4.7238    7.2723    8.4529 C   0  0  0  0  0  0  0  0  0  0  0  0
    3.9450    8.0259    9.3166 O   0  0  0  0  0  0  0  0  0  0  0  0
    2.9982    7.1037    9.8647 C   0  0  0  0  0  0  0  0  0  0  0  0
    2.3863    7.9625   11.0057 C   0  0  0  0  0  0  0  0  0  0  0  0
    3.8223    6.0265   10.3531 C   0  0  0  0  0  0  0  0  0  0  0  0
    1.9530    6.9572    8.8846 N   0  0  0  0  0  0  0  0  0  0  0  0
    0.6413    6.6640    9.1539 C   0  0  0  0  0  0  0  0  0  0  0  0
   -0.0237    6.2915   10.2870 C   0  0  0  0  0  0  0  0  0  0  0  0
   -1.3907    6.0422   10.2504 C   0  0  0  0  0  0  0  0  0  0  0  0
   -2.1179    6.1588    9.0855 C   0  0  0  0  0  0  0  0  0  0  0  0
   -1.4660    6.5346    7.9215 C   0  0  0  0  0  0  0  0  0  0  0  0
   -0.1235    6.7694    8.0032 C   0  0  0  0  0  0  0  0  0  0  0  0
    0.7392    7.1295    7.0057 C   0  0  0  0  0  0  0  0  0  0  0  0
    0.6339    7.4239    5.6542 C   0  0  0  0  0  0  0  0  0  0  0  0
   -0.5888    7.4025    4.8108 C   0  0  0  0  0  0  0  0  0  0  0  0
   -0.1361    7.7726    3.4998 N   0  0  0  0  0  0  0  0  0  0  0  0
    1.2858    8.0303    3.5145 C   0  0  0  0  0  0  0  0  0  0  0  0
    1.8547    8.3731    2.4672 O   0  0  0  0  0  0  0  0  0  0  0  0
    1.7090    7.7996    4.8678 C   0  0  0  0  0  0  0  0  0  0  0  0
    2.9718    7.8915    5.4320 C   0  0  0  0  0  0  0  0  0  0  0  0
    4.2302    8.1589    4.9952 C   0  0  0  0  0  0  0  0  0  0  0  0
    4.7564    8.5155    3.7915 C   0  0  0  0  0  0  0  0  0  0  0  0
    6.1479    8.7125    3.7279 C   0  0  0  0  0  0  0  0  0  0  0  0
    6.9685    8.5589    4.8202 C   0  0  0  0  0  0  0  0  0  0  0  0
    6.4229    8.1960    6.0410 C   0  0  0  0  0  0  0  0  0  0  0  0
    5.0542    8.0059    6.0866 C   0  0  0  0  0  0  0  0  0  0  0  0
    4.3626    7.6633    7.1555 N   0  0  0  0  0  0  0  0  0  0  0  0
    3.0552    7.5950    6.7739 C   0  0  0  0  0  0  0  0  0  0  0  0
    1.9601    7.2255    7.5617 C   0  0  0  0  0  0  0  0  0  0  0  0
   -0.7795    7.8321    2.6819 H   0  0  0  0  0  0  0  0  0  0  0  0
    6.9756    7.6092   11.2991 C   0  0  0  0  0  0  0  0  0  0  0  0
    5.8631    6.7296   11.5873 N   0  0  0  0  0  0  0  0  0  0  0  0
    6.2012    5.9669   12.1806 H   0  0  0  0  0  0  0  0  0  0  0  0
    3.4616    4.7139   10.0245 O   0  0  0  0  0  0  0  0  0  0  0  0
    2.8779    4.0162   11.0750 C   0  0  0  0  0  0  0  0  0  0  0  0
 33 34  1  0  0  0
 34  1  1  0  0  0
  1  2  1  0  0  0
  2  3  1  0  0  0
  3  4  1  0  0  0
  4  5  1  0  0  0
  5  6  1  0  0  0
  5  7  1  0  0  0
  7 36  1  0  0  0
 36 37  1  0  0  0
  5  8  1  0  0  0
  8  9  1  0  0  0
  9 10  2  0  0  0
 10 11  1  0  0  0
 11 12  2  0  0  0
 12 13  1  0  0  0
 13 14  2  0  0  0
 14 15  1  0  0  0
 15 16  2  0  0  0
 16 17  1  0  0  0
 17 18  1  0  0  0
 18 19  1  0  0  0
 19 20  2  0  0  0
 19 21  1  0  0  0
 21 22  2  0  0  0
 22 23  1  0  0  0
 23 24  2  0  0  0
 24 25  1  0  0  0
 25 26  2  0  0  0
 26 27  1  0  0  0
 27 28  2  0  0  0
 28 29  1  0  0  0
 29 30  1  0  0  0
 30 31  2  0  0  0
  7  1  1  0  0  0
 31  8  1  0  0  0
 29  3  1  0  0  0
 14  9  1  0  0  0
 31 15  1  0  0  0
 21 16  1  0  0  0
 30 22  1  0  0  0
 28 23  1  0  0  0
 34 35  1  0  0  0
 18 32  1  0  0  0
M  END
> <minimizedAffinity>
-6.14182

> <CNNscore>
0.3206593692

> <CNNaffinity>
5.4089956284

> <CNN_VS>
1.7344450951

> <CNNaffinity_variance>
0.4212742448

$$$$
[H]c1c([H])c(C(=O)N([H])c2nc3c([H])c([H])c(Cl)c([H])c3s2)c([H])c(OC([H])([H])C2([H])C([H])([H])C2([H])[H])c1OC([H])(F)F


 29 32  0  0  0  0  0  0  0  0999 V2000
    3.5953    0.8077   18.8238 C   0  0  0  0  0  0  0  0  0  0  0  0
    2.8098    0.0423   18.0043 C   0  0  0  0  0  0  0  0  0  0  0  0
    2.4887    0.4497   16.7162 C   0  0  0  0  0  0  0  0  0  0  0  0
    2.9704    1.6424   16.2628 C   0  0  0  0  0  0  0  0  0  0  0  0
    3.7685    2.4100   17.1093 C   0  0  0  0  0  0  0  0  0  0  0  0
    4.1126    2.0523   18.3837 C   0  0  0  0  0  0  0  0  0  0  0  0
    2.6631    2.1174   14.9174 C   0  0  0  0  0  0  0  0  0  0  0  0
    3.5031    2.8012   14.2615 O   0  0  0  0  0  0  0  0  0  0  0  0
    1.4229    1.8319   14.3026 N   0  0  0  0  0  0  0  0  0  0  0  0
    0.6433    1.2828   14.7243 H   0  0  0  0  0  0  0  0  0  0  0  0
    1.2168    2.3495   12.9653 C   0  0  0  0  0  0  0  0  0  0  0  0
    0.6063    3.4613   12.6024 N   0  0  0  0  0  0  0  0  0  0  0  0
    0.5165    3.7668   11.3386 C   0  0  0  0  0  0  0  0  0  0  0  0
   -0.1078    4.9217   10.8141 C   0  0  0  0  0  0  0  0  0  0  0  0
   -0.1311    5.1196    9.4741 C   0  0  0  0  0  0  0  0  0  0  0  0
    0.4200    4.2627    8.5485 C   0  0  0  0  0  0  0  0  0  0  0  0
    0.3152    4.6443    6.8583 Cl  0  0  0  0  0  0  0  0  0  0  0  0
    1.0295    3.1357    9.0548 C   0  0  0  0  0  0  0  0  0  0  0  0
    1.0724    2.8988   10.4359 C   0  0  0  0  0  0  0  0  0  0  0  0
    1.6953    1.6872   11.4645 S   0  0  0  0  0  0  0  0  0  0  0  0
    3.9280    0.4277   20.1025 O   0  0  0  0  0  0  0  0  0  0  0  0
    3.3897    0.6730   22.3338 F   0  0  0  0  0  0  0  0  0  0  0  0
    3.0605    0.0674   21.1256 C   0  0  0  0  0  0  0  0  0  0  0  0
    3.2335   -1.3055   21.3496 F   0  0  0  0  0  0  0  0  0  0  0  0
    4.8565    2.7542   19.1852 O   0  0  0  0  0  0  0  0  0  0  0  0
    5.1166    3.6893   20.0752 C   0  0  0  0  0  0  0  0  0  0  0  0
    5.3194    3.3514   21.5247 C   0  0  0  0  0  0  0  0  0  0  0  0
    6.2752    2.3578   22.0275 C   0  0  0  0  0  0  0  0  0  0  0  0
    6.6035    3.7975   22.2059 C   0  0  0  0  0  0  0  0  0  0  0  0
 22 23  1  0  0  0
 23 24  1  0  0  0
 23 21  1  0  0  0
 21  1  1  0  0  0
  1  2  2  0  0  0
  2  3  1  0  0  0
  3  4  2  0  0  0
  4  5  1  0  0  0
  5  6  2  0  0  0
  6 25  1  0  0  0
 25 26  1  0  0  0
 26 27  1  0  0  0
 27 28  1  0  0  0
 28 29  1  0  0  0
  4  7  1  0  0  0
  7  8  2  0  0  0
  7  9  1  0  0  0
  9 11  1  0  0  0
 11 12  2  0  0  0
 12 13  1  0  0  0
 13 14  2  0  0  0
 14 15  1  0  0  0
 15 16  2  0  0  0
 16 17  1  0  0  0
 16 18  1  0  0  0
 18 19  2  0  0  0
 19 20  1  0  0  0
  6  1  1  0  0  0
 29 27  1  0  0  0
 20 11  1  0  0  0
 19 13  1  0  0  0
  9 10  1  0  0  0
M  END
> <minimizedAffinity>
-7.27483

> <CNNscore>
0.4920742810

> <CNNaffinity>
6.0671210289

> <CNN_VS>
2.9854741096

> <CNNaffinity_variance>
0.1077295691

$$$$
[H]c1c([H])c(C(=O)N([H])c2nc3c([H])c([H])c(Cl)c([H])c3s2)c([H])c(OC([H])([H])C2([H])C([H])([H])C2([H])[H])c1OC([H])(F)F


 29 32  0  0  0  0  0  0  0  0999 V2000
    4.8735   -0.8636    8.2721 C   0  0  0  0  0  0  0  0  0  0  0  0
    3.6662   -1.3706    8.6720 C   0  0  0  0  0  0  0  0  0  0  0  0
    2.7122   -0.5744    9.2917 C   0  0  0  0  0  0  0  0  0  0  0  0
    2.9909    0.7437    9.5043 C   0  0  0  0  0  0  0  0  0  0  0  0
    4.2245    1.2445    9.0915 C   0  0  0  0  0  0  0  0  0  0  0  0
    5.1951    0.5019    8.4777 C   0  0  0  0  0  0  0  0  0  0  0  0
    2.0234    1.6243   10.1513 C   0  0  0  0  0  0  0  0  0  0  0  0
    1.1088    1.1542   10.8901 O   0  0  0  0  0  0  0  0  0  0  0  0
    2.0736    3.0258    9.9766 N   0  0  0  0  0  0  0  0  0  0  0  0
    2.7689    3.5457    9.3992 H   0  0  0  0  0  0  0  0  0  0  0  0
    1.0674    3.8108   10.6622 C   0  0  0  0  0  0  0  0  0  0  0  0
    1.2006    4.5398   11.7538 N   0  0  0  0  0  0  0  0  0  0  0  0
    0.1729    5.1841   12.2305 C   0  0  0  0  0  0  0  0  0  0  0  0
    0.1764    5.9976   13.3867 C   0  0  0  0  0  0  0  0  0  0  0  0
   -0.9659    6.6139   13.7747 C   0  0  0  0  0  0  0  0  0  0  0  0
   -2.1705    6.5119   13.1165 C   0  0  0  0  0  0  0  0  0  0  0  0
   -3.5562    7.3593   13.7289 Cl  0  0  0  0  0  0  0  0  0  0  0  0
   -2.1790    5.7202   11.9891 C   0  0  0  0  0  0  0  0  0  0  0  0
   -1.0154    5.0675   11.5585 C   0  0  0  0  0  0  0  0  0  0  0  0
   -0.5818    4.0316   10.2728 S   0  0  0  0  0  0  0  0  0  0  0  0
    5.8350   -1.6299    7.6567 O   0  0  0  0  0  0  0  0  0  0  0  0
    6.7015   -3.3195    6.3441 F   0  0  0  0  0  0  0  0  0  0  0  0
    5.7049   -2.3589    6.4818 C   0  0  0  0  0  0  0  0  0  0  0  0
    5.9101   -1.4689    5.4184 F   0  0  0  0  0  0  0  0  0  0  0  0
    6.3488    0.9526    8.0848 O   0  0  0  0  0  0  0  0  0  0  0  0
    7.3496    1.8064    8.0243 C   0  0  0  0  0  0  0  0  0  0  0  0
    7.6817    2.5297    6.7504 C   0  0  0  0  0  0  0  0  0  0  0  0
    7.6724    3.9882    6.5883 C   0  0  0  0  0  0  0  0  0  0  0  0
    8.9893    3.3013    6.6683 C   0  0  0  0  0  0  0  0  0  0  0  0
 22 23  1  0  0  0
 23 24  1  0  0  0
 23 21  1  0  0  0
 21  1  1  0  0  0
  1  2  2  0  0  0
  2  3  1  0  0  0
  3  4  2  0  0  0
  4  5  1  0  0  0
  5  6  2  0  0  0
  6 25  1  0  0  0
 25 26  1  0  0  0
 26 27  1  0  0  0
 27 28  1  0  0  0
 28 29  1  0  0  0
  4  7  1  0  0  0
  7  8  2  0  0  0
  7  9  1  0  0  0
  9 11  1  0  0  0
 11 12  2  0  0  0
 12 13  1  0  0  0
 13 14  2  0  0  0
 14 15  1  0  0  0
 15 16  2  0  0  0
 16 17  1  0  0  0
 16 18  1  0  0  0
 18 19  2  0  0  0
 19 20  1  0  0  0
  6  1  1  0  0  0
 29 27  1  0  0  0
 20 11  1  0  0  0
 19 13  1  0  0  0
  9 10  1  0  0  0
M  END
> <minimizedAffinity>
-4.80705

> <CNNscore>
0.4589012563

> <CNNaffinity>
5.2746481895

> <CNN_VS>
2.4205427170

> <CNNaffinity_variance>
0.6170961261

$$$$
[H]c1c([H])c(C(=O)N([H])c2nc3c([H])c([H])c(Cl)c([H])c3s2)c([H])c(OC([H])([H])C2([H])C([H])([H])C2([H])[H])c1OC([H])(F)F


 29 32  0  0  0  0  0  0  0  0999 V2000
    2.8209    3.3172   12.3074 C   0  0  0  0  0  0  0  0  0  0  0  0
    2.5815    2.1556   12.9914 C   0  0  0  0  0  0  0  0  0  0  0  0
    2.9658    1.9993   14.3165 C   0  0  0  0  0  0  0  0  0  0  0  0
    3.5967    3.0317   14.9460 C   0  0  0  0  0  0  0  0  0  0  0  0
    3.8331    4.2076   14.2359 C   0  0  0  0  0  0  0  0  0  0  0  0
    3.4740    4.4098   12.9319 C   0  0  0  0  0  0  0  0  0  0  0  0
    4.0214    2.9198   16.3379 C   0  0  0  0  0  0  0  0  0  0  0  0
    5.1143    3.4273   16.7271 O   0  0  0  0  0  0  0  0  0  0  0  0
    3.2313    2.2442   17.2953 N   0  0  0  0  0  0  0  0  0  0  0  0
    2.3143    1.7820   17.1152 H   0  0  0  0  0  0  0  0  0  0  0  0
    3.7424    2.1894   18.6497 C   0  0  0  0  0  0  0  0  0  0  0  0
    4.2872    3.1590   19.3595 N   0  0  0  0  0  0  0  0  0  0  0  0
    4.6934    2.9211   20.5748 C   0  0  0  0  0  0  0  0  0  0  0  0
    5.2918    3.8643   21.4413 C   0  0  0  0  0  0  0  0  0  0  0  0
    5.6698    3.4843   22.6856 C   0  0  0  0  0  0  0  0  0  0  0  0
    5.5155    2.2150   23.1950 C   0  0  0  0  0  0  0  0  0  0  0  0
    6.0474    1.8695   24.8108 Cl  0  0  0  0  0  0  0  0  0  0  0  0
    4.9328    1.2922   22.3542 C   0  0  0  0  0  0  0  0  0  0  0  0
    4.5294    1.6504   21.0603 C   0  0  0  0  0  0  0  0  0  0  0  0
    3.7962    0.8680   19.7319 S   0  0  0  0  0  0  0  0  0  0  0  0
    2.4509    3.4978   10.9956 O   0  0  0  0  0  0  0  0  0  0  0  0
    1.3323    2.1423    9.4989 F   0  0  0  0  0  0  0  0  0  0  0  0
    1.2288    3.1836   10.4154 C   0  0  0  0  0  0  0  0  0  0  0  0
    0.8331    4.2948    9.6580 F   0  0  0  0  0  0  0  0  0  0  0  0
    3.6847    5.4993   12.2558 O   0  0  0  0  0  0  0  0  0  0  0  0
    4.2975    6.2764   11.3869 C   0  0  0  0  0  0  0  0  0  0  0  0
    5.1151    5.7003   10.2663 C   0  0  0  0  0  0  0  0  0  0  0  0
    6.2595    6.3681    9.6351 C   0  0  0  0  0  0  0  0  0  0  0  0
    6.5328    5.2360   10.5604 C   0  0  0  0  0  0  0  0  0  0  0  0
 22 23  1  0  0  0
 23 24  1  0  0  0
 23 21  1  0  0  0
 21  1  1  0  0  0
  1  2  2  0  0  0
  2  3  1  0  0  0
  3  4  2  0  0  0
  4  5  1  0  0  0
  5  6  2  0  0  0
  6 25  1  0  0  0
 25 26  1  0  0  0
 26 27  1  0  0  0
 27 28  1  0  0  0
 28 29  1  0  0  0
  4  7  1  0  0  0
  7  8  2  0  0  0
  7  9  1  0  0  0
  9 11  1  0  0  0
 11 12  2  0  0  0
 12 13  1  0  0  0
 13 14  2  0  0  0
 14 15  1  0  0  0
 15 16  2  0  0  0
 16 17  1  0  0  0
 16 18  1  0  0  0
 18 19  2  0  0  0
 19 20  1  0  0  0
  6  1  1  0  0  0
 29 27  1  0  0  0
 20 11  1  0  0  0
 19 13  1  0  0  0
  9 10  1  0  0  0
M  END
> <minimizedAffinity>
-6.18811

> <CNNscore>
0.3189296722

> <CNNaffinity>
5.9948253632

> <CNN_VS>
1.9119277000

> <CNNaffinity_variance>
0.5178683400

$$$$
[H]c1c([H])c(C(=O)N([H])c2nc3c([H])c([H])c(Cl)c([H])c3s2)c([H])c(OC([H])([H])C2([H])C([H])([H])C2([H])[H])c1OC([H])(F)F


 29 32  0  0  0  0  0  0  0  0999 V2000
    2.1355    3.3755   11.9345 C   0  0  0  0  0  0  0  0  0  0  0  0
    2.4920    2.1558   12.4441 C   0  0  0  0  0  0  0  0  0  0  0  0
    2.9641    2.0198   13.7429 C   0  0  0  0  0  0  0  0  0  0  0  0
    3.0732    3.1322   14.5244 C   0  0  0  0  0  0  0  0  0  0  0  0
    2.7064    4.3666   13.9909 C   0  0  0  0  0  0  0  0  0  0  0  0
    2.2363    4.5516   12.7200 C   0  0  0  0  0  0  0  0  0  0  0  0
    3.5636    3.0449   15.8963 C   0  0  0  0  0  0  0  0  0  0  0  0
    4.5418    3.7497   16.2832 O   0  0  0  0  0  0  0  0  0  0  0  0
    2.9664    2.1748   16.8363 N   0  0  0  0  0  0  0  0  0  0  0  0
    2.1585    1.5409   16.6558 H   0  0  0  0  0  0  0  0  0  0  0  0
    3.5280    2.1631   18.1716 C   0  0  0  0  0  0  0  0  0  0  0  0
    4.0615    3.1647   18.8446 N   0  0  0  0  0  0  0  0  0  0  0  0
    4.5202    2.9636   20.0479 C   0  0  0  0  0  0  0  0  0  0  0  0
    5.1139    3.9436   20.8760 C   0  0  0  0  0  0  0  0  0  0  0  0
    5.5508    3.6002   22.1115 C   0  0  0  0  0  0  0  0  0  0  0  0
    5.4629    2.3353   22.6472 C   0  0  0  0  0  0  0  0  0  0  0  0
    6.0658    2.0385   24.2477 Cl  0  0  0  0  0  0  0  0  0  0  0  0
    4.8851    1.3767   21.8438 C   0  0  0  0  0  0  0  0  0  0  0  0
    4.4218    1.6966   20.5600 C   0  0  0  0  0  0  0  0  0  0  0  0
    3.6707    0.8642   19.2727 S   0  0  0  0  0  0  0  0  0  0  0  0
    1.6654    3.5376   10.6527 O   0  0  0  0  0  0  0  0  0  0  0  0
    0.8834    2.3833    8.8130 F   0  0  0  0  0  0  0  0  0  0  0  0
    0.5790    2.8996   10.0682 C   0  0  0  0  0  0  0  0  0  0  0  0
   -0.3961    3.8783    9.8306 F   0  0  0  0  0  0  0  0  0  0  0  0
    1.8882    5.6938   12.2075 O   0  0  0  0  0  0  0  0  0  0  0  0
    1.0574    6.5846   11.7070 C   0  0  0  0  0  0  0  0  0  0  0  0
   -0.4264    6.4672   11.9090 C   0  0  0  0  0  0  0  0  0  0  0  0
   -1.0828    5.4297   12.7130 C   0  0  0  0  0  0  0  0  0  0  0  0
   -1.0067    6.8056   13.2731 C   0  0  0  0  0  0  0  0  0  0  0  0
 22 23  1  0  0  0
 23 24  1  0  0  0
 23 21  1  0  0  0
 21  1  1  0  0  0
  1  2  2  0  0  0
  2  3  1  0  0  0
  3  4  2  0  0  0
  4  5  1  0  0  0
  5  6  2  0  0  0
  6 25  1  0  0  0
 25 26  1  0  0  0
 26 27  1  0  0  0
 27 28  1  0  0  0
 28 29  1  0  0  0
  4  7  1  0  0  0
  7  8  2  0  0  0
  7  9  1  0  0  0
  9 11  1  0  0  0
 11 12  2  0  0  0
 12 13  1  0  0  0
 13 14  2  0  0  0
 14 15  1  0  0  0
 15 16  2  0  0  0
 16 17  1  0  0  0
 16 18  1  0  0  0
 18 19  2  0  0  0
 19 20  1  0  0  0
  6  1  1  0  0  0
 29 27  1  0  0  0
 20 11  1  0  0  0
 19 13  1  0  0  0
  9 10  1  0  0  0
M  END
> <minimizedAffinity>
-6.34582

> <CNNscore>
0.2959983051

> <CNNaffinity>
5.9972171783

> <CNN_VS>
1.7751661539

> <CNNaffinity_variance>
0.4804473817

$$$$
[H]c1c([H])c(C(=O)N([H])c2nc3c([H])c([H])c(Cl)c([H])c3s2)c([H])c(OC([H])([H])C2([H])C([H])([H])C2([H])[H])c1OC([H])(F)F


 29 32  0  0  0  0  0  0  0  0999 V2000
    1.7797    3.4354   11.8070 C   0  0  0  0  0  0  0  0  0  0  0  0
    2.4787    2.3488   12.2602 C   0  0  0  0  0  0  0  0  0  0  0  0
    2.8294    2.2154   13.5971 C   0  0  0  0  0  0  0  0  0  0  0  0
    2.4658    3.1941   14.4747 C   0  0  0  0  0  0  0  0  0  0  0  0
    1.7547    4.2939   13.9977 C   0  0  0  0  0  0  0  0  0  0  0  0
    1.3861    4.4704   12.6926 C   0  0  0  0  0  0  0  0  0  0  0  0
    2.8091    3.1031   15.8904 C   0  0  0  0  0  0  0  0  0  0  0  0
    2.1950    3.7958   16.7543 O   0  0  0  0  0  0  0  0  0  0  0  0
    3.8342    2.2425   16.3442 N   0  0  0  0  0  0  0  0  0  0  0  0
    4.4181    1.6186   15.7468 H   0  0  0  0  0  0  0  0  0  0  0  0
    4.0969    2.2260   17.7688 C   0  0  0  0  0  0  0  0  0  0  0  0
    3.6631    1.3676   18.6718 N   0  0  0  0  0  0  0  0  0  0  0  0
    4.0069    1.5135   19.9205 C   0  0  0  0  0  0  0  0  0  0  0  0
    3.6150    0.6702   20.9853 C   0  0  0  0  0  0  0  0  0  0  0  0
    4.0451    0.9356   22.2422 C   0  0  0  0  0  0  0  0  0  0  0  0
    4.8589    1.9924   22.5822 C   0  0  0  0  0  0  0  0  0  0  0  0
    5.3327    2.2112   24.2377 Cl  0  0  0  0  0  0  0  0  0  0  0  0
    5.2435    2.8172   21.5478 C   0  0  0  0  0  0  0  0  0  0  0  0
    4.8173    2.5725   20.2349 C   0  0  0  0  0  0  0  0  0  0  0  0
    5.0383    3.3004   18.7066 S   0  0  0  0  0  0  0  0  0  0  0  0
    1.4202    3.5918   10.4892 O   0  0  0  0  0  0  0  0  0  0  0  0
    2.9658    5.1900    9.8682 F   0  0  0  0  0  0  0  0  0  0  0  0
    2.1995    4.1033    9.4596 C   0  0  0  0  0  0  0  0  0  0  0  0
    1.3230    4.6201    8.4955 F   0  0  0  0  0  0  0  0  0  0  0  0
    0.7220    5.4875   12.2313 O   0  0  0  0  0  0  0  0  0  0  0  0
    0.5559    6.7219   11.8035 C   0  0  0  0  0  0  0  0  0  0  0  0
    1.0778    7.8945   12.5838 C   0  0  0  0  0  0  0  0  0  0  0  0
    1.9426    7.7964   13.7655 C   0  0  0  0  0  0  0  0  0  0  0  0
    2.5555    8.2385   12.4843 C   0  0  0  0  0  0  0  0  0  0  0  0
 22 23  1  0  0  0
 23 24  1  0  0  0
 23 21  1  0  0  0
 21  1  1  0  0  0
  1  2  2  0  0  0
  2  3  1  0  0  0
  3  4  2  0  0  0
  4  5  1  0  0  0
  5  6  2  0  0  0
  6 25  1  0  0  0
 25 26  1  0  0  0
 26 27  1  0  0  0
 27 28  1  0  0  0
 28 29  1  0  0  0
  4  7  1  0  0  0
  7  8  2  0  0  0
  7  9  1  0  0  0
  9 11  1  0  0  0
 11 12  2  0  0  0
 12 13  1  0  0  0
 13 14  2  0  0  0
 14 15  1  0  0  0
 15 16  2  0  0  0
 16 17  1  0  0  0
 16 18  1  0  0  0
 18 19  2  0  0  0
 19 20  1  0  0  0
  6  1  1  0  0  0
 29 27  1  0  0  0
 20 11  1  0  0  0
 19 13  1  0  0  0
  9 10  1  0  0  0
M  END
> <minimizedAffinity>
-6.63688

> <CNNscore>
0.2718650401

> <CNNaffinity>
6.0585489273

> <CNN_VS>
1.6471076012

> <CNNaffinity_variance>
0.3164860904

$$$$
[H]c1c([H])c(C(=O)N([H])c2nc3c([H])c([H])c(Cl)c([H])c3s2)c([H])c(OC([H])([H])C2([H])C([H])([H])C2([H])[H])c1OC([H])(F)F


 29 32  0  0  0  0  0  0  0  0999 V2000
    2.8710    7.3623   14.2119 C   0  0  0  0  0  0  0  0  0  0  0  0
    2.4667    8.4599   13.5004 C   0  0  0  0  0  0  0  0  0  0  0  0
    1.9263    8.3425   12.2267 C   0  0  0  0  0  0  0  0  0  0  0  0
    1.7981    7.1010   11.6768 C   0  0  0  0  0  0  0  0  0  0  0  0
    2.2144    5.9937   12.4140 C   0  0  0  0  0  0  0  0  0  0  0  0
    2.7514    6.0575   13.6701 C   0  0  0  0  0  0  0  0  0  0  0  0
    1.2366    6.9218   10.3417 C   0  0  0  0  0  0  0  0  0  0  0  0
    1.9845    6.8914    9.3204 O   0  0  0  0  0  0  0  0  0  0  0  0
   -0.1552    6.7765   10.1431 N   0  0  0  0  0  0  0  0  0  0  0  0
   -0.8833    6.7822   10.8894 H   0  0  0  0  0  0  0  0  0  0  0  0
   -0.6107    6.6041    8.7788 C   0  0  0  0  0  0  0  0  0  0  0  0
   -0.9794    7.5307    7.9150 N   0  0  0  0  0  0  0  0  0  0  0  0
   -1.3635    7.1837    6.7190 C   0  0  0  0  0  0  0  0  0  0  0  0
   -1.7822    8.0700    5.7003 C   0  0  0  0  0  0  0  0  0  0  0  0
   -2.1577    7.5758    4.4960 C   0  0  0  0  0  0  0  0  0  0  0  0
   -2.1666    6.2388    4.1690 C   0  0  0  0  0  0  0  0  0  0  0  0
   -2.6735    5.7477    2.5832 Cl  0  0  0  0  0  0  0  0  0  0  0  0
   -1.7593    5.3711    5.1586 C   0  0  0  0  0  0  0  0  0  0  0  0
   -1.3640    5.8474    6.4164 C   0  0  0  0  0  0  0  0  0  0  0  0
   -0.8084    5.1648    7.8791 S   0  0  0  0  0  0  0  0  0  0  0  0
    3.4089    7.4508   15.4741 O   0  0  0  0  0  0  0  0  0  0  0  0
    4.1182    9.5101   16.2389 F   0  0  0  0  0  0  0  0  0  0  0  0
    4.4931    8.2211   15.8743 C   0  0  0  0  0  0  0  0  0  0  0  0
    5.3181    8.3872   14.7533 F   0  0  0  0  0  0  0  0  0  0  0  0
    3.1427    5.0362   14.3718 O   0  0  0  0  0  0  0  0  0  0  0  0
    3.0467    4.1057   15.2987 C   0  0  0  0  0  0  0  0  0  0  0  0
    3.5105    2.6999   15.0435 C   0  0  0  0  0  0  0  0  0  0  0  0
    3.0726    1.5226   15.8024 C   0  0  0  0  0  0  0  0  0  0  0  0
    2.5349    1.7094   14.4282 C   0  0  0  0  0  0  0  0  0  0  0  0
 22 23  1  0  0  0
 23 24  1  0  0  0
 23 21  1  0  0  0
 21  1  1  0  0  0
  1  2  2  0  0  0
  2  3  1  0  0  0
  3  4  2  0  0  0
  4  5  1  0  0  0
  5  6  2  0  0  0
  6 25  1  0  0  0
 25 26  1  0  0  0
 26 27  1  0  0  0
 27 28  1  0  0  0
 28 29  1  0  0  0
  4  7  1  0  0  0
  7  8  2  0  0  0
  7  9  1  0  0  0
  9 11  1  0  0  0
 11 12  2  0  0  0
 12 13  1  0  0  0
 13 14  2  0  0  0
 14 15  1  0  0  0
 15 16  2  0  0  0
 16 17  1  0  0  0
 16 18  1  0  0  0
 18 19  2  0  0  0
 19 20  1  0  0  0
  6  1  1  0  0  0
 29 27  1  0  0  0
 20 11  1  0  0  0
 19 13  1  0  0  0
  9 10  1  0  0  0
M  END
> <minimizedAffinity>
-4.77382

> <CNNscore>
0.2613355517

> <CNNaffinity>
5.3255496025

> <CNN_VS>
1.3917554617

> <CNNaffinity_variance>
0.9144045711

$$$$
[H]c1c([H])c(C(=O)N([H])c2nc3c([H])c([H])c(Cl)c([H])c3s2)c([H])c(OC([H])([H])C2([H])C([H])([H])C2([H])[H])c1OC([H])(F)F


 29 32  0  0  0  0  0  0  0  0999 V2000
    1.5224    2.7680   10.6016 C   0  0  0  0  0  0  0  0  0  0  0  0
    2.1227    1.9063   11.4801 C   0  0  0  0  0  0  0  0  0  0  0  0
    2.6392    2.3456   12.6919 C   0  0  0  0  0  0  0  0  0  0  0  0
    2.5432    3.6688   13.0084 C   0  0  0  0  0  0  0  0  0  0  0  0
    1.9295    4.5331   12.1034 C   0  0  0  0  0  0  0  0  0  0  0  0
    1.4058    4.1492   10.8997 C   0  0  0  0  0  0  0  0  0  0  0  0
    3.0696    4.1828   14.2689 C   0  0  0  0  0  0  0  0  0  0  0  0
    4.1614    3.7501   14.7423 O   0  0  0  0  0  0  0  0  0  0  0  0
    2.3822    5.1769   15.0015 N   0  0  0  0  0  0  0  0  0  0  0  0
    1.4783    5.6205   14.7313 H   0  0  0  0  0  0  0  0  0  0  0  0
    2.9894    5.6192   16.2403 C   0  0  0  0  0  0  0  0  0  0  0  0
    2.8609    5.1003   17.4464 N   0  0  0  0  0  0  0  0  0  0  0  0
    3.4902    5.6391   18.4526 C   0  0  0  0  0  0  0  0  0  0  0  0
    3.4410    5.1864   19.7909 C   0  0  0  0  0  0  0  0  0  0  0  0
    4.1463    5.8405   20.7449 C   0  0  0  0  0  0  0  0  0  0  0  0
    4.9332    6.9460   20.5140 C   0  0  0  0  0  0  0  0  0  0  0  0
    5.7829    7.6842   21.8355 Cl  0  0  0  0  0  0  0  0  0  0  0  0
    4.9843    7.3909   19.2112 C   0  0  0  0  0  0  0  0  0  0  0  0
    4.2674    6.7384   18.1985 C   0  0  0  0  0  0  0  0  0  0  0  0
    4.0460    6.9334   16.5171 S   0  0  0  0  0  0  0  0  0  0  0  0
    1.0031    2.3591    9.3961 O   0  0  0  0  0  0  0  0  0  0  0  0
   -1.2836    2.6038    9.5949 F   0  0  0  0  0  0  0  0  0  0  0  0
   -0.2418    1.7876    9.1668 C   0  0  0  0  0  0  0  0  0  0  0  0
   -0.3250    0.6423    9.9709 F   0  0  0  0  0  0  0  0  0  0  0  0
    0.8290    4.9406   10.0456 O   0  0  0  0  0  0  0  0  0  0  0  0
    0.7130    6.0071    9.2819 C   0  0  0  0  0  0  0  0  0  0  0  0
    1.9204    6.6812    8.6951 C   0  0  0  0  0  0  0  0  0  0  0  0
    1.9863    8.0963    8.3120 C   0  0  0  0  0  0  0  0  0  0  0  0
    2.6913    7.6732    9.5515 C   0  0  0  0  0  0  0  0  0  0  0  0
 22 23  1  0  0  0
 23 24  1  0  0  0
 23 21  1  0  0  0
 21  1  1  0  0  0
  1  2  2  0  0  0
  2  3  1  0  0  0
  3  4  2  0  0  0
  4  5  1  0  0  0
  5  6  2  0  0  0
  6 25  1  0  0  0
 25 26  1  0  0  0
 26 27  1  0  0  0
 27 28  1  0  0  0
 28 29  1  0  0  0
  4  7  1  0  0  0
  7  8  2  0  0  0
  7  9  1  0  0  0
  9 11  1  0  0  0
 11 12  2  0  0  0
 12 13  1  0  0  0
 13 14  2  0  0  0
 14 15  1  0  0  0
 15 16  2  0  0  0
 16 17  1  0  0  0
 16 18  1  0  0  0
 18 19  2  0  0  0
 19 20  1  0  0  0
  6  1  1  0  0  0
 29 27  1  0  0  0
 20 11  1  0  0  0
 19 13  1  0  0  0
  9 10  1  0  0  0
M  END
> <minimizedAffinity>
-5.03945

> <CNNscore>
0.2392162979

> <CNNaffinity>
5.4482736588

> <CNN_VS>
1.3033158779

> <CNNaffinity_variance>
1.0895855427

$$$$
[H]c1c([H])c(C(=O)N([H])c2nc3c([H])c([H])c(Cl)c([H])c3s2)c([H])c(OC([H])([H])C2([H])C([H])([H])C2([H])[H])c1OC([H])(F)F


 29 32  0  0  0  0  0  0  0  0999 V2000
    5.2578    2.4881   21.3054 C   0  0  0  0  0  0  0  0  0  0  0  0
    4.7634    1.4359   20.5820 C   0  0  0  0  0  0  0  0  0  0  0  0
    4.2497    1.6095   19.3037 C   0  0  0  0  0  0  0  0  0  0  0  0
    4.2399    2.8610   18.7616 C   0  0  0  0  0  0  0  0  0  0  0  0
    4.7466    3.9216   19.5108 C   0  0  0  0  0  0  0  0  0  0  0  0
    5.2629    3.8016   20.7715 C   0  0  0  0  0  0  0  0  0  0  0  0
    3.7113    3.0984   17.4220 C   0  0  0  0  0  0  0  0  0  0  0  0
    2.8644    4.0156   17.2103 O   0  0  0  0  0  0  0  0  0  0  0  0
    4.1246    2.3165   16.3196 N   0  0  0  0  0  0  0  0  0  0  0  0
    4.8117    1.5330   16.3489 H   0  0  0  0  0  0  0  0  0  0  0  0
    3.5400    2.6331   15.0324 C   0  0  0  0  0  0  0  0  0  0  0  0
    2.6867    1.9198   14.3227 N   0  0  0  0  0  0  0  0  0  0  0  0
    2.2656    2.3701   13.1745 C   0  0  0  0  0  0  0  0  0  0  0  0
    1.3555    1.7112   12.3165 C   0  0  0  0  0  0  0  0  0  0  0  0
    0.9990    2.2923   11.1457 C   0  0  0  0  0  0  0  0  0  0  0  0
    1.4635    3.5110   10.7057 C   0  0  0  0  0  0  0  0  0  0  0  0
    0.9196    4.1353    9.1800 Cl  0  0  0  0  0  0  0  0  0  0  0  0
    2.3507    4.1570   11.5384 C   0  0  0  0  0  0  0  0  0  0  0  0
    2.7416    3.5852   12.7573 C   0  0  0  0  0  0  0  0  0  0  0  0
    3.7731    4.0111   14.0491 S   0  0  0  0  0  0  0  0  0  0  0  0
    5.7719    2.3435   22.5723 O   0  0  0  0  0  0  0  0  0  0  0  0
    4.2902    3.3192   24.0492 F   0  0  0  0  0  0  0  0  0  0  0  0
    5.0615    2.1991   23.7569 C   0  0  0  0  0  0  0  0  0  0  0  0
    6.0004    2.1249   24.7952 F   0  0  0  0  0  0  0  0  0  0  0  0
    5.7408    4.7784   21.4828 O   0  0  0  0  0  0  0  0  0  0  0  0
    5.8054    6.0090   21.9470 C   0  0  0  0  0  0  0  0  0  0  0  0
    4.8805    7.0812   21.4457 C   0  0  0  0  0  0  0  0  0  0  0  0
    5.0722    8.5203   21.6599 C   0  0  0  0  0  0  0  0  0  0  0  0
    5.3455    7.9719   20.3045 C   0  0  0  0  0  0  0  0  0  0  0  0
 22 23  1  0  0  0
 23 24  1  0  0  0
 23 21  1  0  0  0
 21  1  1  0  0  0
  1  2  2  0  0  0
  2  3  1  0  0  0
  3  4  2  0  0  0
  4  5  1  0  0  0
  5  6  2  0  0  0
  6 25  1  0  0  0
 25 26  1  0  0  0
 26 27  1  0  0  0
 27 28  1  0  0  0
 28 29  1  0  0  0
  4  7  1  0  0  0
  7  8  2  0  0  0
  7  9  1  0  0  0
  9 11  1  0  0  0
 11 12  2  0  0  0
 12 13  1  0  0  0
 13 14  2  0  0  0
 14 15  1  0  0  0
 15 16  2  0  0  0
 16 17  1  0  0  0
 16 18  1  0  0  0
 18 19  2  0  0  0
 19 20  1  0  0  0
  6  1  1  0  0  0
 29 27  1  0  0  0
 20 11  1  0  0  0
 19 13  1  0  0  0
  9 10  1  0  0  0
M  END
> <minimizedAffinity>
-7.38454

> <CNNscore>
0.2225537896

> <CNNaffinity>
5.9260110855

> <CNN_VS>
1.3188562393

> <CNNaffinity_variance>
0.3613408804

$$$$
[H]c1c([H])c(C(=O)N([H])c2nc3c([H])c([H])c(Cl)c([H])c3s2)c([H])c(OC([H])([H])C2([H])C([H])([H])C2([H])[H])c1OC([H])(F)F


 29 32  0  0  0  0  0  0  0  0999 V2000
    5.9887    8.3001   17.7314 C   0  0  0  0  0  0  0  0  0  0  0  0
    6.0592    9.0406   16.5820 C   0  0  0  0  0  0  0  0  0  0  0  0
    5.1383    8.8796   15.5553 C   0  0  0  0  0  0  0  0  0  0  0  0
    4.1420    7.9596   15.7016 C   0  0  0  0  0  0  0  0  0  0  0  0
    4.0841    7.2136   16.8776 C   0  0  0  0  0  0  0  0  0  0  0  0
    4.9658    7.3357   17.9159 C   0  0  0  0  0  0  0  0  0  0  0  0
    3.1484    7.7507   14.6532 C   0  0  0  0  0  0  0  0  0  0  0  0
    2.3170    8.6581   14.3551 O   0  0  0  0  0  0  0  0  0  0  0  0
    3.0801    6.5341   13.9373 N   0  0  0  0  0  0  0  0  0  0  0  0
    3.6986    5.7065   14.0772 H   0  0  0  0  0  0  0  0  0  0  0  0
    2.0576    6.4278   12.9165 C   0  0  0  0  0  0  0  0  0  0  0  0
    2.1423    6.7379   11.6369 N   0  0  0  0  0  0  0  0  0  0  0  0
    1.1076    6.5733   10.8618 C   0  0  0  0  0  0  0  0  0  0  0  0
    1.0615    6.8637    9.4790 C   0  0  0  0  0  0  0  0  0  0  0  0
   -0.0826    6.6452    8.7872 C   0  0  0  0  0  0  0  0  0  0  0  0
   -1.2433    6.1477    9.3347 C   0  0  0  0  0  0  0  0  0  0  0  0
   -2.6372    5.9181    8.3260 Cl  0  0  0  0  0  0  0  0  0  0  0  0
   -1.2033    5.8631   10.6821 C   0  0  0  0  0  0  0  0  0  0  0  0
   -0.0364    6.0768   11.4291 C   0  0  0  0  0  0  0  0  0  0  0  0
    0.4466    5.8747   13.0539 S   0  0  0  0  0  0  0  0  0  0  0  0
    6.8873    8.4398   18.7626 O   0  0  0  0  0  0  0  0  0  0  0  0
    8.1552    6.5141   18.8747 F   0  0  0  0  0  0  0  0  0  0  0  0
    8.1664    7.9047   18.8420 C   0  0  0  0  0  0  0  0  0  0  0  0
    8.7002    8.2918   20.0790 F   0  0  0  0  0  0  0  0  0  0  0  0
    4.9255    6.6504   19.0192 O   0  0  0  0  0  0  0  0  0  0  0  0
    4.3965    6.2044   20.1397 C   0  0  0  0  0  0  0  0  0  0  0  0
    4.7562    6.8092   21.4668 C   0  0  0  0  0  0  0  0  0  0  0  0
    6.0927    7.2929   21.8323 C   0  0  0  0  0  0  0  0  0  0  0  0
    5.0400    8.3013   21.5364 C   0  0  0  0  0  0  0  0  0  0  0  0
 22 23  1  0  0  0
 23 24  1  0  0  0
 23 21  1  0  0  0
 21  1  1  0  0  0
  1  2  2  0  0  0
  2  3  1  0  0  0
  3  4  2  0  0  0
  4  5  1  0  0  0
  5  6  2  0  0  0
  6 25  1  0  0  0
 25 26  1  0  0  0
 26 27  1  0  0  0
 27 28  1  0  0  0
 28 29  1  0  0  0
  4  7  1  0  0  0
  7  8  2  0  0  0
  7  9  1  0  0  0
  9 11  1  0  0  0
 11 12  2  0  0  0
 12 13  1  0  0  0
 13 14  2  0  0  0
 14 15  1  0  0  0
 15 16  2  0  0  0
 16 17  1  0  0  0
 16 18  1  0  0  0
 18 19  2  0  0  0
 19 20  1  0  0  0
  6  1  1  0  0  0
 29 27  1  0  0  0
 20 11  1  0  0  0
 19 13  1  0  0  0
  9 10  1  0  0  0
M  END
> <minimizedAffinity>
-5.33241

> <CNNscore>
0.2171525210

> <CNNaffinity>
5.2808237076

> <CNN_VS>
1.1467441320

> <CNNaffinity_variance>
0.5563802719

$$$$
[H]c1c([H])c([H])c(C([H])([H])OC(=O)N([H])[C@]([H])(C(=O)N([H])[C@]([H])(C(=O)C(=O)N([H])C2(C#N)C([H])([H])C2([H])[H])C([H])([H])c2c([H])c([H])c([H])c([H])c2[H])C([H])([H])C([H])(C([H])([H])[H])C([H])([H])[H])c([H])c1[H]


 40 42  0  0  0  0  0  0  0  0999 V2000
    4.8903    5.5395   19.4961 C   0  0  0  0  0  0  0  0  0  0  0  0
    5.7571    6.2312   18.8029 O   0  0  0  0  0  0  0  0  0  0  0  0
    4.0151    4.7713   18.6782 N   0  0  0  0  0  0  0  0  0  0  0  0
    3.3081    4.1809   19.1299 H   0  0  0  0  0  0  0  0  0  0  0  0
    4.9725    5.6626   20.9235 C   0  0  0  0  0  0  0  0  0  0  0  0
    4.6487    7.0951   21.2164 N   0  0  0  0  0  0  0  0  0  0  0  0
    5.5995    8.0368   21.6087 C   0  0  0  0  0  0  0  0  0  0  0  0
    6.8108    7.7391   21.7472 O   0  0  0  0  0  0  0  0  0  0  0  0
    3.6496    7.3418   21.1043 H   0  0  0  0  0  0  0  0  0  0  0  0
    5.2109    9.3446   21.8549 O   0  0  0  0  0  0  0  0  0  0  0  0
    5.5411   10.4299   21.0431 C   0  0  0  0  0  0  0  0  0  0  0  0
    5.2388   10.2070   19.6276 C   0  0  0  0  0  0  0  0  0  0  0  0
    6.2761   10.1654   18.6904 C   0  0  0  0  0  0  0  0  0  0  0  0
    6.0242    9.9431   17.3451 C   0  0  0  0  0  0  0  0  0  0  0  0
    4.7336    9.7568   16.9004 C   0  0  0  0  0  0  0  0  0  0  0  0
    3.7217    9.7994   17.8275 C   0  0  0  0  0  0  0  0  0  0  0  0
    3.9545   10.0214   19.1847 C   0  0  0  0  0  0  0  0  0  0  0  0
    4.1515    4.8398   21.8348 C   0  0  0  0  0  0  0  0  0  0  0  0
    6.1265    3.3060   22.2192 C   0  0  0  0  0  0  0  0  0  0  0  0
    4.6857    3.6149   22.4554 C   0  0  0  0  0  0  0  0  0  0  0  0
    3.8330    2.4061   22.2973 C   0  0  0  0  0  0  0  0  0  0  0  0
    4.1027    4.7739   17.2381 C   0  0  0  0  0  0  0  0  0  0  0  0
    2.8792    5.0625   16.5101 C   0  0  0  0  0  0  0  0  0  0  0  0
    1.7614    4.7802   16.9889 O   0  0  0  0  0  0  0  0  0  0  0  0
    2.8942    5.7038   15.1871 C   0  0  0  0  0  0  0  0  0  0  0  0
    3.2959    5.0382   14.2259 O   0  0  0  0  0  0  0  0  0  0  0  0
    2.4676    7.0302   15.0479 N   0  0  0  0  0  0  0  0  0  0  0  0
    2.1186    7.5538   15.9347 H   0  0  0  0  0  0  0  0  0  0  0  0
    2.4544    7.7527   13.8340 C   0  0  0  0  0  0  0  0  0  0  0  0
    2.8799    9.1946   13.9099 C   0  0  0  0  0  0  0  0  0  0  0  0
    3.6241    8.2165   13.0420 C   0  0  0  0  0  0  0  0  0  0  0  0
    1.2199    7.5107   13.0274 C   0  0  0  0  0  0  0  0  0  0  0  0
    0.2634    7.3379   12.4047 N   0  0  0  0  0  0  0  0  0  0  0  0
    4.7150    3.5004   16.7058 C   0  0  0  0  0  0  0  0  0  0  0  0
    4.0437    2.2863   17.1568 C   0  0  0  0  0  0  0  0  0  0  0  0
    3.2726    1.5745   16.2759 C   0  0  0  0  0  0  0  0  0  0  0  0
    2.6087    0.4169   16.6394 C   0  0  0  0  0  0  0  0  0  0  0  0
    2.7202   -0.0450   17.9303 C   0  0  0  0  0  0  0  0  0  0  0  0
    3.4860    0.6626   18.8026 C   0  0  0  0  0  0  0  0  0  0  0  0
    4.1459    1.8063   18.4555 C   0  0  0  0  0  0  0  0  0  0  0  0
 19 20  1  0  0  0
 20 21  1  0  0  0
 20 18  1  0  0  0
 18  5  1  0  0  0
  5  6  1  0  0  0
  6  7  1  0  0  0
  7  8  2  0  0  0
  7 10  1  0  0  0
 10 11  1  0  0  0
 11 12  1  0  0  0
 12 13  2  0  0  0
 13 14  1  0  0  0
 14 15  2  0  0  0
 15 16  1  0  0  0
 16 17  2  0  0  0
  5  1  1  0  0  0
  1  2  2  0  0  0
  1  3  1  0  0  0
  3 22  1  0  0  0
 22 34  1  0  0  0
 34 35  1  0  0  0
 35 36  2  0  0  0
 36 37  1  0  0  0
 37 38  2  0  0  0
 38 39  1  0  0  0
 39 40  2  0  0  0
 22 23  1  0  0  0
 23 24  2  0  0  0
 23 25  1  0  0  0
 25 26  2  0  0  0
 25 27  1  0  0  0
 27 29  1  0  0  0
 29 30  1  0  0  0
 30 31  1  0  0  0
 29 32  1  0  0  0
 32 33  3  0  0  0
 17 12  1  0  0  0
 40 35  1  0  0  0
 31 29  1  0  0  0
  6  9  1  0  0  0
  3  4  1  0  0  0
 27 28  1  0  0  0
M  END
> <minimizedAffinity>
-7.97703

> <CNNscore>
0.5844834447

> <CNNaffinity>
6.9014081955

> <CNN_VS>
4.0337586403

> <CNNaffinity_variance>
0.1551649272

$$$$
[H]c1c([H])c([H])c(C([H])([H])OC(=O)N([H])[C@]([H])(C(=O)N([H])[C@]([H])(C(=O)C(=O)N([H])C2(C#N)C([H])([H])C2([H])[H])C([H])([H])c2c([H])c([H])c([H])c([H])c2[H])C([H])([H])C([H])(C([H])([H])[H])C([H])([H])[H])c([H])c1[H]


 40 42  0  0  0  0  0  0  0  0999 V2000
    5.5010    4.7591   20.9385 C   0  0  0  0  0  0  0  0  0  0  0  0
    6.5522    5.0741   20.2270 O   0  0  0  0  0  0  0  0  0  0  0  0
    4.3971    4.3463   20.1409 N   0  0  0  0  0  0  0  0  0  0  0  0
    3.5289    4.0628   20.6082 H   0  0  0  0  0  0  0  0  0  0  0  0
    5.6384    4.8720   22.3624 C   0  0  0  0  0  0  0  0  0  0  0  0
    6.0943    6.2776   22.6059 N   0  0  0  0  0  0  0  0  0  0  0  0
    5.5361    7.3900   21.9768 C   0  0  0  0  0  0  0  0  0  0  0  0
    4.5998    7.2836   21.1479 O   0  0  0  0  0  0  0  0  0  0  0  0
    6.8678    6.3669   23.2881 H   0  0  0  0  0  0  0  0  0  0  0  0
    6.0179    8.6573   22.2664 O   0  0  0  0  0  0  0  0  0  0  0  0
    7.0725    9.2718   21.5909 C   0  0  0  0  0  0  0  0  0  0  0  0
    8.2303    8.3945   21.4051 C   0  0  0  0  0  0  0  0  0  0  0  0
    8.4619    7.7983   20.1614 C   0  0  0  0  0  0  0  0  0  0  0  0
    9.5561    6.9733   19.9495 C   0  0  0  0  0  0  0  0  0  0  0  0
   10.4462    6.7222   20.9707 C   0  0  0  0  0  0  0  0  0  0  0  0
   10.2108    7.3117   22.1883 C   0  0  0  0  0  0  0  0  0  0  0  0
    9.1164    8.1444   22.4212 C   0  0  0  0  0  0  0  0  0  0  0  0
    4.5144    4.6170   23.2861 C   0  0  0  0  0  0  0  0  0  0  0  0
    5.3758    2.3744   24.0796 C   0  0  0  0  0  0  0  0  0  0  0  0
    4.2138    3.2598   23.7744 C   0  0  0  0  0  0  0  0  0  0  0  0
    3.1589    2.5370   23.0143 C   0  0  0  0  0  0  0  0  0  0  0  0
    4.4634    4.2885   18.7009 C   0  0  0  0  0  0  0  0  0  0  0  0
    3.6855    5.2749   17.9713 C   0  0  0  0  0  0  0  0  0  0  0  0
    2.5226    5.0272   17.5912 O   0  0  0  0  0  0  0  0  0  0  0  0
    4.2206    6.6069   17.6532 C   0  0  0  0  0  0  0  0  0  0  0  0
    5.1947    6.6732   16.8949 O   0  0  0  0  0  0  0  0  0  0  0  0
    3.6312    7.7487   18.2097 N   0  0  0  0  0  0  0  0  0  0  0  0
    2.7712    7.6173   18.8622 H   0  0  0  0  0  0  0  0  0  0  0  0
    4.0688    9.0738   17.9904 C   0  0  0  0  0  0  0  0  0  0  0  0
    3.9829   10.0092   19.1666 C   0  0  0  0  0  0  0  0  0  0  0  0
    5.3044    9.7183   18.5087 C   0  0  0  0  0  0  0  0  0  0  0  0
    3.5679    9.6455   16.7037 C   0  0  0  0  0  0  0  0  0  0  0  0
    3.1874   10.0996   15.7131 N   0  0  0  0  0  0  0  0  0  0  0  0
    4.1457    2.9094   18.1744 C   0  0  0  0  0  0  0  0  0  0  0  0
    4.2256    1.8573   19.1819 C   0  0  0  0  0  0  0  0  0  0  0  0
    5.3828    1.6944   19.8972 C   0  0  0  0  0  0  0  0  0  0  0  0
    5.5247    0.7162   20.8647 C   0  0  0  0  0  0  0  0  0  0  0  0
    4.4713   -0.1290   21.1258 C   0  0  0  0  0  0  0  0  0  0  0  0
    3.3240    0.0346   20.4153 C   0  0  0  0  0  0  0  0  0  0  0  0
    3.1721    0.9963   19.4580 C   0  0  0  0  0  0  0  0  0  0  0  0
 19 20  1  0  0  0
 20 21  1  0  0  0
 20 18  1  0  0  0
 18  5  1  0  0  0
  5  6  1  0  0  0
  6  7  1  0  0  0
  7  8  2  0  0  0
  7 10  1  0  0  0
 10 11  1  0  0  0
 11 12  1  0  0  0
 12 13  2  0  0  0
 13 14  1  0  0  0
 14 15  2  0  0  0
 15 16  1  0  0  0
 16 17  2  0  0  0
  5  1  1  0  0  0
  1  2  2  0  0  0
  1  3  1  0  0  0
  3 22  1  0  0  0
 22 34  1  0  0  0
 34 35  1  0  0  0
 35 36  2  0  0  0
 36 37  1  0  0  0
 37 38  2  0  0  0
 38 39  1  0  0  0
 39 40  2  0  0  0
 22 23  1  0  0  0
 23 24  2  0  0  0
 23 25  1  0  0  0
 25 26  2  0  0  0
 25 27  1  0  0  0
 27 29  1  0  0  0
 29 30  1  0  0  0
 30 31  1  0  0  0
 29 32  1  0  0  0
 32 33  3  0  0  0
 17 12  1  0  0  0
 40 35  1  0  0  0
 31 29  1  0  0  0
  6  9  1  0  0  0
  3  4  1  0  0  0
 27 28  1  0  0  0
M  END
> <minimizedAffinity>
-7.10079

> <CNNscore>
0.4586874545

> <CNNaffinity>
6.9423227310

> <CNN_VS>
3.1843564510

> <CNNaffinity_variance>
0.0689317808

$$$$
[H]c1c([H])c([H])c(C([H])([H])OC(=O)N([H])[C@]([H])(C(=O)N([H])[C@]([H])(C(=O)C(=O)N([H])C2(C#N)C([H])([H])C2([H])[H])C([H])([H])c2c([H])c([H])c([H])c([H])c2[H])C([H])([H])C([H])(C([H])([H])[H])C([H])([H])[H])c([H])c1[H]


 40 42  0  0  0  0  0  0  0  0999 V2000
    3.0282    5.3033   16.1392 C   0  0  0  0  0  0  0  0  0  0  0  0
    1.9822    4.8669   16.7917 O   0  0  0  0  0  0  0  0  0  0  0  0
    4.2549    4.9938   16.7907 N   0  0  0  0  0  0  0  0  0  0  0  0
    5.1350    5.2806   16.3485 H   0  0  0  0  0  0  0  0  0  0  0  0
    2.7688    5.9930   14.9078 C   0  0  0  0  0  0  0  0  0  0  0  0
    1.3613    5.6346   14.5425 N   0  0  0  0  0  0  0  0  0  0  0  0
    1.0007    5.0731   13.3179 C   0  0  0  0  0  0  0  0  0  0  0  0
    1.8475    4.8294   12.4243 O   0  0  0  0  0  0  0  0  0  0  0  0
    0.6613    5.8366   15.2780 H   0  0  0  0  0  0  0  0  0  0  0  0
   -0.3281    4.7680   13.0663 O   0  0  0  0  0  0  0  0  0  0  0  0
   -0.9135    4.7854   11.8002 C   0  0  0  0  0  0  0  0  0  0  0  0
   -2.3413    5.1099   11.8272 C   0  0  0  0  0  0  0  0  0  0  0  0
   -2.7955    6.1995   12.5772 C   0  0  0  0  0  0  0  0  0  0  0  0
   -4.1390    6.5408   12.6129 C   0  0  0  0  0  0  0  0  0  0  0  0
   -5.0627    5.8056   11.9026 C   0  0  0  0  0  0  0  0  0  0  0  0
   -4.6078    4.7376   11.1692 C   0  0  0  0  0  0  0  0  0  0  0  0
   -3.2609    4.3785   11.1203 C   0  0  0  0  0  0  0  0  0  0  0  0
    2.8858    7.4603   14.7855 C   0  0  0  0  0  0  0  0  0  0  0  0
    2.1438    8.5486   12.6255 C   0  0  0  0  0  0  0  0  0  0  0  0
    3.2577    8.0978   13.5104 C   0  0  0  0  0  0  0  0  0  0  0  0
    4.3184    7.3936   12.7408 C   0  0  0  0  0  0  0  0  0  0  0  0
    4.3061    4.2699   18.0377 C   0  0  0  0  0  0  0  0  0  0  0  0
    4.8525    4.9785   19.1821 C   0  0  0  0  0  0  0  0  0  0  0  0
    5.1182    4.3802   20.2450 O   0  0  0  0  0  0  0  0  0  0  0  0
    5.1260    6.4226   19.1445 C   0  0  0  0  0  0  0  0  0  0  0  0
    5.8841    6.8453   18.2642 O   0  0  0  0  0  0  0  0  0  0  0  0
    4.5387    7.2706   20.0914 N   0  0  0  0  0  0  0  0  0  0  0  0
    3.8749    6.8321   20.8328 H   0  0  0  0  0  0  0  0  0  0  0  0
    4.7417    8.6668   20.1635 C   0  0  0  0  0  0  0  0  0  0  0  0
    5.0094    9.2334   21.5321 C   0  0  0  0  0  0  0  0  0  0  0  0
    6.0167    9.3855   20.4249 C   0  0  0  0  0  0  0  0  0  0  0  0
    3.7524    9.4401   19.3533 C   0  0  0  0  0  0  0  0  0  0  0  0
    2.9922   10.0496   18.7343 N   0  0  0  0  0  0  0  0  0  0  0  0
    5.0040    2.9389   17.8914 C   0  0  0  0  0  0  0  0  0  0  0  0
    4.1106    1.7887   17.9761 C   0  0  0  0  0  0  0  0  0  0  0  0
    3.8494    1.2257   19.1976 C   0  0  0  0  0  0  0  0  0  0  0  0
    3.0136    0.1338   19.3470 C   0  0  0  0  0  0  0  0  0  0  0  0
    2.4182   -0.4143   18.2346 C   0  0  0  0  0  0  0  0  0  0  0  0
    2.6785    0.1460   17.0238 C   0  0  0  0  0  0  0  0  0  0  0  0
    3.5015    1.2237   16.8638 C   0  0  0  0  0  0  0  0  0  0  0  0
 19 20  1  0  0  0
 20 21  1  0  0  0
 20 18  1  0  0  0
 18  5  1  0  0  0
  5  6  1  0  0  0
  6  7  1  0  0  0
  7  8  2  0  0  0
  7 10  1  0  0  0
 10 11  1  0  0  0
 11 12  1  0  0  0
 12 13  2  0  0  0
 13 14  1  0  0  0
 14 15  2  0  0  0
 15 16  1  0  0  0
 16 17  2  0  0  0
  5  1  1  0  0  0
  1  2  2  0  0  0
  1  3  1  0  0  0
  3 22  1  0  0  0
 22 34  1  0  0  0
 34 35  1  0  0  0
 35 36  2  0  0  0
 36 37  1  0  0  0
 37 38  2  0  0  0
 38 39  1  0  0  0
 39 40  2  0  0  0
 22 23  1  0  0  0
 23 24  2  0  0  0
 23 25  1  0  0  0
 25 26  2  0  0  0
 25 27  1  0  0  0
 27 29  1  0  0  0
 29 30  1  0  0  0
 30 31  1  0  0  0
 29 32  1  0  0  0
 32 33  3  0  0  0
 17 12  1  0  0  0
 40 35  1  0  0  0
 31 29  1  0  0  0
  6  9  1  0  0  0
  3  4  1  0  0  0
 27 28  1  0  0  0
M  END
> <minimizedAffinity>
-7.76520

> <CNNscore>
0.4239184558

> <CNNaffinity>
6.4382247925

> <CNN_VS>
2.7292823792

> <CNNaffinity_variance>
0.1060654148

$$$$
[H]c1c([H])c([H])c(C([H])([H])OC(=O)N([H])[C@]([H])(C(=O)N([H])[C@]([H])(C(=O)C(=O)N([H])C2(C#N)C([H])([H])C2([H])[H])C([H])([H])c2c([H])c([H])c([H])c([H])c2[H])C([H])([H])C([H])(C([H])([H])[H])C([H])([H])[H])c([H])c1[H]


 40 42  0  0  0  0  0  0  0  0999 V2000
    4.7751    6.7018   18.5778 C   0  0  0  0  0  0  0  0  0  0  0  0
    4.6495    7.6228   17.6578 O   0  0  0  0  0  0  0  0  0  0  0  0
    4.4819    5.3953   18.0957 N   0  0  0  0  0  0  0  0  0  0  0  0
    4.5673    4.6008   18.7391 H   0  0  0  0  0  0  0  0  0  0  0  0
    5.1839    7.1514   19.8778 C   0  0  0  0  0  0  0  0  0  0  0  0
    5.6611    5.9231   20.5894 N   0  0  0  0  0  0  0  0  0  0  0  0
    5.0205    5.3772   21.7013 C   0  0  0  0  0  0  0  0  0  0  0  0
    3.9845    5.8908   22.1891 O   0  0  0  0  0  0  0  0  0  0  0  0
    6.5166    5.4992   20.1892 H   0  0  0  0  0  0  0  0  0  0  0  0
    5.5301    4.2328   22.2952 O   0  0  0  0  0  0  0  0  0  0  0  0
    6.1138    3.1763   21.5958 C   0  0  0  0  0  0  0  0  0  0  0  0
    5.2809    1.9721   21.5654 C   0  0  0  0  0  0  0  0  0  0  0  0
    3.9558    2.0284   22.0092 C   0  0  0  0  0  0  0  0  0  0  0  0
    3.1374    0.9094   21.9810 C   0  0  0  0  0  0  0  0  0  0  0  0
    3.6186   -0.2927   21.5101 C   0  0  0  0  0  0  0  0  0  0  0  0
    4.9206   -0.3386   21.0765 C   0  0  0  0  0  0  0  0  0  0  0  0
    5.7593    0.7756   21.0967 C   0  0  0  0  0  0  0  0  0  0  0  0
    6.2198    8.1877   20.0644 C   0  0  0  0  0  0  0  0  0  0  0  0
    5.7225    9.3361   22.2632 C   0  0  0  0  0  0  0  0  0  0  0  0
    5.9338    9.4381   20.7894 C   0  0  0  0  0  0  0  0  0  0  0  0
    4.9191   10.3182   20.1499 C   0  0  0  0  0  0  0  0  0  0  0  0
    4.0932    5.1455   16.7290 C   0  0  0  0  0  0  0  0  0  0  0  0
    2.6677    5.1124   16.4513 C   0  0  0  0  0  0  0  0  0  0  0  0
    1.8443    4.8062   17.3381 O   0  0  0  0  0  0  0  0  0  0  0  0
    2.1258    5.4430   15.1251 C   0  0  0  0  0  0  0  0  0  0  0  0
    1.8553    4.5094   14.3613 O   0  0  0  0  0  0  0  0  0  0  0  0
    1.9372    6.7818   14.7604 N   0  0  0  0  0  0  0  0  0  0  0  0
    2.1886    7.5524   15.4853 H   0  0  0  0  0  0  0  0  0  0  0  0
    1.4418    7.2181   13.5115 C   0  0  0  0  0  0  0  0  0  0  0  0
    1.9767    8.5295   13.0016 C   0  0  0  0  0  0  0  0  0  0  0  0
    2.1659    7.2617   12.2137 C   0  0  0  0  0  0  0  0  0  0  0  0
   -0.0390    7.0602   13.3868 C   0  0  0  0  0  0  0  0  0  0  0  0
   -1.1815    6.9377   13.2761 N   0  0  0  0  0  0  0  0  0  0  0  0
    4.7416    3.8996   16.1746 C   0  0  0  0  0  0  0  0  0  0  0  0
    4.0954    2.6597   16.5908 C   0  0  0  0  0  0  0  0  0  0  0  0
    3.3532    1.9484   15.6850 C   0  0  0  0  0  0  0  0  0  0  0  0
    2.7141    0.7671   16.0150 C   0  0  0  0  0  0  0  0  0  0  0  0
    2.8213    0.2801   17.2970 C   0  0  0  0  0  0  0  0  0  0  0  0
    3.5584    0.9871   18.1941 C   0  0  0  0  0  0  0  0  0  0  0  0
    4.1937    2.1542   17.8801 C   0  0  0  0  0  0  0  0  0  0  0  0
 19 20  1  0  0  0
 20 21  1  0  0  0
 20 18  1  0  0  0
 18  5  1  0  0  0
  5  6  1  0  0  0
  6  7  1  0  0  0
  7  8  2  0  0  0
  7 10  1  0  0  0
 10 11  1  0  0  0
 11 12  1  0  0  0
 12 13  2  0  0  0
 13 14  1  0  0  0
 14 15  2  0  0  0
 15 16  1  0  0  0
 16 17  2  0  0  0
  5  1  1  0  0  0
  1  2  2  0  0  0
  1  3  1  0  0  0
  3 22  1  0  0  0
 22 34  1  0  0  0
 34 35  1  0  0  0
 35 36  2  0  0  0
 36 37  1  0  0  0
 37 38  2  0  0  0
 38 39  1  0  0  0
 39 40  2  0  0  0
 22 23  1  0  0  0
 23 24  2  0  0  0
 23 25  1  0  0  0
 25 26  2  0  0  0
 25 27  1  0  0  0
 27 29  1  0  0  0
 29 30  1  0  0  0
 30 31  1  0  0  0
 29 32  1  0  0  0
 32 33  3  0  0  0
 17 12  1  0  0  0
 40 35  1  0  0  0
 31 29  1  0  0  0
  6  9  1  0  0  0
  3  4  1  0  0  0
 27 28  1  0  0  0
M  END
> <minimizedAffinity>
-8.28359

> <CNNscore>
0.4106991887

> <CNNaffinity>
6.7402024269

> <CNN_VS>
2.7681956291

> <CNNaffinity_variance>
0.0903773755

$$$$
[H]c1c([H])c([H])c(C([H])([H])OC(=O)N([H])[C@]([H])(C(=O)N([H])[C@]([H])(C(=O)C(=O)N([H])C2(C#N)C([H])([H])C2([H])[H])C([H])([H])c2c([H])c([H])c([H])c([H])c2[H])C([H])([H])C([H])(C([H])([H])[H])C([H])([H])[H])c([H])c1[H]


 40 42  0  0  0  0  0  0  0  0999 V2000
    5.5324    6.5296   21.0630 C   0  0  0  0  0  0  0  0  0  0  0  0
    6.3686    5.9458   20.2442 O   0  0  0  0  0  0  0  0  0  0  0  0
    4.3522    6.9884   20.4136 N   0  0  0  0  0  0  0  0  0  0  0  0
    3.6261    7.4468   20.9748 H   0  0  0  0  0  0  0  0  0  0  0  0
    5.9321    6.5986   22.4395 C   0  0  0  0  0  0  0  0  0  0  0  0
    5.8269    5.1957   22.9529 N   0  0  0  0  0  0  0  0  0  0  0  0
    4.6296    4.4830   23.0120 C   0  0  0  0  0  0  0  0  0  0  0  0
    3.5413    4.9811   22.6344 O   0  0  0  0  0  0  0  0  0  0  0  0
    6.7236    4.7840   23.2664 H   0  0  0  0  0  0  0  0  0  0  0  0
    4.6258    3.1847   23.4981 O   0  0  0  0  0  0  0  0  0  0  0  0
    5.3100    2.1215   22.9087 C   0  0  0  0  0  0  0  0  0  0  0  0
    4.5796    1.5083   21.7973 C   0  0  0  0  0  0  0  0  0  0  0  0
    3.5232    0.6292   22.0568 C   0  0  0  0  0  0  0  0  0  0  0  0
    2.8035    0.0425   21.0269 C   0  0  0  0  0  0  0  0  0  0  0  0
    3.1182    0.3169   19.7139 C   0  0  0  0  0  0  0  0  0  0  0  0
    4.1567    1.1809   19.4687 C   0  0  0  0  0  0  0  0  0  0  0  0
    4.8924    1.7812   20.4905 C   0  0  0  0  0  0  0  0  0  0  0  0
    7.2546    7.1108   22.8522 C   0  0  0  0  0  0  0  0  0  0  0  0
    8.5487    9.2835   22.7760 C   0  0  0  0  0  0  0  0  0  0  0  0
    7.4243    8.4872   23.3497 C   0  0  0  0  0  0  0  0  0  0  0  0
    7.3456    8.6362   24.8278 C   0  0  0  0  0  0  0  0  0  0  0  0
    4.1296    6.8097   18.9993 C   0  0  0  0  0  0  0  0  0  0  0  0
    3.9699    8.0161   18.2060 C   0  0  0  0  0  0  0  0  0  0  0  0
    3.5719    9.0805   18.7227 O   0  0  0  0  0  0  0  0  0  0  0  0
    4.2743    8.0472   16.7679 C   0  0  0  0  0  0  0  0  0  0  0  0
    5.4553    8.1844   16.4292 O   0  0  0  0  0  0  0  0  0  0  0  0
    3.2402    7.9291   15.8313 N   0  0  0  0  0  0  0  0  0  0  0  0
    2.2248    7.8023   16.1997 H   0  0  0  0  0  0  0  0  0  0  0  0
    3.4104    7.9627   14.4293 C   0  0  0  0  0  0  0  0  0  0  0  0
    2.4841    8.8704   13.6652 C   0  0  0  0  0  0  0  0  0  0  0  0
    3.9747    9.0681   13.6106 C   0  0  0  0  0  0  0  0  0  0  0  0
    3.5810    6.6035   13.8322 C   0  0  0  0  0  0  0  0  0  0  0  0
    3.7194    5.5595   13.3595 N   0  0  0  0  0  0  0  0  0  0  0  0
    2.9804    5.8705   18.7213 C   0  0  0  0  0  0  0  0  0  0  0  0
    3.2928    4.8206   17.7578 C   0  0  0  0  0  0  0  0  0  0  0  0
    4.5810    4.3672   17.6476 C   0  0  0  0  0  0  0  0  0  0  0  0
    4.9442    3.3761   16.7539 C   0  0  0  0  0  0  0  0  0  0  0  0
    3.9842    2.8188   15.9414 C   0  0  0  0  0  0  0  0  0  0  0  0
    2.7067    3.2698   16.0526 C   0  0  0  0  0  0  0  0  0  0  0  0
    2.3363    4.2474   16.9308 C   0  0  0  0  0  0  0  0  0  0  0  0
 19 20  1  0  0  0
 20 21  1  0  0  0
 20 18  1  0  0  0
 18  5  1  0  0  0
  5  6  1  0  0  0
  6  7  1  0  0  0
  7  8  2  0  0  0
  7 10  1  0  0  0
 10 11  1  0  0  0
 11 12  1  0  0  0
 12 13  2  0  0  0
 13 14  1  0  0  0
 14 15  2  0  0  0
 15 16  1  0  0  0
 16 17  2  0  0  0
  5  1  1  0  0  0
  1  2  2  0  0  0
  1  3  1  0  0  0
  3 22  1  0  0  0
 22 34  1  0  0  0
 34 35  1  0  0  0
 35 36  2  0  0  0
 36 37  1  0  0  0
 37 38  2  0  0  0
 38 39  1  0  0  0
 39 40  2  0  0  0
 22 23  1  0  0  0
 23 24  2  0  0  0
 23 25  1  0  0  0
 25 26  2  0  0  0
 25 27  1  0  0  0
 27 29  1  0  0  0
 29 30  1  0  0  0
 30 31  1  0  0  0
 29 32  1  0  0  0
 32 33  3  0  0  0
 17 12  1  0  0  0
 40 35  1  0  0  0
 31 29  1  0  0  0
  6  9  1  0  0  0
  3  4  1  0  0  0
 27 28  1  0  0  0
M  END
> <minimizedAffinity>
-8.00620

> <CNNscore>
0.4002994299

> <CNNaffinity>
6.7764863968

> <CNN_VS>
2.7126235962

> <CNNaffinity_variance>
0.1186515316

$$$$
[H]c1c([H])c([H])c(C([H])([H])OC(=O)N([H])[C@]([H])(C(=O)N([H])[C@]([H])(C(=O)C(=O)N([H])C2(C#N)C([H])([H])C2([H])[H])C([H])([H])c2c([H])c([H])c([H])c([H])c2[H])C([H])([H])C([H])(C([H])([H])[H])C([H])([H])[H])c([H])c1[H]


 40 42  0  0  0  0  0  0  0  0999 V2000
    5.8936    6.5467   20.8913 C   0  0  0  0  0  0  0  0  0  0  0  0
    6.6785    6.2295   19.8944 O   0  0  0  0  0  0  0  0  0  0  0  0
    4.5827    6.9061   20.4701 N   0  0  0  0  0  0  0  0  0  0  0  0
    3.8868    7.1565   21.1810 H   0  0  0  0  0  0  0  0  0  0  0  0
    6.4690    6.4721   22.2038 C   0  0  0  0  0  0  0  0  0  0  0  0
    6.4503    5.0181   22.5621 N   0  0  0  0  0  0  0  0  0  0  0  0
    5.2873    4.3152   22.8755 C   0  0  0  0  0  0  0  0  0  0  0  0
    4.1597    4.8662   22.8806 O   0  0  0  0  0  0  0  0  0  0  0  0
    7.3800    4.5626   22.5599 H   0  0  0  0  0  0  0  0  0  0  0  0
    5.3628    2.9673   23.1910 O   0  0  0  0  0  0  0  0  0  0  0  0
    5.8852    1.9890   22.3450 C   0  0  0  0  0  0  0  0  0  0  0  0
    4.8855    1.4058   21.4476 C   0  0  0  0  0  0  0  0  0  0  0  0
    3.8366    0.6439   21.9722 C   0  0  0  0  0  0  0  0  0  0  0  0
    2.8668    0.0893   21.1507 C   0  0  0  0  0  0  0  0  0  0  0  0
    2.9180    0.2800   19.7872 C   0  0  0  0  0  0  0  0  0  0  0  0
    3.9513    1.0293   19.2811 C   0  0  0  0  0  0  0  0  0  0  0  0
    4.9360    1.5956   20.0906 C   0  0  0  0  0  0  0  0  0  0  0  0
    7.8273    6.9716   22.4992 C   0  0  0  0  0  0  0  0  0  0  0  0
    9.7107    5.9964   23.8786 C   0  0  0  0  0  0  0  0  0  0  0  0
    8.9813    6.0590   22.5781 C   0  0  0  0  0  0  0  0  0  0  0  0
    9.9199    6.1305   21.4262 C   0  0  0  0  0  0  0  0  0  0  0  0
    4.1906    6.9070   19.0816 C   0  0  0  0  0  0  0  0  0  0  0  0
    3.8746    8.1971   18.4933 C   0  0  0  0  0  0  0  0  0  0  0  0
    3.3965    9.1213   19.1829 O   0  0  0  0  0  0  0  0  0  0  0  0
    4.1073    8.4804   17.0695 C   0  0  0  0  0  0  0  0  0  0  0  0
    5.0888    7.9586   16.5285 O   0  0  0  0  0  0  0  0  0  0  0  0
    3.2333    9.3233   16.3720 N   0  0  0  0  0  0  0  0  0  0  0  0
    2.3848    9.7415   16.9084 H   0  0  0  0  0  0  0  0  0  0  0  0
    3.3663    9.6798   15.0116 C   0  0  0  0  0  0  0  0  0  0  0  0
    3.2925   11.1497   14.6956 C   0  0  0  0  0  0  0  0  0  0  0  0
    4.5217   10.3502   14.3586 C   0  0  0  0  0  0  0  0  0  0  0  0
    2.5642    8.8073   14.1014 C   0  0  0  0  0  0  0  0  0  0  0  0
    1.9515    8.1390   13.3869 N   0  0  0  0  0  0  0  0  0  0  0  0
    3.0610    5.9420   18.8118 C   0  0  0  0  0  0  0  0  0  0  0  0
    3.3873    4.9045   17.8394 C   0  0  0  0  0  0  0  0  0  0  0  0
    2.4006    4.4013   17.0329 C   0  0  0  0  0  0  0  0  0  0  0  0
    2.6425    3.4164   16.0923 C   0  0  0  0  0  0  0  0  0  0  0  0
    3.9168    2.9173   15.9539 C   0  0  0  0  0  0  0  0  0  0  0  0
    4.8943    3.4183   16.7548 C   0  0  0  0  0  0  0  0  0  0  0  0
    4.6677    4.3902   17.6867 C   0  0  0  0  0  0  0  0  0  0  0  0
 19 20  1  0  0  0
 20 21  1  0  0  0
 20 18  1  0  0  0
 18  5  1  0  0  0
  5  6  1  0  0  0
  6  7  1  0  0  0
  7  8  2  0  0  0
  7 10  1  0  0  0
 10 11  1  0  0  0
 11 12  1  0  0  0
 12 13  2  0  0  0
 13 14  1  0  0  0
 14 15  2  0  0  0
 15 16  1  0  0  0
 16 17  2  0  0  0
  5  1  1  0  0  0
  1  2  2  0  0  0
  1  3  1  0  0  0
  3 22  1  0  0  0
 22 34  1  0  0  0
 34 35  1  0  0  0
 35 36  2  0  0  0
 36 37  1  0  0  0
 37 38  2  0  0  0
 38 39  1  0  0  0
 39 40  2  0  0  0
 22 23  1  0  0  0
 23 24  2  0  0  0
 23 25  1  0  0  0
 25 26  2  0  0  0
 25 27  1  0  0  0
 27 29  1  0  0  0
 29 30  1  0  0  0
 30 31  1  0  0  0
 29 32  1  0  0  0
 32 33  3  0  0  0
 17 12  1  0  0  0
 40 35  1  0  0  0
 31 29  1  0  0  0
  6  9  1  0  0  0
  3  4  1  0  0  0
 27 28  1  0  0  0
M  END
> <minimizedAffinity>
-8.01802

> <CNNscore>
0.3793379366

> <CNNaffinity>
6.5814847946

> <CNN_VS>
2.4966068268

> <CNNaffinity_variance>
0.3857308328

$$$$
[H]c1c([H])c([H])c(C([H])([H])OC(=O)N([H])[C@]([H])(C(=O)N([H])[C@]([H])(C(=O)C(=O)N([H])C2(C#N)C([H])([H])C2([H])[H])C([H])([H])c2c([H])c([H])c([H])c([H])c2[H])C([H])([H])C([H])(C([H])([H])[H])C([H])([H])[H])c([H])c1[H]


 40 42  0  0  0  0  0  0  0  0999 V2000
    4.9643    6.3971   21.6083 C   0  0  0  0  0  0  0  0  0  0  0  0
    6.1806    6.0634   21.2623 O   0  0  0  0  0  0  0  0  0  0  0  0
    4.8280    7.7878   21.8775 N   0  0  0  0  0  0  0  0  0  0  0  0
    3.9060    8.1516   22.1419 H   0  0  0  0  0  0  0  0  0  0  0  0
    3.9995    5.3356   21.6481 C   0  0  0  0  0  0  0  0  0  0  0  0
    4.0146    4.7354   20.2761 N   0  0  0  0  0  0  0  0  0  0  0  0
    3.6678    5.4378   19.1223 C   0  0  0  0  0  0  0  0  0  0  0  0
    3.3109    6.6405   19.1594 O   0  0  0  0  0  0  0  0  0  0  0  0
    4.3072    3.7429   20.2440 H   0  0  0  0  0  0  0  0  0  0  0  0
    3.7154    4.8031   17.8907 O   0  0  0  0  0  0  0  0  0  0  0  0
    4.6018    3.7752   17.5687 C   0  0  0  0  0  0  0  0  0  0  0  0
    3.9532    2.4675   17.4503 C   0  0  0  0  0  0  0  0  0  0  0  0
    3.4390    2.0524   16.2177 C   0  0  0  0  0  0  0  0  0  0  0  0
    2.8310    0.8150   16.0696 C   0  0  0  0  0  0  0  0  0  0  0  0
    2.7205   -0.0390   17.1451 C   0  0  0  0  0  0  0  0  0  0  0  0
    3.2281    0.3769   18.3512 C   0  0  0  0  0  0  0  0  0  0  0  0
    3.8432    1.6173   18.5204 C   0  0  0  0  0  0  0  0  0  0  0  0
    4.0954    4.2178   22.6088 C   0  0  0  0  0  0  0  0  0  0  0  0
    3.6863    1.7221   22.5403 C   0  0  0  0  0  0  0  0  0  0  0  0
    4.5570    2.8826   22.1905 C   0  0  0  0  0  0  0  0  0  0  0  0
    5.9900    2.5964   22.4693 C   0  0  0  0  0  0  0  0  0  0  0  0
    5.9339    8.7078   21.7678 C   0  0  0  0  0  0  0  0  0  0  0  0
    6.6381    9.0318   22.9964 C   0  0  0  0  0  0  0  0  0  0  0  0
    6.1139    9.7536   23.8696 O   0  0  0  0  0  0  0  0  0  0  0  0
    7.9893    8.5238   23.2755 C   0  0  0  0  0  0  0  0  0  0  0  0
    8.8226    9.3155   23.7304 O   0  0  0  0  0  0  0  0  0  0  0  0
    8.2989    7.1824   23.0196 N   0  0  0  0  0  0  0  0  0  0  0  0
    7.5145    6.5394   22.6272 H   0  0  0  0  0  0  0  0  0  0  0  0
    9.5634    6.5893   23.2313 C   0  0  0  0  0  0  0  0  0  0  0  0
    9.9690    5.5149   22.2582 C   0  0  0  0  0  0  0  0  0  0  0  0
   10.7945    6.7629   22.4158 C   0  0  0  0  0  0  0  0  0  0  0  0
    9.8157    6.2558   24.6660 C   0  0  0  0  0  0  0  0  0  0  0  0
   10.0192    6.0096   25.7753 N   0  0  0  0  0  0  0  0  0  0  0  0
    5.5409    9.9841   21.0630 C   0  0  0  0  0  0  0  0  0  0  0  0
    5.1072    9.7902   19.6837 C   0  0  0  0  0  0  0  0  0  0  0  0
    5.9184    9.1153   18.8098 C   0  0  0  0  0  0  0  0  0  0  0  0
    5.5679    8.8987   17.4895 C   0  0  0  0  0  0  0  0  0  0  0  0
    4.3627    9.3743   17.0271 C   0  0  0  0  0  0  0  0  0  0  0  0
    3.5593   10.0433   17.8959 C   0  0  0  0  0  0  0  0  0  0  0  0
    3.8945   10.2632   19.2011 C   0  0  0  0  0  0  0  0  0  0  0  0
 19 20  1  0  0  0
 20 21  1  0  0  0
 20 18  1  0  0  0
 18  5  1  0  0  0
  5  6  1  0  0  0
  6  7  1  0  0  0
  7  8  2  0  0  0
  7 10  1  0  0  0
 10 11  1  0  0  0
 11 12  1  0  0  0
 12 13  2  0  0  0
 13 14  1  0  0  0
 14 15  2  0  0  0
 15 16  1  0  0  0
 16 17  2  0  0  0
  5  1  1  0  0  0
  1  2  2  0  0  0
  1  3  1  0  0  0
  3 22  1  0  0  0
 22 34  1  0  0  0
 34 35  1  0  0  0
 35 36  2  0  0  0
 36 37  1  0  0  0
 37 38  2  0  0  0
 38 39  1  0  0  0
 39 40  2  0  0  0
 22 23  1  0  0  0
 23 24  2  0  0  0
 23 25  1  0  0  0
 25 26  2  0  0  0
 25 27  1  0  0  0
 27 29  1  0  0  0
 29 30  1  0  0  0
 30 31  1  0  0  0
 29 32  1  0  0  0
 32 33  3  0  0  0
 17 12  1  0  0  0
 40 35  1  0  0  0
 31 29  1  0  0  0
  6  9  1  0  0  0
  3  4  1  0  0  0
 27 28  1  0  0  0
M  END
> <minimizedAffinity>
-8.55233

> <CNNscore>
0.3633066714

> <CNNaffinity>
6.6431474686

> <CNN_VS>
2.4134998322

> <CNNaffinity_variance>
0.1296168864

$$$$
[H]c1c([H])c([H])c(C([H])([H])OC(=O)N([H])[C@]([H])(C(=O)N([H])[C@]([H])(C(=O)C(=O)N([H])C2(C#N)C([H])([H])C2([H])[H])C([H])([H])c2c([H])c([H])c([H])c([H])c2[H])C([H])([H])C([H])(C([H])([H])[H])C([H])([H])[H])c([H])c1[H]


 40 42  0  0  0  0  0  0  0  0999 V2000
    3.7370    5.0601   16.8366 C   0  0  0  0  0  0  0  0  0  0  0  0
    2.7502    5.5044   17.5708 O   0  0  0  0  0  0  0  0  0  0  0  0
    4.5873    6.0995   16.3658 N   0  0  0  0  0  0  0  0  0  0  0  0
    5.4013    5.8505   15.7932 H   0  0  0  0  0  0  0  0  0  0  0  0
    3.7978    3.6395   16.6433 C   0  0  0  0  0  0  0  0  0  0  0  0
    3.9500    3.0595   18.0156 N   0  0  0  0  0  0  0  0  0  0  0  0
    4.2258    1.7143   18.2590 C   0  0  0  0  0  0  0  0  0  0  0  0
    4.3643    0.8859   17.3265 O   0  0  0  0  0  0  0  0  0  0  0  0
    3.8343    3.7413   18.7860 H   0  0  0  0  0  0  0  0  0  0  0  0
    4.3554    1.2643   19.5639 O   0  0  0  0  0  0  0  0  0  0  0  0
    5.3541    1.6804   20.4444 C   0  0  0  0  0  0  0  0  0  0  0  0
    4.8588    2.5544   21.5101 C   0  0  0  0  0  0  0  0  0  0  0  0
    4.5585    2.0207   22.7674 C   0  0  0  0  0  0  0  0  0  0  0  0
    4.1003    2.8235   23.8011 C   0  0  0  0  0  0  0  0  0  0  0  0
    3.9303    4.1770   23.6078 C   0  0  0  0  0  0  0  0  0  0  0  0
    4.2275    4.6921   22.3702 C   0  0  0  0  0  0  0  0  0  0  0  0
    4.6896    3.9015   21.3181 C   0  0  0  0  0  0  0  0  0  0  0  0
    2.7167    2.8873   15.9747 C   0  0  0  0  0  0  0  0  0  0  0  0
    1.7321    1.8947   13.8661 C   0  0  0  0  0  0  0  0  0  0  0  0
    2.4827    3.0037   14.5247 C   0  0  0  0  0  0  0  0  0  0  0  0
    3.6701    3.4115   13.7265 C   0  0  0  0  0  0  0  0  0  0  0  0
    4.3598    7.4879   16.6854 C   0  0  0  0  0  0  0  0  0  0  0  0
    3.8938    8.3389   15.6043 C   0  0  0  0  0  0  0  0  0  0  0  0
    4.0974    9.5705   15.6186 O   0  0  0  0  0  0  0  0  0  0  0  0
    3.1718    7.7968   14.4438 C   0  0  0  0  0  0  0  0  0  0  0  0
    3.8364    7.2794   13.5390 O   0  0  0  0  0  0  0  0  0  0  0  0
    1.7753    7.8819   14.3866 N   0  0  0  0  0  0  0  0  0  0  0  0
    1.2536    8.3425   15.2222 H   0  0  0  0  0  0  0  0  0  0  0  0
    0.9792    7.4131   13.3179 C   0  0  0  0  0  0  0  0  0  0  0  0
    0.6571    5.9428   13.3195 C   0  0  0  0  0  0  0  0  0  0  0  0
   -0.4396    6.9716   13.3699 C   0  0  0  0  0  0  0  0  0  0  0  0
    1.4090    7.9538   11.9928 C   0  0  0  0  0  0  0  0  0  0  0  0
    1.7399    8.3849   10.9743 N   0  0  0  0  0  0  0  0  0  0  0  0
    5.5631    8.1226   17.3407 C   0  0  0  0  0  0  0  0  0  0  0  0
    5.3696    8.4442   18.7504 C   0  0  0  0  0  0  0  0  0  0  0  0
    5.2490    9.7542   19.1333 C   0  0  0  0  0  0  0  0  0  0  0  0
    5.0655   10.1271   20.4525 C   0  0  0  0  0  0  0  0  0  0  0  0
    5.0005    9.1545   21.4232 C   0  0  0  0  0  0  0  0  0  0  0  0
    5.1201    7.8555   21.0411 C   0  0  0  0  0  0  0  0  0  0  0  0
    5.3015    7.4753   19.7423 C   0  0  0  0  0  0  0  0  0  0  0  0
 19 20  1  0  0  0
 20 21  1  0  0  0
 20 18  1  0  0  0
 18  5  1  0  0  0
  5  6  1  0  0  0
  6  7  1  0  0  0
  7  8  2  0  0  0
  7 10  1  0  0  0
 10 11  1  0  0  0
 11 12  1  0  0  0
 12 13  2  0  0  0
 13 14  1  0  0  0
 14 15  2  0  0  0
 15 16  1  0  0  0
 16 17  2  0  0  0
  5  1  1  0  0  0
  1  2  2  0  0  0
  1  3  1  0  0  0
  3 22  1  0  0  0
 22 34  1  0  0  0
 34 35  1  0  0  0
 35 36  2  0  0  0
 36 37  1  0  0  0
 37 38  2  0  0  0
 38 39  1  0  0  0
 39 40  2  0  0  0
 22 23  1  0  0  0
 23 24  2  0  0  0
 23 25  1  0  0  0
 25 26  2  0  0  0
 25 27  1  0  0  0
 27 29  1  0  0  0
 29 30  1  0  0  0
 30 31  1  0  0  0
 29 32  1  0  0  0
 32 33  3  0  0  0
 17 12  1  0  0  0
 40 35  1  0  0  0
 31 29  1  0  0  0
  6  9  1  0  0  0
  3  4  1  0  0  0
 27 28  1  0  0  0
M  END
> <minimizedAffinity>
-7.80811

> <CNNscore>
0.3579493761

> <CNNaffinity>
6.4063377380

> <CNN_VS>
2.2931447029

> <CNNaffinity_variance>
0.1751294732

$$$$
[H]c1c([H])c([H])c(C([H])([H])OC(=O)N([H])[C@]([H])(C(=O)N([H])[C@]([H])(C(=O)C(=O)N([H])C2(C#N)C([H])([H])C2([H])[H])C([H])([H])c2c([H])c([H])c([H])c([H])c2[H])C([H])([H])C([H])(C([H])([H])[H])C([H])([H])[H])c([H])c1[H]


 40 42  0  0  0  0  0  0  0  0999 V2000
    4.5567    7.4637   19.3784 C   0  0  0  0  0  0  0  0  0  0  0  0
    3.3536    7.7050   18.9259 O   0  0  0  0  0  0  0  0  0  0  0  0
    5.2965    6.5835   18.5398 N   0  0  0  0  0  0  0  0  0  0  0  0
    6.2593    6.3450   18.8015 H   0  0  0  0  0  0  0  0  0  0  0  0
    4.9189    8.1157   20.6043 C   0  0  0  0  0  0  0  0  0  0  0  0
    4.5448    7.1540   21.6896 N   0  0  0  0  0  0  0  0  0  0  0  0
    5.2559    5.9865   21.9654 C   0  0  0  0  0  0  0  0  0  0  0  0
    6.2732    5.6579   21.3079 O   0  0  0  0  0  0  0  0  0  0  0  0
    3.7048    7.4228   22.2318 H   0  0  0  0  0  0  0  0  0  0  0  0
    4.8402    5.1552   22.9940 O   0  0  0  0  0  0  0  0  0  0  0  0
    3.9970    4.0566   22.8262 C   0  0  0  0  0  0  0  0  0  0  0  0
    4.6604    2.9071   22.2069 C   0  0  0  0  0  0  0  0  0  0  0  0
    5.9455    2.5383   22.6175 C   0  0  0  0  0  0  0  0  0  0  0  0
    6.5954    1.4473   22.0603 C   0  0  0  0  0  0  0  0  0  0  0  0
    5.9814    0.6974   21.0812 C   0  0  0  0  0  0  0  0  0  0  0  0
    4.7200    1.0669   20.6844 C   0  0  0  0  0  0  0  0  0  0  0  0
    4.0497    2.1604   21.2325 C   0  0  0  0  0  0  0  0  0  0  0  0
    6.2988    8.5636   20.8818 C   0  0  0  0  0  0  0  0  0  0  0  0
    6.6762   10.2571   22.7232 C   0  0  0  0  0  0  0  0  0  0  0  0
    6.5925    9.9560   21.2639 C   0  0  0  0  0  0  0  0  0  0  0  0
    5.8058   10.9875   20.5357 C   0  0  0  0  0  0  0  0  0  0  0  0
    4.7497    6.0348   17.3226 C   0  0  0  0  0  0  0  0  0  0  0  0
    4.6213    6.9435   16.1966 C   0  0  0  0  0  0  0  0  0  0  0  0
    5.2038    8.0476   16.1886 O   0  0  0  0  0  0  0  0  0  0  0  0
    3.8124    6.6088   15.0154 C   0  0  0  0  0  0  0  0  0  0  0  0
    2.8214    7.3079   14.7757 O   0  0  0  0  0  0  0  0  0  0  0  0
    4.1710    5.5234   14.2068 N   0  0  0  0  0  0  0  0  0  0  0  0
    5.0604    4.9565   14.4718 H   0  0  0  0  0  0  0  0  0  0  0  0
    3.4620    5.0989   13.0610 C   0  0  0  0  0  0  0  0  0  0  0  0
    3.3492    3.6117   12.8578 C   0  0  0  0  0  0  0  0  0  0  0  0
    2.1186    4.4639   13.0094 C   0  0  0  0  0  0  0  0  0  0  0  0
    3.8284    5.8679   11.8332 C   0  0  0  0  0  0  0  0  0  0  0  0
    4.0975    6.4634   10.8816 N   0  0  0  0  0  0  0  0  0  0  0  0
    3.4311    5.3378   17.5581 C   0  0  0  0  0  0  0  0  0  0  0  0
    3.4409    3.9196   17.2162 C   0  0  0  0  0  0  0  0  0  0  0  0
    2.3666    3.3756   16.5626 C   0  0  0  0  0  0  0  0  0  0  0  0
    2.3118    2.0390   16.2112 C   0  0  0  0  0  0  0  0  0  0  0  0
    3.3695    1.2174   16.5250 C   0  0  0  0  0  0  0  0  0  0  0  0
    4.4345    1.7593   17.1732 C   0  0  0  0  0  0  0  0  0  0  0  0
    4.4999    3.0768   17.5252 C   0  0  0  0  0  0  0  0  0  0  0  0
 19 20  1  0  0  0
 20 21  1  0  0  0
 20 18  1  0  0  0
 18  5  1  0  0  0
  5  6  1  0  0  0
  6  7  1  0  0  0
  7  8  2  0  0  0
  7 10  1  0  0  0
 10 11  1  0  0  0
 11 12  1  0  0  0
 12 13  2  0  0  0
 13 14  1  0  0  0
 14 15  2  0  0  0
 15 16  1  0  0  0
 16 17  2  0  0  0
  5  1  1  0  0  0
  1  2  2  0  0  0
  1  3  1  0  0  0
  3 22  1  0  0  0
 22 34  1  0  0  0
 34 35  1  0  0  0
 35 36  2  0  0  0
 36 37  1  0  0  0
 37 38  2  0  0  0
 38 39  1  0  0  0
 39 40  2  0  0  0
 22 23  1  0  0  0
 23 24  2  0  0  0
 23 25  1  0  0  0
 25 26  2  0  0  0
 25 27  1  0  0  0
 27 29  1  0  0  0
 29 30  1  0  0  0
 30 31  1  0  0  0
 29 32  1  0  0  0
 32 33  3  0  0  0
 17 12  1  0  0  0
 40 35  1  0  0  0
 31 29  1  0  0  0
  6  9  1  0  0  0
  3  4  1  0  0  0
 27 28  1  0  0  0
M  END
> <minimizedAffinity>
-7.84088

> <CNNscore>
0.3412309587

> <CNNaffinity>
6.4539060593

> <CNN_VS>
2.2022726536

> <CNNaffinity_variance>
0.2514515817

$$$$
[H]O[C@@]([H])(C([H])([H])C(=O)N([H])[C@]([H])(C(=O)N([H])[C@]([H])(C(=O)N([H])[H])C([H])([H])C([H])(C([H])([H])[H])C([H])([H])[H])C([H])([H])[H])[C@@]([H])(N([H])C(=O)[C@@]([H])(N([H])C(=O)C([H])([H])C([H])(C([H])([H])[H])C([H])([H])[H])C([H])(c1c([H])c([H])c([H])c([H])c1[H])c1c([H])c([H])c([H])c([H])c1[H])C([H])([H])C([H])(C([H])([H])[H])C([H])([H])[H]


 55 56  0  0  0  0  0  0  0  0999 V2000
    4.1148    8.8175   17.2255 C   0  0  0  0  0  0  0  0  0  0  0  0
    3.2657    7.8109   16.5889 N   0  0  0  0  0  0  0  0  0  0  0  0
    3.8310    6.6337   16.0395 C   0  0  0  0  0  0  0  0  0  0  0  0
    5.0811    6.4496   16.1001 O   0  0  0  0  0  0  0  0  0  0  0  0
    2.2464    8.0415   16.5745 H   0  0  0  0  0  0  0  0  0  0  0  0
    3.0347    5.5609   15.3675 C   0  0  0  0  0  0  0  0  0  0  0  0
    2.5340    6.1516   14.1112 N   0  0  0  0  0  0  0  0  0  0  0  0
    1.1702    6.4019   13.8610 C   0  0  0  0  0  0  0  0  0  0  0  0
    0.3658    6.0846   14.8044 O   0  0  0  0  0  0  0  0  0  0  0  0
    3.2343    6.3854   13.3973 H   0  0  0  0  0  0  0  0  0  0  0  0
    0.6663    6.9894   12.6085 C   0  0  0  0  0  0  0  0  0  0  0  0
    0.9782    6.1335   11.4035 C   0  0  0  0  0  0  0  0  0  0  0  0
    1.1710    6.8979   10.1372 C   0  0  0  0  0  0  0  0  0  0  0  0
   -0.1805    5.1743   11.2148 C   0  0  0  0  0  0  0  0  0  0  0  0
    3.8905    4.3962   14.9542 C   0  0  0  0  0  0  0  0  0  0  0  0
    3.8388    3.2237   15.8448 C   0  0  0  0  0  0  0  0  0  0  0  0
    2.9306    2.1769   15.6315 C   0  0  0  0  0  0  0  0  0  0  0  0
    2.8343    1.0836   16.4391 C   0  0  0  0  0  0  0  0  0  0  0  0
    3.6568    0.9715   17.5282 C   0  0  0  0  0  0  0  0  0  0  0  0
    4.5681    1.9721   17.7840 C   0  0  0  0  0  0  0  0  0  0  0  0
    4.6515    3.0871   16.9426 C   0  0  0  0  0  0  0  0  0  0  0  0
    3.6937    3.9935   13.5571 C   0  0  0  0  0  0  0  0  0  0  0  0
    2.6987    3.1274   13.1465 C   0  0  0  0  0  0  0  0  0  0  0  0
    2.5652    2.7817   11.8179 C   0  0  0  0  0  0  0  0  0  0  0  0
    3.4127    3.2815   10.8465 C   0  0  0  0  0  0  0  0  0  0  0  0
    4.4058    4.1460   11.2557 C   0  0  0  0  0  0  0  0  0  0  0  0
    4.5286    4.4842   12.5893 C   0  0  0  0  0  0  0  0  0  0  0  0
    3.7821    8.8434   18.6950 C   0  0  0  0  0  0  0  0  0  0  0  0
    3.4112    7.5380   19.1015 O   0  0  0  0  0  0  0  0  0  0  0  0
    4.1177    6.9195   18.7343 H   0  0  0  0  0  0  0  0  0  0  0  0
    4.8628    9.3589   19.5824 C   0  0  0  0  0  0  0  0  0  0  0  0
    5.9351    7.6223   21.1109 N   0  0  0  0  0  0  0  0  0  0  0  0
    5.8385    8.2940   19.8879 C   0  0  0  0  0  0  0  0  0  0  0  0
    6.6544    7.9584   18.9766 O   0  0  0  0  0  0  0  0  0  0  0  0
    5.2597    7.8973   21.8804 H   0  0  0  0  0  0  0  0  0  0  0  0
    6.8705    6.5874   21.4294 C   0  0  0  0  0  0  0  0  0  0  0  0
    7.4777    6.7804   22.8124 C   0  0  0  0  0  0  0  0  0  0  0  0
    6.1969    4.3789   22.5247 N   0  0  0  0  0  0  0  0  0  0  0  0
    6.1632    5.2835   21.4150 C   0  0  0  0  0  0  0  0  0  0  0  0
    5.4935    4.9231   20.4029 O   0  0  0  0  0  0  0  0  0  0  0  0
    6.7401    4.6900   23.3457 H   0  0  0  0  0  0  0  0  0  0  0  0
    5.5024    3.1218   22.5024 C   0  0  0  0  0  0  0  0  0  0  0  0
    4.5743    2.9888   23.6691 C   0  0  0  0  0  0  0  0  0  0  0  0
    3.5140    3.9034   23.8188 N   0  0  0  0  0  0  0  0  0  0  0  0
    4.7208    2.0790   24.5177 O   0  0  0  0  0  0  0  0  0  0  0  0
    2.5074    3.6406   23.8620 H   0  0  0  0  0  0  0  0  0  0  0  0
    3.7530    4.9272   23.8922 H   0  0  0  0  0  0  0  0  0  0  0  0
    6.3443    1.9160   22.3093 C   0  0  0  0  0  0  0  0  0  0  0  0
    7.1287   -0.0609   21.1574 C   0  0  0  0  0  0  0  0  0  0  0  0
    6.0575    1.0491   21.1365 C   0  0  0  0  0  0  0  0  0  0  0  0
    4.7423    0.3344   21.1592 C   0  0  0  0  0  0  0  0  0  0  0  0
    3.9714   10.1532   16.5747 C   0  0  0  0  0  0  0  0  0  0  0  0
    3.9400   10.1227   15.0666 C   0  0  0  0  0  0  0  0  0  0  0  0
    5.1700    9.5740   14.4275 C   0  0  0  0  0  0  0  0  0  0  0  0
    3.7516   11.5847   14.6327 C   0  0  0  0  0  0  0  0  0  0  0  0
 49 50  1  0  0  0
 50 51  1  0  0  0
 50 48  1  0  0  0
 48 42  1  0  0  0
 42 38  1  0  0  0
 38 39  1  0  0  0
 39 40  2  0  0  0
 39 36  1  0  0  0
 36 37  1  0  0  0
 36 32  1  0  0  0
 32 33  1  0  0  0
 33 34  2  0  0  0
 33 31  1  0  0  0
 31 28  1  0  0  0
 28 29  1  0  0  0
 28  1  1  0  0  0
  1 52  1  0  0  0
 52 53  1  0  0  0
 53 54  1  0  0  0
 53 55  1  0  0  0
  1  2  1  0  0  0
  2  3  1  0  0  0
  3  4  2  0  0  0
  3  6  1  0  0  0
  6  7  1  0  0  0
  7  8  1  0  0  0
  8  9  2  0  0  0
  8 11  1  0  0  0
 11 12  1  0  0  0
 12 13  1  0  0  0
 12 14  1  0  0  0
  6 15  1  0  0  0
 15 22  1  0  0  0
 22 23  2  0  0  0
 23 24  1  0  0  0
 24 25  2  0  0  0
 25 26  1  0  0  0
 26 27  2  0  0  0
 15 16  1  0  0  0
 16 17  2  0  0  0
 17 18  1  0  0  0
 18 19  2  0  0  0
 19 20  1  0  0  0
 20 21  2  0  0  0
 42 43  1  0  0  0
 43 44  1  0  0  0
 43 45  2  0  0  0
 27 22  1  0  0  0
 21 16  1  0  0  0
 38 41  1  0  0  0
 32 35  1  0  0  0
 29 30  1  0  0  0
  2  5  1  0  0  0
  7 10  1  0  0  0
 44 46  1  0  0  0
 44 47  1  0  0  0
M  END
> <minimizedAffinity>
-8.56219

> <CNNscore>
0.3391551375

> <CNNaffinity>
7.1178002357

> <CNN_VS>
2.4140384197

> <CNNaffinity_variance>
0.5332187414

$$$$
[H]O[C@@]([H])(C([H])([H])C(=O)N([H])[C@]([H])(C(=O)N([H])[C@]([H])(C(=O)N([H])[H])C([H])([H])C([H])(C([H])([H])[H])C([H])([H])[H])C([H])([H])[H])[C@@]([H])(N([H])C(=O)[C@@]([H])(N([H])C(=O)C([H])([H])C([H])(C([H])([H])[H])C([H])([H])[H])C([H])(c1c([H])c([H])c([H])c([H])c1[H])c1c([H])c([H])c([H])c([H])c1[H])C([H])([H])C([H])(C([H])([H])[H])C([H])([H])[H]


 55 56  0  0  0  0  0  0  0  0999 V2000
    4.0142    4.2797   16.3870 C   0  0  0  0  0  0  0  0  0  0  0  0
    3.9690    4.8609   17.7285 N   0  0  0  0  0  0  0  0  0  0  0  0
    4.9872    5.7430   18.1670 C   0  0  0  0  0  0  0  0  0  0  0  0
    5.9443    6.0325   17.3920 O   0  0  0  0  0  0  0  0  0  0  0  0
    3.1501    4.5665   18.3074 H   0  0  0  0  0  0  0  0  0  0  0  0
    5.0180    6.3735   19.5227 C   0  0  0  0  0  0  0  0  0  0  0  0
    5.7207    5.4177   20.4006 N   0  0  0  0  0  0  0  0  0  0  0  0
    5.1126    4.7850   21.5029 C   0  0  0  0  0  0  0  0  0  0  0  0
    3.8863    5.0873   21.7089 O   0  0  0  0  0  0  0  0  0  0  0  0
    6.7029    5.2179   20.1763 H   0  0  0  0  0  0  0  0  0  0  0  0
    5.8104    3.8322   22.3821 C   0  0  0  0  0  0  0  0  0  0  0  0
    5.3206    2.4147   22.2006 C   0  0  0  0  0  0  0  0  0  0  0  0
    4.5842    1.8617   23.3740 C   0  0  0  0  0  0  0  0  0  0  0  0
    6.5340    1.5442   21.9402 C   0  0  0  0  0  0  0  0  0  0  0  0
    5.8465    7.6276   19.5445 C   0  0  0  0  0  0  0  0  0  0  0  0
    5.1098    8.8788   19.2946 C   0  0  0  0  0  0  0  0  0  0  0  0
    5.7525   10.1250   19.3013 C   0  0  0  0  0  0  0  0  0  0  0  0
    5.1089   11.3082   19.0945 C   0  0  0  0  0  0  0  0  0  0  0  0
    3.7590   11.3138   18.8644 C   0  0  0  0  0  0  0  0  0  0  0  0
    3.0785   10.1165   18.8471 C   0  0  0  0  0  0  0  0  0  0  0  0
    3.7575    8.9119   19.0618 C   0  0  0  0  0  0  0  0  0  0  0  0
    6.6864    7.7521   20.7412 C   0  0  0  0  0  0  0  0  0  0  0  0
    6.1968    8.1123   21.9818 C   0  0  0  0  0  0  0  0  0  0  0  0
    7.0365    8.2173   23.0709 C   0  0  0  0  0  0  0  0  0  0  0  0
    8.3931    7.9690   22.9712 C   0  0  0  0  0  0  0  0  0  0  0  0
    8.8823    7.6093   21.7334 C   0  0  0  0  0  0  0  0  0  0  0  0
    8.0305    7.5077   20.6507 C   0  0  0  0  0  0  0  0  0  0  0  0
    2.7153    4.6054   15.6959 C   0  0  0  0  0  0  0  0  0  0  0  0
    2.0396    5.6024   16.4418 O   0  0  0  0  0  0  0  0  0  0  0  0
    2.7235    6.3170   16.6373 H   0  0  0  0  0  0  0  0  0  0  0  0
    2.8422    5.0387   14.2756 C   0  0  0  0  0  0  0  0  0  0  0  0
    4.4142    7.0339   14.4996 N   0  0  0  0  0  0  0  0  0  0  0  0
    3.1678    6.4766   14.1966 C   0  0  0  0  0  0  0  0  0  0  0  0
    2.2517    7.2722   13.8271 O   0  0  0  0  0  0  0  0  0  0  0  0
    5.1860    6.3778   14.8123 H   0  0  0  0  0  0  0  0  0  0  0  0
    4.7532    8.4223   14.4293 C   0  0  0  0  0  0  0  0  0  0  0  0
    5.4297    8.9042   15.7055 C   0  0  0  0  0  0  0  0  0  0  0  0
    6.0686    7.5704   12.4106 N   0  0  0  0  0  0  0  0  0  0  0  0
    5.6963    8.6271   13.3027 C   0  0  0  0  0  0  0  0  0  0  0  0
    6.2104    9.7641   13.0893 O   0  0  0  0  0  0  0  0  0  0  0  0
    5.6351    6.6512   12.5922 H   0  0  0  0  0  0  0  0  0  0  0  0
    6.9775    7.7819   11.3187 C   0  0  0  0  0  0  0  0  0  0  0  0
    6.2873    7.6438    9.9979 C   0  0  0  0  0  0  0  0  0  0  0  0
    5.6890    8.7736    9.4072 N   0  0  0  0  0  0  0  0  0  0  0  0
    6.2300    6.5419    9.4047 O   0  0  0  0  0  0  0  0  0  0  0  0
    5.9341    9.1500    8.4679 H   0  0  0  0  0  0  0  0  0  0  0  0
    4.9400    9.2761    9.9523 H   0  0  0  0  0  0  0  0  0  0  0  0
    8.2499    7.0216   11.3739 C   0  0  0  0  0  0  0  0  0  0  0  0
    9.6369    8.4555   12.7415 C   0  0  0  0  0  0  0  0  0  0  0  0
    9.5208    7.7920   11.3537 C   0  0  0  0  0  0  0  0  0  0  0  0
   10.7710    6.9844   11.1922 C   0  0  0  0  0  0  0  0  0  0  0  0
    4.2977    2.8148   16.4285 C   0  0  0  0  0  0  0  0  0  0  0  0
    3.5689    2.0592   17.5120 C   0  0  0  0  0  0  0  0  0  0  0  0
    4.4319    1.5854   18.6314 C   0  0  0  0  0  0  0  0  0  0  0  0
    2.9372    0.8470   16.8101 C   0  0  0  0  0  0  0  0  0  0  0  0
 49 50  1  0  0  0
 50 51  1  0  0  0
 50 48  1  0  0  0
 48 42  1  0  0  0
 42 38  1  0  0  0
 38 39  1  0  0  0
 39 40  2  0  0  0
 39 36  1  0  0  0
 36 37  1  0  0  0
 36 32  1  0  0  0
 32 33  1  0  0  0
 33 34  2  0  0  0
 33 31  1  0  0  0
 31 28  1  0  0  0
 28 29  1  0  0  0
 28  1  1  0  0  0
  1 52  1  0  0  0
 52 53  1  0  0  0
 53 54  1  0  0  0
 53 55  1  0  0  0
  1  2  1  0  0  0
  2  3  1  0  0  0
  3  4  2  0  0  0
  3  6  1  0  0  0
  6  7  1  0  0  0
  7  8  1  0  0  0
  8  9  2  0  0  0
  8 11  1  0  0  0
 11 12  1  0  0  0
 12 13  1  0  0  0
 12 14  1  0  0  0
  6 15  1  0  0  0
 15 22  1  0  0  0
 22 23  2  0  0  0
 23 24  1  0  0  0
 24 25  2  0  0  0
 25 26  1  0  0  0
 26 27  2  0  0  0
 15 16  1  0  0  0
 16 17  2  0  0  0
 17 18  1  0  0  0
 18 19  2  0  0  0
 19 20  1  0  0  0
 20 21  2  0  0  0
 42 43  1  0  0  0
 43 44  1  0  0  0
 43 45  2  0  0  0
 27 22  1  0  0  0
 21 16  1  0  0  0
 38 41  1  0  0  0
 32 35  1  0  0  0
 29 30  1  0  0  0
  2  5  1  0  0  0
  7 10  1  0  0  0
 44 46  1  0  0  0
 44 47  1  0  0  0
M  END
> <minimizedAffinity>
-8.55831

> <CNNscore>
0.2928028405

> <CNNaffinity>
6.8162713051

> <CNN_VS>
1.9958236217

> <CNNaffinity_variance>
1.1653010845

$$$$
[H]O[C@@]([H])(C([H])([H])C(=O)N([H])[C@]([H])(C(=O)N([H])[C@]([H])(C(=O)N([H])[H])C([H])([H])C([H])(C([H])([H])[H])C([H])([H])[H])C([H])([H])[H])[C@@]([H])(N([H])C(=O)[C@@]([H])(N([H])C(=O)C([H])([H])C([H])(C([H])([H])[H])C([H])([H])[H])C([H])(c1c([H])c([H])c([H])c([H])c1[H])c1c([H])c([H])c([H])c([H])c1[H])C([H])([H])C([H])(C([H])([H])[H])C([H])([H])[H]


 55 56  0  0  0  0  0  0  0  0999 V2000
    3.4583    6.7036   14.9471 C   0  0  0  0  0  0  0  0  0  0  0  0
    3.1714    7.2029   16.2917 N   0  0  0  0  0  0  0  0  0  0  0  0
    4.2211    7.4306   17.2156 C   0  0  0  0  0  0  0  0  0  0  0  0
    5.4179    7.2014   16.8758 O   0  0  0  0  0  0  0  0  0  0  0  0
    2.1584    7.3603   16.4949 H   0  0  0  0  0  0  0  0  0  0  0  0
    4.0120    7.9330   18.6086 C   0  0  0  0  0  0  0  0  0  0  0  0
    4.5353    6.8826   19.5034 N   0  0  0  0  0  0  0  0  0  0  0  0
    3.8453    5.6863   19.7824 C   0  0  0  0  0  0  0  0  0  0  0  0
    2.7120    5.5517   19.2033 O   0  0  0  0  0  0  0  0  0  0  0  0
    5.4525    7.0539   19.9327 H   0  0  0  0  0  0  0  0  0  0  0  0
    4.3629    4.6367   20.6757 C   0  0  0  0  0  0  0  0  0  0  0  0
    4.9168    5.1976   21.9644 C   0  0  0  0  0  0  0  0  0  0  0  0
    6.4012    5.1148   22.0856 C   0  0  0  0  0  0  0  0  0  0  0  0
    4.2965    4.4145   23.1047 C   0  0  0  0  0  0  0  0  0  0  0  0
    4.8346    9.1576   18.8975 C   0  0  0  0  0  0  0  0  0  0  0  0
    4.1077   10.4378   18.8405 C   0  0  0  0  0  0  0  0  0  0  0  0
    2.7339   10.4925   18.5651 C   0  0  0  0  0  0  0  0  0  0  0  0
    2.0251   11.6535   18.4836 C   0  0  0  0  0  0  0  0  0  0  0  0
    2.6615   12.8505   18.6767 C   0  0  0  0  0  0  0  0  0  0  0  0
    4.0114   12.8539   18.9504 C   0  0  0  0  0  0  0  0  0  0  0  0
    4.7217   11.6509   19.0299 C   0  0  0  0  0  0  0  0  0  0  0  0
    5.6127    9.0594   20.1376 C   0  0  0  0  0  0  0  0  0  0  0  0
    5.0563    9.1709   21.3972 C   0  0  0  0  0  0  0  0  0  0  0  0
    5.8399    9.0741   22.5281 C   0  0  0  0  0  0  0  0  0  0  0  0
    7.2043    8.8631   22.4530 C   0  0  0  0  0  0  0  0  0  0  0  0
    7.7601    8.7515   21.1961 C   0  0  0  0  0  0  0  0  0  0  0  0
    6.9641    8.8503   20.0716 C   0  0  0  0  0  0  0  0  0  0  0  0
    3.2906    7.8481   13.9813 C   0  0  0  0  0  0  0  0  0  0  0  0
    2.0071    8.4179   14.1683 O   0  0  0  0  0  0  0  0  0  0  0  0
    1.9022    8.5505   15.1622 H   0  0  0  0  0  0  0  0  0  0  0  0
    4.3311    8.9114   14.0689 C   0  0  0  0  0  0  0  0  0  0  0  0
    5.1823    7.9565   11.8631 N   0  0  0  0  0  0  0  0  0  0  0  0
    5.3490    8.7324   13.0146 C   0  0  0  0  0  0  0  0  0  0  0  0
    6.4616    9.3242   13.1586 O   0  0  0  0  0  0  0  0  0  0  0  0
    4.2570    7.4553   11.7346 H   0  0  0  0  0  0  0  0  0  0  0  0
    6.1528    7.7694   10.8283 C   0  0  0  0  0  0  0  0  0  0  0  0
    6.7857    6.3858   10.8905 C   0  0  0  0  0  0  0  0  0  0  0  0
    5.3963    9.1621    8.8236 N   0  0  0  0  0  0  0  0  0  0  0  0
    5.4814    7.9098    9.5130 C   0  0  0  0  0  0  0  0  0  0  0  0
    4.9540    6.9078    8.9468 O   0  0  0  0  0  0  0  0  0  0  0  0
    5.8380    9.9683    9.2936 H   0  0  0  0  0  0  0  0  0  0  0  0
    4.7498    9.2850    7.5468 C   0  0  0  0  0  0  0  0  0  0  0  0
    3.2661    9.4142    7.6952 C   0  0  0  0  0  0  0  0  0  0  0  0
    2.6686    9.1484    8.9424 N   0  0  0  0  0  0  0  0  0  0  0  0
    2.5421    9.7545    6.7311 O   0  0  0  0  0  0  0  0  0  0  0  0
    2.0947    9.8302    9.4809 H   0  0  0  0  0  0  0  0  0  0  0  0
    2.8110    8.1929    9.3634 H   0  0  0  0  0  0  0  0  0  0  0  0
    5.1304    8.2797    6.5248 C   0  0  0  0  0  0  0  0  0  0  0  0
    7.1686    7.2610    5.7136 C   0  0  0  0  0  0  0  0  0  0  0  0
    6.3302    8.5558    5.6920 C   0  0  0  0  0  0  0  0  0  0  0  0
    6.0695    8.8378    4.2451 C   0  0  0  0  0  0  0  0  0  0  0  0
    2.6100    5.5248   14.6026 C   0  0  0  0  0  0  0  0  0  0  0  0
    3.3544    4.2162   14.5032 C   0  0  0  0  0  0  0  0  0  0  0  0
    4.2878    3.9415   15.6326 C   0  0  0  0  0  0  0  0  0  0  0  0
    4.1533    4.2996   13.1932 C   0  0  0  0  0  0  0  0  0  0  0  0
 49 50  1  0  0  0
 50 51  1  0  0  0
 50 48  1  0  0  0
 48 42  1  0  0  0
 42 38  1  0  0  0
 38 39  1  0  0  0
 39 40  2  0  0  0
 39 36  1  0  0  0
 36 37  1  0  0  0
 36 32  1  0  0  0
 32 33  1  0  0  0
 33 34  2  0  0  0
 33 31  1  0  0  0
 31 28  1  0  0  0
 28 29  1  0  0  0
 28  1  1  0  0  0
  1 52  1  0  0  0
 52 53  1  0  0  0
 53 54  1  0  0  0
 53 55  1  0  0  0
  1  2  1  0  0  0
  2  3  1  0  0  0
  3  4  2  0  0  0
  3  6  1  0  0  0
  6  7  1  0  0  0
  7  8  1  0  0  0
  8  9  2  0  0  0
  8 11  1  0  0  0
 11 12  1  0  0  0
 12 13  1  0  0  0
 12 14  1  0  0  0
  6 15  1  0  0  0
 15 22  1  0  0  0
 22 23  2  0  0  0
 23 24  1  0  0  0
 24 25  2  0  0  0
 25 26  1  0  0  0
 26 27  2  0  0  0
 15 16  1  0  0  0
 16 17  2  0  0  0
 17 18  1  0  0  0
 18 19  2  0  0  0
 19 20  1  0  0  0
 20 21  2  0  0  0
 42 43  1  0  0  0
 43 44  1  0  0  0
 43 45  2  0  0  0
 27 22  1  0  0  0
 21 16  1  0  0  0
 38 41  1  0  0  0
 32 35  1  0  0  0
 29 30  1  0  0  0
  2  5  1  0  0  0
  7 10  1  0  0  0
 44 46  1  0  0  0
 44 47  1  0  0  0
M  END
> <minimizedAffinity>
-8.33142

> <CNNscore>
0.2089415640

> <CNNaffinity>
6.0842094421

> <CNN_VS>
1.2712442875

> <CNNaffinity_variance>
0.4351979196

$$$$
[H]O[C@@]([H])(C([H])([H])C(=O)N([H])[C@]([H])(C(=O)N([H])[C@]([H])(C(=O)N([H])[H])C([H])([H])C([H])(C([H])([H])[H])C([H])([H])[H])C([H])([H])[H])[C@@]([H])(N([H])C(=O)[C@@]([H])(N([H])C(=O)C([H])([H])C([H])(C([H])([H])[H])C([H])([H])[H])C([H])(c1c([H])c([H])c([H])c([H])c1[H])c1c([H])c([H])c([H])c([H])c1[H])C([H])([H])C([H])(C([H])([H])[H])C([H])([H])[H]


 55 56  0  0  0  0  0  0  0  0999 V2000
    4.3203    8.7017   17.1883 C   0  0  0  0  0  0  0  0  0  0  0  0
    3.9507    7.6479   18.1330 N   0  0  0  0  0  0  0  0  0  0  0  0
    4.9448    6.8357   18.7324 C   0  0  0  0  0  0  0  0  0  0  0  0
    6.1636    7.0229   18.4498 O   0  0  0  0  0  0  0  0  0  0  0  0
    2.9245    7.5543   18.3072 H   0  0  0  0  0  0  0  0  0  0  0  0
    4.6503    5.7352   19.7013 C   0  0  0  0  0  0  0  0  0  0  0  0
    4.8436    4.4752   18.9578 N   0  0  0  0  0  0  0  0  0  0  0  0
    3.9293    3.9902   18.0018 C   0  0  0  0  0  0  0  0  0  0  0  0
    2.8956    4.7183   17.8036 O   0  0  0  0  0  0  0  0  0  0  0  0
    5.6967    3.9416   19.1636 H   0  0  0  0  0  0  0  0  0  0  0  0
    4.1175    2.7330   17.2591 C   0  0  0  0  0  0  0  0  0  0  0  0
    3.3802    1.5749   17.8895 C   0  0  0  0  0  0  0  0  0  0  0  0
    3.9736    1.0889   19.1688 C   0  0  0  0  0  0  0  0  0  0  0  0
    3.3878    0.4337   16.8915 C   0  0  0  0  0  0  0  0  0  0  0  0
    5.6421    5.6953   20.8302 C   0  0  0  0  0  0  0  0  0  0  0  0
    5.9234    6.9906   21.4734 C   0  0  0  0  0  0  0  0  0  0  0  0
    4.9770    8.0251   21.4898 C   0  0  0  0  0  0  0  0  0  0  0  0
    5.2001    9.2446   22.0553 C   0  0  0  0  0  0  0  0  0  0  0  0
    6.4062    9.5055   22.6489 C   0  0  0  0  0  0  0  0  0  0  0  0
    7.3720    8.5235   22.6610 C   0  0  0  0  0  0  0  0  0  0  0  0
    7.1236    7.2775   22.0747 C   0  0  0  0  0  0  0  0  0  0  0  0
    5.3395    4.6725   21.8378 C   0  0  0  0  0  0  0  0  0  0  0  0
    6.1694    3.6022   22.1104 C   0  0  0  0  0  0  0  0  0  0  0  0
    5.8294    2.6688   23.0673 C   0  0  0  0  0  0  0  0  0  0  0  0
    4.6542    2.7614   23.7899 C   0  0  0  0  0  0  0  0  0  0  0  0
    3.8257    3.8295   23.5184 C   0  0  0  0  0  0  0  0  0  0  0  0
    4.1780    4.7573   22.5576 C   0  0  0  0  0  0  0  0  0  0  0  0
    5.3341    8.1316   16.2301 C   0  0  0  0  0  0  0  0  0  0  0  0
    4.7855    6.9767   15.6201 O   0  0  0  0  0  0  0  0  0  0  0  0
    3.8607    7.2353   15.3129 H   0  0  0  0  0  0  0  0  0  0  0  0
    5.8174    9.0736   15.1813 C   0  0  0  0  0  0  0  0  0  0  0  0
    5.9956    7.9328   12.9078 N   0  0  0  0  0  0  0  0  0  0  0  0
    5.2965    8.6881   13.8547 C   0  0  0  0  0  0  0  0  0  0  0  0
    4.1270    9.0683   13.5439 O   0  0  0  0  0  0  0  0  0  0  0  0
    6.9751    7.6125   13.1565 H   0  0  0  0  0  0  0  0  0  0  0  0
    5.5115    7.5464   11.6179 C   0  0  0  0  0  0  0  0  0  0  0  0
    6.5864    6.8463   10.7973 C   0  0  0  0  0  0  0  0  0  0  0  0
    4.1434    5.9105   13.0260 N   0  0  0  0  0  0  0  0  0  0  0  0
    4.3805    6.6031   11.7952 C   0  0  0  0  0  0  0  0  0  0  0  0
    3.5728    6.3775   10.8468 O   0  0  0  0  0  0  0  0  0  0  0  0
    4.8052    6.1109   13.7927 H   0  0  0  0  0  0  0  0  0  0  0  0
    3.0407    5.0046   13.1886 C   0  0  0  0  0  0  0  0  0  0  0  0
    1.8354    5.7027   13.7365 C   0  0  0  0  0  0  0  0  0  0  0  0
    2.0037    6.8315   14.5614 N   0  0  0  0  0  0  0  0  0  0  0  0
    0.6768    5.3033   13.4765 O   0  0  0  0  0  0  0  0  0  0  0  0
    1.6128    7.7753   14.3599 H   0  0  0  0  0  0  0  0  0  0  0  0
    2.5650    6.7162   15.4459 H   0  0  0  0  0  0  0  0  0  0  0  0
    3.3367    3.7405   13.9059 C   0  0  0  0  0  0  0  0  0  0  0  0
    1.7099    1.9521   13.9792 C   0  0  0  0  0  0  0  0  0  0  0  0
    2.9659    2.4627   13.2433 C   0  0  0  0  0  0  0  0  0  0  0  0
    2.5700    2.5652   11.8032 C   0  0  0  0  0  0  0  0  0  0  0  0
    4.8089    9.9258   17.8891 C   0  0  0  0  0  0  0  0  0  0  0  0
    3.8420   10.5122   18.8879 C   0  0  0  0  0  0  0  0  0  0  0  0
    2.5354   10.9424   18.3135 C   0  0  0  0  0  0  0  0  0  0  0  0
    4.5609   11.7324   19.4840 C   0  0  0  0  0  0  0  0  0  0  0  0
 49 50  1  0  0  0
 50 51  1  0  0  0
 50 48  1  0  0  0
 48 42  1  0  0  0
 42 38  1  0  0  0
 38 39  1  0  0  0
 39 40  2  0  0  0
 39 36  1  0  0  0
 36 37  1  0  0  0
 36 32  1  0  0  0
 32 33  1  0  0  0
 33 34  2  0  0  0
 33 31  1  0  0  0
 31 28  1  0  0  0
 28 29  1  0  0  0
 28  1  1  0  0  0
  1 52  1  0  0  0
 52 53  1  0  0  0
 53 54  1  0  0  0
 53 55  1  0  0  0
  1  2  1  0  0  0
  2  3  1  0  0  0
  3  4  2  0  0  0
  3  6  1  0  0  0
  6  7  1  0  0  0
  7  8  1  0  0  0
  8  9  2  0  0  0
  8 11  1  0  0  0
 11 12  1  0  0  0
 12 13  1  0  0  0
 12 14  1  0  0  0
  6 15  1  0  0  0
 15 22  1  0  0  0
 22 23  2  0  0  0
 23 24  1  0  0  0
 24 25  2  0  0  0
 25 26  1  0  0  0
 26 27  2  0  0  0
 15 16  1  0  0  0
 16 17  2  0  0  0
 17 18  1  0  0  0
 18 19  2  0  0  0
 19 20  1  0  0  0
 20 21  2  0  0  0
 42 43  1  0  0  0
 43 44  1  0  0  0
 43 45  2  0  0  0
 27 22  1  0  0  0
 21 16  1  0  0  0
 38 41  1  0  0  0
 32 35  1  0  0  0
 29 30  1  0  0  0
  2  5  1  0  0  0
  7 10  1  0  0  0
 44 46  1  0  0  0
 44 47  1  0  0  0
M  END
> <minimizedAffinity>
-8.76098

> <CNNscore>
0.2038016915

> <CNNaffinity>
6.9589629173

> <CNN_VS>
1.4182484150

> <CNNaffinity_variance>
0.7789863348

$$$$
[H]O[C@@]([H])(C([H])([H])C(=O)N([H])[C@]([H])(C(=O)N([H])[C@]([H])(C(=O)N([H])[H])C([H])([H])C([H])(C([H])([H])[H])C([H])([H])[H])C([H])([H])[H])[C@@]([H])(N([H])C(=O)[C@@]([H])(N([H])C(=O)C([H])([H])C([H])(C([H])([H])[H])C([H])([H])[H])C([H])(c1c([H])c([H])c([H])c([H])c1[H])c1c([H])c([H])c([H])c([H])c1[H])C([H])([H])C([H])(C([H])([H])[H])C([H])([H])[H]


 55 56  0  0  0  0  0  0  0  0999 V2000
    3.8956    4.1402   17.9552 C   0  0  0  0  0  0  0  0  0  0  0  0
    4.0441    5.4061   18.6727 N   0  0  0  0  0  0  0  0  0  0  0  0
    5.3241    5.9845   18.8574 C   0  0  0  0  0  0  0  0  0  0  0  0
    6.3488    5.4025   18.3973 O   0  0  0  0  0  0  0  0  0  0  0  0
    3.1509    5.8181   19.0260 H   0  0  0  0  0  0  0  0  0  0  0  0
    5.5618    7.2702   19.5833 C   0  0  0  0  0  0  0  0  0  0  0  0
    4.6191    8.2460   19.0028 N   0  0  0  0  0  0  0  0  0  0  0  0
    5.0245    9.3472   18.2229 C   0  0  0  0  0  0  0  0  0  0  0  0
    6.2855    9.4606   18.0364 O   0  0  0  0  0  0  0  0  0  0  0  0
    3.6206    8.0936   19.1891 H   0  0  0  0  0  0  0  0  0  0  0  0
    4.0875   10.3239   17.6433 C   0  0  0  0  0  0  0  0  0  0  0  0
    3.2410   11.0044   18.6933 C   0  0  0  0  0  0  0  0  0  0  0  0
    2.0139   11.6659   18.1627 C   0  0  0  0  0  0  0  0  0  0  0  0
    4.1041   12.0565   19.3614 C   0  0  0  0  0  0  0  0  0  0  0  0
    5.1987    7.1734   21.0388 C   0  0  0  0  0  0  0  0  0  0  0  0
    5.1349    5.8073   21.5870 C   0  0  0  0  0  0  0  0  0  0  0  0
    6.2344    4.9390   21.5290 C   0  0  0  0  0  0  0  0  0  0  0  0
    6.2151    3.6624   22.0052 C   0  0  0  0  0  0  0  0  0  0  0  0
    5.0728    3.1704   22.5782 C   0  0  0  0  0  0  0  0  0  0  0  0
    3.9629    3.9819   22.6608 C   0  0  0  0  0  0  0  0  0  0  0  0
    4.0028    5.2902   22.1658 C   0  0  0  0  0  0  0  0  0  0  0  0
    6.0094    8.0396   21.9020 C   0  0  0  0  0  0  0  0  0  0  0  0
    6.9626    7.5626   22.7810 C   0  0  0  0  0  0  0  0  0  0  0  0
    7.6920    8.4263   23.5712 C   0  0  0  0  0  0  0  0  0  0  0  0
    7.5041    9.7952   23.5197 C   0  0  0  0  0  0  0  0  0  0  0  0
    6.5531   10.2718   22.6425 C   0  0  0  0  0  0  0  0  0  0  0  0
    5.8295    9.3961   21.8567 C   0  0  0  0  0  0  0  0  0  0  0  0
    2.8677    4.3387   16.8712 C   0  0  0  0  0  0  0  0  0  0  0  0
    1.9455    5.3279   17.2932 O   0  0  0  0  0  0  0  0  0  0  0  0
    2.4987    6.0966   17.6389 H   0  0  0  0  0  0  0  0  0  0  0  0
    3.4164    4.7000   15.5335 C   0  0  0  0  0  0  0  0  0  0  0  0
    1.4373    5.8675   14.4279 N   0  0  0  0  0  0  0  0  0  0  0  0
    2.3331    4.7989   14.5353 C   0  0  0  0  0  0  0  0  0  0  0  0
    2.1989    3.8451   13.7100 O   0  0  0  0  0  0  0  0  0  0  0  0
    1.5390    6.6686   15.1150 H   0  0  0  0  0  0  0  0  0  0  0  0
    0.3817    5.9858   13.4692 C   0  0  0  0  0  0  0  0  0  0  0  0
   -0.8035    6.7625   14.0266 C   0  0  0  0  0  0  0  0  0  0  0  0
    1.8049    6.1227   11.3511 N   0  0  0  0  0  0  0  0  0  0  0  0
    0.8933    6.7152   12.2832 C   0  0  0  0  0  0  0  0  0  0  0  0
    0.5323    7.9065   12.0522 O   0  0  0  0  0  0  0  0  0  0  0  0
    2.0837    5.1483   11.5480 H   0  0  0  0  0  0  0  0  0  0  0  0
    2.2884    6.8361   10.2020 C   0  0  0  0  0  0  0  0  0  0  0  0
    1.3254    6.7499    9.0595 C   0  0  0  0  0  0  0  0  0  0  0  0
    0.7533    5.5067    8.7278 N   0  0  0  0  0  0  0  0  0  0  0  0
    1.0166    7.7627    8.3899 O   0  0  0  0  0  0  0  0  0  0  0  0
   -0.2694    5.3112    8.7121 H   0  0  0  0  0  0  0  0  0  0  0  0
    1.4036    4.7160    8.4777 H   0  0  0  0  0  0  0  0  0  0  0  0
    3.6822    6.5396    9.7903 C   0  0  0  0  0  0  0  0  0  0  0  0
    5.9350    7.2413   10.3220 C   0  0  0  0  0  0  0  0  0  0  0  0
    4.6213    7.6823    9.6441 C   0  0  0  0  0  0  0  0  0  0  0  0
    4.9982    8.0418    8.2405 C   0  0  0  0  0  0  0  0  0  0  0  0
    3.5552    3.0180   18.8787 C   0  0  0  0  0  0  0  0  0  0  0  0
    4.3716    1.7648   18.6804 C   0  0  0  0  0  0  0  0  0  0  0  0
    4.0269    0.9817   17.4596 C   0  0  0  0  0  0  0  0  0  0  0  0
    4.1084    0.9048   19.9262 C   0  0  0  0  0  0  0  0  0  0  0  0
 49 50  1  0  0  0
 50 51  1  0  0  0
 50 48  1  0  0  0
 48 42  1  0  0  0
 42 38  1  0  0  0
 38 39  1  0  0  0
 39 40  2  0  0  0
 39 36  1  0  0  0
 36 37  1  0  0  0
 36 32  1  0  0  0
 32 33  1  0  0  0
 33 34  2  0  0  0
 33 31  1  0  0  0
 31 28  1  0  0  0
 28 29  1  0  0  0
 28  1  1  0  0  0
  1 52  1  0  0  0
 52 53  1  0  0  0
 53 54  1  0  0  0
 53 55  1  0  0  0
  1  2  1  0  0  0
  2  3  1  0  0  0
  3  4  2  0  0  0
  3  6  1  0  0  0
  6  7  1  0  0  0
  7  8  1  0  0  0
  8  9  2  0  0  0
  8 11  1  0  0  0
 11 12  1  0  0  0
 12 13  1  0  0  0
 12 14  1  0  0  0
  6 15  1  0  0  0
 15 22  1  0  0  0
 22 23  2  0  0  0
 23 24  1  0  0  0
 24 25  2  0  0  0
 25 26  1  0  0  0
 26 27  2  0  0  0
 15 16  1  0  0  0
 16 17  2  0  0  0
 17 18  1  0  0  0
 18 19  2  0  0  0
 19 20  1  0  0  0
 20 21  2  0  0  0
 42 43  1  0  0  0
 43 44  1  0  0  0
 43 45  2  0  0  0
 27 22  1  0  0  0
 21 16  1  0  0  0
 38 41  1  0  0  0
 32 35  1  0  0  0
 29 30  1  0  0  0
  2  5  1  0  0  0
  7 10  1  0  0  0
 44 46  1  0  0  0
 44 47  1  0  0  0
M  END
> <minimizedAffinity>
-7.66995

> <CNNscore>
0.1852003634

> <CNNaffinity>
6.4847426414

> <CNN_VS>
1.2009767294

> <CNNaffinity_variance>
0.6759573817

$$$$
[H]O[C@@]([H])(C([H])([H])C(=O)N([H])[C@]([H])(C(=O)N([H])[C@]([H])(C(=O)N([H])[H])C([H])([H])C([H])(C([H])([H])[H])C([H])([H])[H])C([H])([H])[H])[C@@]([H])(N([H])C(=O)[C@@]([H])(N([H])C(=O)C([H])([H])C([H])(C([H])([H])[H])C([H])([H])[H])C([H])(c1c([H])c([H])c([H])c([H])c1[H])c1c([H])c([H])c([H])c([H])c1[H])C([H])([H])C([H])(C([H])([H])[H])C([H])([H])[H]


 55 56  0  0  0  0  0  0  0  0999 V2000
    3.8320    6.8385   15.1242 C   0  0  0  0  0  0  0  0  0  0  0  0
    3.5435    7.2841   16.4871 N   0  0  0  0  0  0  0  0  0  0  0  0
    4.5766    7.3652   17.4532 C   0  0  0  0  0  0  0  0  0  0  0  0
    5.7600    7.0505   17.1354 O   0  0  0  0  0  0  0  0  0  0  0  0
    2.5415    7.5188   16.6697 H   0  0  0  0  0  0  0  0  0  0  0  0
    4.3642    7.8042   18.8669 C   0  0  0  0  0  0  0  0  0  0  0  0
    5.0137    6.7838   19.7124 N   0  0  0  0  0  0  0  0  0  0  0  0
    4.3369    5.6642   20.2355 C   0  0  0  0  0  0  0  0  0  0  0  0
    3.0974    5.5730   19.9305 O   0  0  0  0  0  0  0  0  0  0  0  0
    6.0116    6.9169   19.9158 H   0  0  0  0  0  0  0  0  0  0  0  0
    4.9806    4.6449   21.0806 C   0  0  0  0  0  0  0  0  0  0  0  0
    4.3519    3.2808   20.9188 C   0  0  0  0  0  0  0  0  0  0  0  0
    4.5540    2.3668   22.0803 C   0  0  0  0  0  0  0  0  0  0  0  0
    4.9661    2.6400   19.6899 C   0  0  0  0  0  0  0  0  0  0  0  0
    5.0743    9.0937   19.1713 C   0  0  0  0  0  0  0  0  0  0  0  0
    4.2506   10.3109   19.0684 C   0  0  0  0  0  0  0  0  0  0  0  0
    2.9572   10.2807   18.5277 C   0  0  0  0  0  0  0  0  0  0  0  0
    2.1675   11.3833   18.3954 C   0  0  0  0  0  0  0  0  0  0  0  0
    2.6345   12.6039   18.8041 C   0  0  0  0  0  0  0  0  0  0  0  0
    3.8992   12.6900   19.3429 C   0  0  0  0  0  0  0  0  0  0  0  0
    4.6949   11.5460   19.4704 C   0  0  0  0  0  0  0  0  0  0  0  0
    5.8072    9.0712   20.4423 C   0  0  0  0  0  0  0  0  0  0  0  0
    7.1828    8.9773   20.5272 C   0  0  0  0  0  0  0  0  0  0  0  0
    7.8165    8.9563   21.7522 C   0  0  0  0  0  0  0  0  0  0  0  0
    7.1104    9.0277   22.9388 C   0  0  0  0  0  0  0  0  0  0  0  0
    5.7374    9.1217   22.8546 C   0  0  0  0  0  0  0  0  0  0  0  0
    5.1152    9.1417   21.6215 C   0  0  0  0  0  0  0  0  0  0  0  0
    3.5096    7.9734   14.1866 C   0  0  0  0  0  0  0  0  0  0  0  0
    2.2483    8.5126   14.5403 O   0  0  0  0  0  0  0  0  0  0  0  0
    2.2721    8.6478   15.5391 H   0  0  0  0  0  0  0  0  0  0  0  0
    4.5257    9.0624   14.1339 C   0  0  0  0  0  0  0  0  0  0  0  0
    5.1614    8.1319   11.8466 N   0  0  0  0  0  0  0  0  0  0  0  0
    5.4579    8.8513   13.0087 C   0  0  0  0  0  0  0  0  0  0  0  0
    6.6174    9.3578   13.0968 O   0  0  0  0  0  0  0  0  0  0  0  0
    4.1958    7.7020   11.7643 H   0  0  0  0  0  0  0  0  0  0  0  0
    6.0470    7.9154   10.7437 C   0  0  0  0  0  0  0  0  0  0  0  0
    6.8780    6.6524   10.9257 C   0  0  0  0  0  0  0  0  0  0  0  0
    3.8603    8.1344    9.4394 N   0  0  0  0  0  0  0  0  0  0  0  0
    5.2416    7.7623    9.5075 C   0  0  0  0  0  0  0  0  0  0  0  0
    5.7598    7.2906    8.4531 O   0  0  0  0  0  0  0  0  0  0  0  0
    3.4538    8.5251   10.3043 H   0  0  0  0  0  0  0  0  0  0  0  0
    3.0919    7.9882    8.2347 C   0  0  0  0  0  0  0  0  0  0  0  0
    2.8038    9.3152    7.6053 C   0  0  0  0  0  0  0  0  0  0  0  0
    1.8046   10.1410    8.1555 N   0  0  0  0  0  0  0  0  0  0  0  0
    3.4342    9.7083    6.5965 O   0  0  0  0  0  0  0  0  0  0  0  0
    1.9629   11.1092    8.5045 H   0  0  0  0  0  0  0  0  0  0  0  0
    0.8265    9.7543    8.2206 H   0  0  0  0  0  0  0  0  0  0  0  0
    1.8828    7.1347    8.3331 C   0  0  0  0  0  0  0  0  0  0  0  0
    2.4109    5.8020    6.3850 C   0  0  0  0  0  0  0  0  0  0  0  0
    1.2942    6.6159    7.0707 C   0  0  0  0  0  0  0  0  0  0  0  0
    0.1475    5.6662    7.2272 C   0  0  0  0  0  0  0  0  0  0  0  0
    3.1003    5.5820   14.7869 C   0  0  0  0  0  0  0  0  0  0  0  0
    3.9803    4.4274   14.3760 C   0  0  0  0  0  0  0  0  0  0  0  0
    3.9709    4.1238   12.9166 C   0  0  0  0  0  0  0  0  0  0  0  0
    3.4476    3.2121   15.1508 C   0  0  0  0  0  0  0  0  0  0  0  0
 49 50  1  0  0  0
 50 51  1  0  0  0
 50 48  1  0  0  0
 48 42  1  0  0  0
 42 38  1  0  0  0
 38 39  1  0  0  0
 39 40  2  0  0  0
 39 36  1  0  0  0
 36 37  1  0  0  0
 36 32  1  0  0  0
 32 33  1  0  0  0
 33 34  2  0  0  0
 33 31  1  0  0  0
 31 28  1  0  0  0
 28 29  1  0  0  0
 28  1  1  0  0  0
  1 52  1  0  0  0
 52 53  1  0  0  0
 53 54  1  0  0  0
 53 55  1  0  0  0
  1  2  1  0  0  0
  2  3  1  0  0  0
  3  4  2  0  0  0
  3  6  1  0  0  0
  6  7  1  0  0  0
  7  8  1  0  0  0
  8  9  2  0  0  0
  8 11  1  0  0  0
 11 12  1  0  0  0
 12 13  1  0  0  0
 12 14  1  0  0  0
  6 15  1  0  0  0
 15 22  1  0  0  0
 22 23  2  0  0  0
 23 24  1  0  0  0
 24 25  2  0  0  0
 25 26  1  0  0  0
 26 27  2  0  0  0
 15 16  1  0  0  0
 16 17  2  0  0  0
 17 18  1  0  0  0
 18 19  2  0  0  0
 19 20  1  0  0  0
 20 21  2  0  0  0
 42 43  1  0  0  0
 43 44  1  0  0  0
 43 45  2  0  0  0
 27 22  1  0  0  0
 21 16  1  0  0  0
 38 41  1  0  0  0
 32 35  1  0  0  0
 29 30  1  0  0  0
  2  5  1  0  0  0
  7 10  1  0  0  0
 44 46  1  0  0  0
 44 47  1  0  0  0
M  END
> <minimizedAffinity>
-7.98475

> <CNNscore>
0.1841208339

> <CNNaffinity>
6.1178154945

> <CNN_VS>
1.1264172792

> <CNNaffinity_variance>
0.9158943295

$$$$
[H]O[C@@]([H])(C([H])([H])C(=O)N([H])[C@]([H])(C(=O)N([H])[C@]([H])(C(=O)N([H])[H])C([H])([H])C([H])(C([H])([H])[H])C([H])([H])[H])C([H])([H])[H])[C@@]([H])(N([H])C(=O)[C@@]([H])(N([H])C(=O)C([H])([H])C([H])(C([H])([H])[H])C([H])([H])[H])C([H])(c1c([H])c([H])c([H])c([H])c1[H])c1c([H])c([H])c([H])c([H])c1[H])C([H])([H])C([H])(C([H])([H])[H])C([H])([H])[H]


 55 56  0  0  0  0  0  0  0  0999 V2000
    3.2925    4.1342   16.7121 C   0  0  0  0  0  0  0  0  0  0  0  0
    3.4316    4.8334   17.9892 N   0  0  0  0  0  0  0  0  0  0  0  0
    4.7140    5.1048   18.5269 C   0  0  0  0  0  0  0  0  0  0  0  0
    5.7491    4.7406   17.8973 O   0  0  0  0  0  0  0  0  0  0  0  0
    2.5293    5.0940   18.4479 H   0  0  0  0  0  0  0  0  0  0  0  0
    4.9418    5.8079   19.8270 C   0  0  0  0  0  0  0  0  0  0  0  0
    5.5821    4.8204   20.7174 N   0  0  0  0  0  0  0  0  0  0  0  0
    4.9934    3.5867   21.0586 C   0  0  0  0  0  0  0  0  0  0  0  0
    3.8451    3.3582   20.5419 O   0  0  0  0  0  0  0  0  0  0  0  0
    6.5051    5.0664   21.0949 H   0  0  0  0  0  0  0  0  0  0  0  0
    5.6280    2.5995   21.9478 C   0  0  0  0  0  0  0  0  0  0  0  0
    5.5313    2.9890   23.4042 C   0  0  0  0  0  0  0  0  0  0  0  0
    5.7058    1.8559   24.3585 C   0  0  0  0  0  0  0  0  0  0  0  0
    4.1590    3.5950   23.6226 C   0  0  0  0  0  0  0  0  0  0  0  0
    5.9286    6.9341   19.6955 C   0  0  0  0  0  0  0  0  0  0  0  0
    5.3543    8.2415   19.3326 C   0  0  0  0  0  0  0  0  0  0  0  0
    3.9686    8.4541   19.3041 C   0  0  0  0  0  0  0  0  0  0  0  0
    3.3930    9.6393   18.9563 C   0  0  0  0  0  0  0  0  0  0  0  0
    4.1851   10.7013   18.6103 C   0  0  0  0  0  0  0  0  0  0  0  0
    5.5537   10.5466   18.6218 C   0  0  0  0  0  0  0  0  0  0  0  0
    6.1257    9.3213   18.9818 C   0  0  0  0  0  0  0  0  0  0  0  0
    6.8230    7.0651   20.8513 C   0  0  0  0  0  0  0  0  0  0  0  0
    8.1824    6.8255   20.7941 C   0  0  0  0  0  0  0  0  0  0  0  0
    8.9728    6.9612   21.9163 C   0  0  0  0  0  0  0  0  0  0  0  0
    8.4455    7.3395   23.1372 C   0  0  0  0  0  0  0  0  0  0  0  0
    7.0889    7.5789   23.1948 C   0  0  0  0  0  0  0  0  0  0  0  0
    6.3085    7.4395   22.0636 C   0  0  0  0  0  0  0  0  0  0  0  0
    2.9022    5.1480   15.6678 C   0  0  0  0  0  0  0  0  0  0  0  0
    2.9223    6.4374   16.2543 O   0  0  0  0  0  0  0  0  0  0  0  0
    3.7975    6.5053   16.7503 H   0  0  0  0  0  0  0  0  0  0  0  0
    3.7377    5.1433   14.4337 C   0  0  0  0  0  0  0  0  0  0  0  0
    2.9555    6.0533   12.1837 N   0  0  0  0  0  0  0  0  0  0  0  0
    2.8860    5.1254   13.2279 C   0  0  0  0  0  0  0  0  0  0  0  0
    2.0233    4.2013   13.1254 O   0  0  0  0  0  0  0  0  0  0  0  0
    3.6713    6.8315   12.2610 H   0  0  0  0  0  0  0  0  0  0  0  0
    2.1425    6.0554   11.0062 C   0  0  0  0  0  0  0  0  0  0  0  0
    2.0119    4.6616   10.4071 C   0  0  0  0  0  0  0  0  0  0  0  0
   -0.1652    5.7036   12.0462 N   0  0  0  0  0  0  0  0  0  0  0  0
    0.7841    6.5315   11.3647 C   0  0  0  0  0  0  0  0  0  0  0  0
    0.4145    7.7073   11.0756 O   0  0  0  0  0  0  0  0  0  0  0  0
    0.1533    4.7504   12.2827 H   0  0  0  0  0  0  0  0  0  0  0  0
   -1.4756    6.1775   12.3947 C   0  0  0  0  0  0  0  0  0  0  0  0
   -1.5404    6.6022   13.8284 C   0  0  0  0  0  0  0  0  0  0  0  0
   -2.7769    6.9860   14.3822 N   0  0  0  0  0  0  0  0  0  0  0  0
   -0.5154    6.6238   14.5484 O   0  0  0  0  0  0  0  0  0  0  0  0
   -3.2219    6.5330   15.2074 H   0  0  0  0  0  0  0  0  0  0  0  0
   -3.2910    7.7880   13.9315 H   0  0  0  0  0  0  0  0  0  0  0  0
   -2.6084    5.2992   12.0134 C   0  0  0  0  0  0  0  0  0  0  0  0
   -3.7574    4.8720    9.9283 C   0  0  0  0  0  0  0  0  0  0  0  0
   -3.6472    5.8584   11.1093 C   0  0  0  0  0  0  0  0  0  0  0  0
   -5.0278    5.9521   11.6806 C   0  0  0  0  0  0  0  0  0  0  0  0
    2.3290    2.9980   16.8061 C   0  0  0  0  0  0  0  0  0  0  0  0
    2.9420    1.6312   16.6256 C   0  0  0  0  0  0  0  0  0  0  0  0
    4.2660    1.4486   17.2860 C   0  0  0  0  0  0  0  0  0  0  0  0
    3.1030    1.4532   15.1079 C   0  0  0  0  0  0  0  0  0  0  0  0
 49 50  1  0  0  0
 50 51  1  0  0  0
 50 48  1  0  0  0
 48 42  1  0  0  0
 42 38  1  0  0  0
 38 39  1  0  0  0
 39 40  2  0  0  0
 39 36  1  0  0  0
 36 37  1  0  0  0
 36 32  1  0  0  0
 32 33  1  0  0  0
 33 34  2  0  0  0
 33 31  1  0  0  0
 31 28  1  0  0  0
 28 29  1  0  0  0
 28  1  1  0  0  0
  1 52  1  0  0  0
 52 53  1  0  0  0
 53 54  1  0  0  0
 53 55  1  0  0  0
  1  2  1  0  0  0
  2  3  1  0  0  0
  3  4  2  0  0  0
  3  6  1  0  0  0
  6  7  1  0  0  0
  7  8  1  0  0  0
  8  9  2  0  0  0
  8 11  1  0  0  0
 11 12  1  0  0  0
 12 13  1  0  0  0
 12 14  1  0  0  0
  6 15  1  0  0  0
 15 22  1  0  0  0
 22 23  2  0  0  0
 23 24  1  0  0  0
 24 25  2  0  0  0
 25 26  1  0  0  0
 26 27  2  0  0  0
 15 16  1  0  0  0
 16 17  2  0  0  0
 17 18  1  0  0  0
 18 19  2  0  0  0
 19 20  1  0  0  0
 20 21  2  0  0  0
 42 43  1  0  0  0
 43 44  1  0  0  0
 43 45  2  0  0  0
 27 22  1  0  0  0
 21 16  1  0  0  0
 38 41  1  0  0  0
 32 35  1  0  0  0
 29 30  1  0  0  0
  2  5  1  0  0  0
  7 10  1  0  0  0
 44 46  1  0  0  0
 44 47  1  0  0  0
M  END
> <minimizedAffinity>
-8.27670

> <CNNscore>
0.1828035265

> <CNNaffinity>
6.6817703247

> <CNN_VS>
1.2214511633

> <CNNaffinity_variance>
0.5701080561

$$$$
[H]O[C@@]([H])(C([H])([H])C(=O)N([H])[C@]([H])(C(=O)N([H])[C@]([H])(C(=O)N([H])[H])C([H])([H])C([H])(C([H])([H])[H])C([H])([H])[H])C([H])([H])[H])[C@@]([H])(N([H])C(=O)[C@@]([H])(N([H])C(=O)C([H])([H])C([H])(C([H])([H])[H])C([H])([H])[H])C([H])(c1c([H])c([H])c([H])c([H])c1[H])c1c([H])c([H])c([H])c([H])c1[H])C([H])([H])C([H])(C([H])([H])[H])C([H])([H])[H]


 55 56  0  0  0  0  0  0  0  0999 V2000
    3.7141    5.7359   15.7949 C   0  0  0  0  0  0  0  0  0  0  0  0
    3.3121    6.5191   16.9630 N   0  0  0  0  0  0  0  0  0  0  0  0
    4.2860    7.0627   17.8367 C   0  0  0  0  0  0  0  0  0  0  0  0
    5.5149    6.8707   17.6051 O   0  0  0  0  0  0  0  0  0  0  0  0
    2.2798    6.6257   17.0864 H   0  0  0  0  0  0  0  0  0  0  0  0
    3.9586    7.8680   19.0535 C   0  0  0  0  0  0  0  0  0  0  0  0
    4.3347    7.0310   20.2093 N   0  0  0  0  0  0  0  0  0  0  0  0
    3.8286    5.7340   20.4255 C   0  0  0  0  0  0  0  0  0  0  0  0
    3.0057    5.3056   19.5440 O   0  0  0  0  0  0  0  0  0  0  0  0
    5.0023    7.4353   20.8769 H   0  0  0  0  0  0  0  0  0  0  0  0
    4.1999    4.8963   21.5780 C   0  0  0  0  0  0  0  0  0  0  0  0
    5.5924    4.3245   21.4506 C   0  0  0  0  0  0  0  0  0  0  0  0
    5.7738    2.9926   22.0971 C   0  0  0  0  0  0  0  0  0  0  0  0
    6.5484    5.3074   22.0972 C   0  0  0  0  0  0  0  0  0  0  0  0
    4.8055    9.1056   19.1574 C   0  0  0  0  0  0  0  0  0  0  0  0
    4.0739   10.3825   19.0873 C   0  0  0  0  0  0  0  0  0  0  0  0
    2.7843   10.4628   18.5426 C   0  0  0  0  0  0  0  0  0  0  0  0
    2.0783   11.6238   18.4398 C   0  0  0  0  0  0  0  0  0  0  0  0
    2.6318   12.7946   18.8847 C   0  0  0  0  0  0  0  0  0  0  0  0
    3.8968   12.7721   19.4291 C   0  0  0  0  0  0  0  0  0  0  0  0
    4.6057   11.5696   19.5257 C   0  0  0  0  0  0  0  0  0  0  0  0
    5.7175    9.0945   20.3067 C   0  0  0  0  0  0  0  0  0  0  0  0
    7.0749    8.8603   20.2004 C   0  0  0  0  0  0  0  0  0  0  0  0
    7.8825    8.8582   21.3185 C   0  0  0  0  0  0  0  0  0  0  0  0
    7.3750    9.0883   22.5839 C   0  0  0  0  0  0  0  0  0  0  0  0
    6.0204    9.3224   22.6906 C   0  0  0  0  0  0  0  0  0  0  0  0
    5.2228    9.3217   21.5630 C   0  0  0  0  0  0  0  0  0  0  0  0
    3.7147    6.6528   14.5990 C   0  0  0  0  0  0  0  0  0  0  0  0
    4.1803    5.9317   13.4720 O   0  0  0  0  0  0  0  0  0  0  0  0
    3.6702    5.0621   13.4662 H   0  0  0  0  0  0  0  0  0  0  0  0
    2.4035    7.2874   14.2840 C   0  0  0  0  0  0  0  0  0  0  0  0
    1.1483    5.8113   12.6265 N   0  0  0  0  0  0  0  0  0  0  0  0
    1.9556    6.9128   12.9281 C   0  0  0  0  0  0  0  0  0  0  0  0
    2.3284    7.6407   11.9586 O   0  0  0  0  0  0  0  0  0  0  0  0
    0.8337    5.1946   13.4294 H   0  0  0  0  0  0  0  0  0  0  0  0
    0.7011    5.4296   11.3219 C   0  0  0  0  0  0  0  0  0  0  0  0
    1.4934    4.2495   10.7757 C   0  0  0  0  0  0  0  0  0  0  0  0
   -1.5728    4.9646   10.2523 N   0  0  0  0  0  0  0  0  0  0  0  0
   -0.7246    5.0281   11.4044 C   0  0  0  0  0  0  0  0  0  0  0  0
   -1.2460    4.7216   12.5166 O   0  0  0  0  0  0  0  0  0  0  0  0
   -1.1315    5.2093    9.3515 H   0  0  0  0  0  0  0  0  0  0  0  0
   -2.9502    4.5678   10.3430 C   0  0  0  0  0  0  0  0  0  0  0  0
   -3.2561    3.4367    9.4117 C   0  0  0  0  0  0  0  0  0  0  0  0
   -2.8182    3.5021    8.0749 N   0  0  0  0  0  0  0  0  0  0  0  0
   -3.8951    2.4303    9.7967 O   0  0  0  0  0  0  0  0  0  0  0  0
   -2.1921    2.8039    7.6224 H   0  0  0  0  0  0  0  0  0  0  0  0
   -3.1453    4.3142    7.4884 H   0  0  0  0  0  0  0  0  0  0  0  0
   -3.9499    5.6599   10.2536 C   0  0  0  0  0  0  0  0  0  0  0  0
   -4.3715    6.4137   12.5128 C   0  0  0  0  0  0  0  0  0  0  0  0
   -5.0104    5.7176   11.2933 C   0  0  0  0  0  0  0  0  0  0  0  0
   -6.2151    6.5382   10.9519 C   0  0  0  0  0  0  0  0  0  0  0  0
    2.8440    4.5377   15.6067 C   0  0  0  0  0  0  0  0  0  0  0  0
    3.3740    3.2669   16.2236 C   0  0  0  0  0  0  0  0  0  0  0  0
    4.7639    3.3629   16.7540 C   0  0  0  0  0  0  0  0  0  0  0  0
    3.3305    2.2191   15.1006 C   0  0  0  0  0  0  0  0  0  0  0  0
 49 50  1  0  0  0
 50 51  1  0  0  0
 50 48  1  0  0  0
 48 42  1  0  0  0
 42 38  1  0  0  0
 38 39  1  0  0  0
 39 40  2  0  0  0
 39 36  1  0  0  0
 36 37  1  0  0  0
 36 32  1  0  0  0
 32 33  1  0  0  0
 33 34  2  0  0  0
 33 31  1  0  0  0
 31 28  1  0  0  0
 28 29  1  0  0  0
 28  1  1  0  0  0
  1 52  1  0  0  0
 52 53  1  0  0  0
 53 54  1  0  0  0
 53 55  1  0  0  0
  1  2  1  0  0  0
  2  3  1  0  0  0
  3  4  2  0  0  0
  3  6  1  0  0  0
  6  7  1  0  0  0
  7  8  1  0  0  0
  8  9  2  0  0  0
  8 11  1  0  0  0
 11 12  1  0  0  0
 12 13  1  0  0  0
 12 14  1  0  0  0
  6 15  1  0  0  0
 15 22  1  0  0  0
 22 23  2  0  0  0
 23 24  1  0  0  0
 24 25  2  0  0  0
 25 26  1  0  0  0
 26 27  2  0  0  0
 15 16  1  0  0  0
 16 17  2  0  0  0
 17 18  1  0  0  0
 18 19  2  0  0  0
 19 20  1  0  0  0
 20 21  2  0  0  0
 42 43  1  0  0  0
 43 44  1  0  0  0
 43 45  2  0  0  0
 27 22  1  0  0  0
 21 16  1  0  0  0
 38 41  1  0  0  0
 32 35  1  0  0  0
 29 30  1  0  0  0
  2  5  1  0  0  0
  7 10  1  0  0  0
 44 46  1  0  0  0
 44 47  1  0  0  0
M  END
> <minimizedAffinity>
-8.43063

> <CNNscore>
0.1617450714

> <CNNaffinity>
6.3362474442

> <CNN_VS>
1.0248568058

> <CNNaffinity_variance>
0.4998402596

$$$$
[H]O[C@@]([H])(C([H])([H])C(=O)N([H])[C@]([H])(C(=O)N([H])[C@]([H])(C(=O)N([H])[H])C([H])([H])C([H])(C([H])([H])[H])C([H])([H])[H])C([H])([H])[H])[C@@]([H])(N([H])C(=O)[C@@]([H])(N([H])C(=O)C([H])([H])C([H])(C([H])([H])[H])C([H])([H])[H])C([H])(c1c([H])c([H])c([H])c([H])c1[H])c1c([H])c([H])c([H])c([H])c1[H])C([H])([H])C([H])(C([H])([H])[H])C([H])([H])[H]


 55 56  0  0  0  0  0  0  0  0999 V2000
    4.6985    4.9471   21.9001 C   0  0  0  0  0  0  0  0  0  0  0  0
    4.9511    6.3505   22.2255 N   0  0  0  0  0  0  0  0  0  0  0  0
    6.2723    6.8621   22.2353 C   0  0  0  0  0  0  0  0  0  0  0  0
    7.2432    6.0995   21.9593 O   0  0  0  0  0  0  0  0  0  0  0  0
    4.0971    6.9106   22.4476 H   0  0  0  0  0  0  0  0  0  0  0  0
    6.6154    8.2803   22.5629 C   0  0  0  0  0  0  0  0  0  0  0  0
    7.7398    8.2176   23.5166 N   0  0  0  0  0  0  0  0  0  0  0  0
    7.6731    8.7252   24.8292 C   0  0  0  0  0  0  0  0  0  0  0  0
    6.5573    9.2558   25.1627 O   0  0  0  0  0  0  0  0  0  0  0  0
    8.6053    7.7755   23.1846 H   0  0  0  0  0  0  0  0  0  0  0  0
    8.7930    8.6661   25.7833 C   0  0  0  0  0  0  0  0  0  0  0  0
    9.9909    9.4593   25.3163 C   0  0  0  0  0  0  0  0  0  0  0  0
   11.2557    9.1529   26.0452 C   0  0  0  0  0  0  0  0  0  0  0  0
    9.6675   10.9277   25.5101 C   0  0  0  0  0  0  0  0  0  0  0  0
    7.1397    9.0258   21.3675 C   0  0  0  0  0  0  0  0  0  0  0  0
    6.1966    9.1672   20.2444 C   0  0  0  0  0  0  0  0  0  0  0  0
    4.8277    9.3852   20.4560 C   0  0  0  0  0  0  0  0  0  0  0  0
    3.9168    9.5028   19.4493 C   0  0  0  0  0  0  0  0  0  0  0  0
    4.3301    9.4073   18.1474 C   0  0  0  0  0  0  0  0  0  0  0  0
    5.6648    9.1934   17.8832 C   0  0  0  0  0  0  0  0  0  0  0  0
    6.5848    9.0753   18.9310 C   0  0  0  0  0  0  0  0  0  0  0  0
    7.7405   10.3214   21.7044 C   0  0  0  0  0  0  0  0  0  0  0  0
    9.0717   10.6228   21.4906 C   0  0  0  0  0  0  0  0  0  0  0  0
    9.5813   11.8582   21.8320 C   0  0  0  0  0  0  0  0  0  0  0  0
    8.7906   12.8411   22.3981 C   0  0  0  0  0  0  0  0  0  0  0  0
    7.4619   12.5409   22.6114 C   0  0  0  0  0  0  0  0  0  0  0  0
    6.9641   11.2999   22.2649 C   0  0  0  0  0  0  0  0  0  0  0  0
    4.0825    4.8927   20.5259 C   0  0  0  0  0  0  0  0  0  0  0  0
    3.0481    5.8578   20.4516 O   0  0  0  0  0  0  0  0  0  0  0  0
    3.4363    6.7126   20.8191 H   0  0  0  0  0  0  0  0  0  0  0  0
    5.0336    5.0861   19.3949 C   0  0  0  0  0  0  0  0  0  0  0  0
    3.8906    4.6159   17.1646 N   0  0  0  0  0  0  0  0  0  0  0  0
    4.6712    4.2201   18.2555 C   0  0  0  0  0  0  0  0  0  0  0  0
    5.0964    3.0252   18.2606 O   0  0  0  0  0  0  0  0  0  0  0  0
    3.5276    5.6119   17.1521 H   0  0  0  0  0  0  0  0  0  0  0  0
    3.5278    3.7958   16.0496 C   0  0  0  0  0  0  0  0  0  0  0  0
    2.4089    2.8250   16.4023 C   0  0  0  0  0  0  0  0  0  0  0  0
    2.1514    5.7620   15.1720 N   0  0  0  0  0  0  0  0  0  0  0  0
    3.0498    4.6691   14.9499 C   0  0  0  0  0  0  0  0  0  0  0  0
    3.4294    4.4734   13.7581 O   0  0  0  0  0  0  0  0  0  0  0  0
    1.8572    5.9143   16.1498 H   0  0  0  0  0  0  0  0  0  0  0  0
    1.7005    6.6056   14.1005 C   0  0  0  0  0  0  0  0  0  0  0  0
    2.5587    7.8244   13.9657 C   0  0  0  0  0  0  0  0  0  0  0  0
    3.9099    7.6830   13.5951 N   0  0  0  0  0  0  0  0  0  0  0  0
    2.0997    8.9710   14.1762 O   0  0  0  0  0  0  0  0  0  0  0  0
    4.3425    8.1222   12.7559 H   0  0  0  0  0  0  0  0  0  0  0  0
    4.5296    7.0910   14.2083 H   0  0  0  0  0  0  0  0  0  0  0  0
    0.2531    6.9294   14.0915 C   0  0  0  0  0  0  0  0  0  0  0  0
   -2.0303    6.7962   13.3051 C   0  0  0  0  0  0  0  0  0  0  0  0
   -0.5946    6.2931   13.0495 C   0  0  0  0  0  0  0  0  0  0  0  0
   -0.2850    6.6727   11.6348 C   0  0  0  0  0  0  0  0  0  0  0  0
    3.8585    4.2813   22.9390 C   0  0  0  0  0  0  0  0  0  0  0  0
    4.3884    2.9561   23.4282 C   0  0  0  0  0  0  0  0  0  0  0  0
    5.8359    2.7242   23.1577 C   0  0  0  0  0  0  0  0  0  0  0  0
    3.5583    1.8896   22.6970 C   0  0  0  0  0  0  0  0  0  0  0  0
 49 50  1  0  0  0
 50 51  1  0  0  0
 50 48  1  0  0  0
 48 42  1  0  0  0
 42 38  1  0  0  0
 38 39  1  0  0  0
 39 40  2  0  0  0
 39 36  1  0  0  0
 36 37  1  0  0  0
 36 32  1  0  0  0
 32 33  1  0  0  0
 33 34  2  0  0  0
 33 31  1  0  0  0
 31 28  1  0  0  0
 28 29  1  0  0  0
 28  1  1  0  0  0
  1 52  1  0  0  0
 52 53  1  0  0  0
 53 54  1  0  0  0
 53 55  1  0  0  0
  1  2  1  0  0  0
  2  3  1  0  0  0
  3  4  2  0  0  0
  3  6  1  0  0  0
  6  7  1  0  0  0
  7  8  1  0  0  0
  8  9  2  0  0  0
  8 11  1  0  0  0
 11 12  1  0  0  0
 12 13  1  0  0  0
 12 14  1  0  0  0
  6 15  1  0  0  0
 15 22  1  0  0  0
 22 23  2  0  0  0
 23 24  1  0  0  0
 24 25  2  0  0  0
 25 26  1  0  0  0
 26 27  2  0  0  0
 15 16  1  0  0  0
 16 17  2  0  0  0
 17 18  1  0  0  0
 18 19  2  0  0  0
 19 20  1  0  0  0
 20 21  2  0  0  0
 42 43  1  0  0  0
 43 44  1  0  0  0
 43 45  2  0  0  0
 27 22  1  0  0  0
 21 16  1  0  0  0
 38 41  1  0  0  0
 32 35  1  0  0  0
 29 30  1  0  0  0
  2  5  1  0  0  0
  7 10  1  0  0  0
 44 46  1  0  0  0
 44 47  1  0  0  0
M  END
> <minimizedAffinity>
-8.00147

> <CNNscore>
0.1446674764

> <CNNaffinity>
6.4255194664

> <CNN_VS>
0.9295637012

> <CNNaffinity_variance>
0.4498577714

$$$$
[H]c1c([H])c(-c2nc(-c3c([H])c([H])c(C([H])([H])[H])c([H])c3[H])nn2-c2c([H])c([H])c(S(=O)(=O)N([H])[H])c([H])c2[H])c([H])c([H])c1OC([H])([H])[H]


 32 35  0  0  0  0  0  0  0  0999 V2000
    3.2807    0.1480    8.9588 C   0  0  0  0  0  0  0  0  0  0  0  0
    4.5019    0.6628    8.8393 N   0  0  0  0  0  0  0  0  0  0  0  0
    4.3981    1.9988    8.6371 N   0  0  0  0  0  0  0  0  0  0  0  0
    3.1265    2.3474    8.6254 C   0  0  0  0  0  0  0  0  0  0  0  0
    2.4306    1.1652    8.8302 N   0  0  0  0  0  0  0  0  0  0  0  0
    2.8821   -1.2343    9.1847 C   0  0  0  0  0  0  0  0  0  0  0  0
    1.5705   -1.6322    9.0576 C   0  0  0  0  0  0  0  0  0  0  0  0
    1.1693   -2.9306    9.2655 C   0  0  0  0  0  0  0  0  0  0  0  0
    2.0943   -3.9069    9.6189 C   0  0  0  0  0  0  0  0  0  0  0  0
    1.6405   -5.3041    9.8391 C   0  0  0  0  0  0  0  0  0  0  0  0
    3.4067   -3.5063    9.7456 C   0  0  0  0  0  0  0  0  0  0  0  0
    3.7965   -2.2051    9.5351 C   0  0  0  0  0  0  0  0  0  0  0  0
    5.5364    2.8053    8.4755 C   0  0  0  0  0  0  0  0  0  0  0  0
    6.4137    2.5832    7.4196 C   0  0  0  0  0  0  0  0  0  0  0  0
    7.5500    3.3429    7.2870 C   0  0  0  0  0  0  0  0  0  0  0  0
    7.8918    4.3491    8.1642 C   0  0  0  0  0  0  0  0  0  0  0  0
    7.0120    4.5566    9.2053 C   0  0  0  0  0  0  0  0  0  0  0  0
    5.8674    3.8160    9.3678 C   0  0  0  0  0  0  0  0  0  0  0  0
    9.3428    5.3077    7.9815 S   0  0  0  0  0  0  0  0  0  0  0  0
   10.5216    4.3601    7.8566 O   0  0  0  0  0  0  0  0  0  0  0  0
    9.5800    6.2498    9.4058 N   0  0  0  0  0  0  0  0  0  0  0  0
    9.2553    6.1954    6.7689 O   0  0  0  0  0  0  0  0  0  0  0  0
    9.4363    7.2582    9.2381 H   0  0  0  0  0  0  0  0  0  0  0  0
    8.9576    5.9270   10.1564 H   0  0  0  0  0  0  0  0  0  0  0  0
    2.4215    3.5984    8.4562 C   0  0  0  0  0  0  0  0  0  0  0  0
    1.6194    4.0584    9.4998 C   0  0  0  0  0  0  0  0  0  0  0  0
    0.9100    5.2292    9.4425 C   0  0  0  0  0  0  0  0  0  0  0  0
    0.9546    6.0290    8.3256 C   0  0  0  0  0  0  0  0  0  0  0  0
    1.7291    5.6075    7.2885 C   0  0  0  0  0  0  0  0  0  0  0  0
    2.4515    4.4058    7.3592 C   0  0  0  0  0  0  0  0  0  0  0  0
    0.2238    7.2143    8.2932 O   0  0  0  0  0  0  0  0  0  0  0  0
   -0.9614    7.3775    7.5811 C   0  0  0  0  0  0  0  0  0  0  0  0
  6  1  1  0  0  0
  1  2  2  0  0  0
  2  3  1  0  0  0
  3 13  1  0  0  0
 13 14  2  0  0  0
 14 15  1  0  0  0
 15 16  2  0  0  0
 16 19  1  0  0  0
 19 20  2  0  0  0
 19 21  1  0  0  0
 19 22  2  0  0  0
 16 17  1  0  0  0
 17 18  2  0  0  0
  3  4  1  0  0  0
  4 25  1  0  0  0
 25 26  2  0  0  0
 26 27  1  0  0  0
 27 28  2  0  0  0
 28 31  1  0  0  0
 31 32  1  0  0  0
 28 29  1  0  0  0
 29 30  2  0  0  0
  4  5  2  0  0  0
  6  7  2  0  0  0
  7  8  1  0  0  0
  8  9  2  0  0  0
  9 10  1  0  0  0
  9 11  1  0  0  0
 11 12  2  0  0  0
 12  6  1  0  0  0
  5  1  1  0  0  0
 18 13  1  0  0  0
 30 25  1  0  0  0
 21 23  1  0  0  0
 21 24  1  0  0  0
M  END
> <minimizedAffinity>
-4.87886

> <CNNscore>
0.6381316781

> <CNNaffinity>
5.5051808357

> <CNN_VS>
3.5130302906

> <CNNaffinity_variance>
0.3403761983

$$$$
[H]c1c([H])c(-c2nc(-c3c([H])c([H])c(C([H])([H])[H])c([H])c3[H])nn2-c2c([H])c([H])c(S(=O)(=O)N([H])[H])c([H])c2[H])c([H])c([H])c1OC([H])([H])[H]


 32 35  0  0  0  0  0  0  0  0999 V2000
    2.4082    5.2194    9.2324 C   0  0  0  0  0  0  0  0  0  0  0  0
    2.4117    5.1221   10.5595 N   0  0  0  0  0  0  0  0  0  0  0  0
    2.7295    3.8513   10.9065 N   0  0  0  0  0  0  0  0  0  0  0  0
    2.9300    3.1324    9.8195 C   0  0  0  0  0  0  0  0  0  0  0  0
    2.7230    4.0119    8.7670 N   0  0  0  0  0  0  0  0  0  0  0  0
    2.1272    6.3769    8.3946 C   0  0  0  0  0  0  0  0  0  0  0  0
    2.5752    7.6334    8.7342 C   0  0  0  0  0  0  0  0  0  0  0  0
    2.3232    8.7414    7.9604 C   0  0  0  0  0  0  0  0  0  0  0  0
    1.5914    8.6282    6.7833 C   0  0  0  0  0  0  0  0  0  0  0  0
    1.3299    9.8375    5.9613 C   0  0  0  0  0  0  0  0  0  0  0  0
    1.1439    7.3695    6.4454 C   0  0  0  0  0  0  0  0  0  0  0  0
    1.4020    6.2686    7.2269 C   0  0  0  0  0  0  0  0  0  0  0  0
    2.8081    3.4578   12.2524 C   0  0  0  0  0  0  0  0  0  0  0  0
    3.7338    4.0474   13.1064 C   0  0  0  0  0  0  0  0  0  0  0  0
    3.8411    3.6316   14.4108 C   0  0  0  0  0  0  0  0  0  0  0  0
    3.0626    2.6308   14.9503 C   0  0  0  0  0  0  0  0  0  0  0  0
    2.1500    2.0566   14.0910 C   0  0  0  0  0  0  0  0  0  0  0  0
    2.0164    2.4478   12.7817 C   0  0  0  0  0  0  0  0  0  0  0  0
    3.2114    2.1126   16.6138 S   0  0  0  0  0  0  0  0  0  0  0  0
    4.6209    1.5896   16.8207 O   0  0  0  0  0  0  0  0  0  0  0  0
    2.1236    0.8055   16.8974 N   0  0  0  0  0  0  0  0  0  0  0  0
    2.9315    3.2486   17.5611 O   0  0  0  0  0  0  0  0  0  0  0  0
    1.3465    1.0700   17.5235 H   0  0  0  0  0  0  0  0  0  0  0  0
    1.7519    0.4496   16.0084 H   0  0  0  0  0  0  0  0  0  0  0  0
    3.2851    1.7533    9.5692 C   0  0  0  0  0  0  0  0  0  0  0  0
    2.2672    0.8021    9.5132 C   0  0  0  0  0  0  0  0  0  0  0  0
    2.4946   -0.5292    9.2823 C   0  0  0  0  0  0  0  0  0  0  0  0
    3.7693   -1.0057    9.0894 C   0  0  0  0  0  0  0  0  0  0  0  0
    4.7859   -0.1017    9.1381 C   0  0  0  0  0  0  0  0  0  0  0  0
    4.5402    1.2600    9.3755 C   0  0  0  0  0  0  0  0  0  0  0  0
    3.9730   -2.3637    8.8565 O   0  0  0  0  0  0  0  0  0  0  0  0
    3.3157   -3.3781    9.5476 C   0  0  0  0  0  0  0  0  0  0  0  0
  6  1  1  0  0  0
  1  2  2  0  0  0
  2  3  1  0  0  0
  3 13  1  0  0  0
 13 14  2  0  0  0
 14 15  1  0  0  0
 15 16  2  0  0  0
 16 19  1  0  0  0
 19 20  2  0  0  0
 19 21  1  0  0  0
 19 22  2  0  0  0
 16 17  1  0  0  0
 17 18  2  0  0  0
  3  4  1  0  0  0
  4 25  1  0  0  0
 25 26  2  0  0  0
 26 27  1  0  0  0
 27 28  2  0  0  0
 28 31  1  0  0  0
 31 32  1  0  0  0
 28 29  1  0  0  0
 29 30  2  0  0  0
  4  5  2  0  0  0
  6  7  2  0  0  0
  7  8  1  0  0  0
  8  9  2  0  0  0
  9 10  1  0  0  0
  9 11  1  0  0  0
 11 12  2  0  0  0
 12  6  1  0  0  0
  5  1  1  0  0  0
 18 13  1  0  0  0
 30 25  1  0  0  0
 21 23  1  0  0  0
 21 24  1  0  0  0
M  END
> <minimizedAffinity>
-5.60027

> <CNNscore>
0.5396882296

> <CNNaffinity>
5.8223214149

> <CNN_VS>
3.1422383785

> <CNNaffinity_variance>
0.1091868877

$$$$
[H]c1c([H])c(-c2nc(-c3c([H])c([H])c(C([H])([H])[H])c([H])c3[H])nn2-c2c([H])c([H])c(S(=O)(=O)N([H])[H])c([H])c2[H])c([H])c([H])c1OC([H])([H])[H]


 32 35  0  0  0  0  0  0  0  0999 V2000
    6.0225    3.2084    8.2720 C   0  0  0  0  0  0  0  0  0  0  0  0
    5.7954    4.0818    9.2498 N   0  0  0  0  0  0  0  0  0  0  0  0
    4.5657    3.8496    9.7700 N   0  0  0  0  0  0  0  0  0  0  0  0
    4.0015    2.8389    9.1388 C   0  0  0  0  0  0  0  0  0  0  0  0
    4.9355    2.4428    8.1929 N   0  0  0  0  0  0  0  0  0  0  0  0
    7.1958    3.0623    7.4219 C   0  0  0  0  0  0  0  0  0  0  0  0
    8.4536    3.3925    7.8732 C   0  0  0  0  0  0  0  0  0  0  0  0
    9.5765    3.2636    7.0904 C   0  0  0  0  0  0  0  0  0  0  0  0
    9.4776    2.7852    5.7884 C   0  0  0  0  0  0  0  0  0  0  0  0
   10.7028    2.6534    4.9588 C   0  0  0  0  0  0  0  0  0  0  0  0
    8.2176    2.4554    5.3388 C   0  0  0  0  0  0  0  0  0  0  0  0
    7.1018    2.5883    6.1305 C   0  0  0  0  0  0  0  0  0  0  0  0
    4.0583    4.6264   10.8243 C   0  0  0  0  0  0  0  0  0  0  0  0
    4.3833    4.3245   12.1424 C   0  0  0  0  0  0  0  0  0  0  0  0
    3.8517    5.0563   13.1757 C   0  0  0  0  0  0  0  0  0  0  0  0
    2.9846    6.1103   12.9860 C   0  0  0  0  0  0  0  0  0  0  0  0
    2.6725    6.3969   11.6740 C   0  0  0  0  0  0  0  0  0  0  0  0
    3.1857    5.6860   10.6174 C   0  0  0  0  0  0  0  0  0  0  0  0
    2.3162    7.0327   14.3128 S   0  0  0  0  0  0  0  0  0  0  0  0
    3.4373    7.3332   15.2905 O   0  0  0  0  0  0  0  0  0  0  0  0
    1.1489    6.0692   15.1384 N   0  0  0  0  0  0  0  0  0  0  0  0
    1.6938    8.3125   13.8222 O   0  0  0  0  0  0  0  0  0  0  0  0
    0.1865    6.4184   15.0054 H   0  0  0  0  0  0  0  0  0  0  0  0
    1.2120    5.0905   14.8333 H   0  0  0  0  0  0  0  0  0  0  0  0
    2.7313    2.1572    9.2514 C   0  0  0  0  0  0  0  0  0  0  0  0
    1.6414    2.6557    8.5388 C   0  0  0  0  0  0  0  0  0  0  0  0
    0.3957    2.0863    8.5753 C   0  0  0  0  0  0  0  0  0  0  0  0
    0.1519    0.9671    9.3350 C   0  0  0  0  0  0  0  0  0  0  0  0
    1.1960    0.4556   10.0430 C   0  0  0  0  0  0  0  0  0  0  0  0
    2.4679    1.0481    9.9975 C   0  0  0  0  0  0  0  0  0  0  0  0
   -1.1236    0.4080    9.3545 O   0  0  0  0  0  0  0  0  0  0  0  0
   -1.5354   -0.6184    8.5087 C   0  0  0  0  0  0  0  0  0  0  0  0
  6  1  1  0  0  0
  1  2  2  0  0  0
  2  3  1  0  0  0
  3 13  1  0  0  0
 13 14  2  0  0  0
 14 15  1  0  0  0
 15 16  2  0  0  0
 16 19  1  0  0  0
 19 20  2  0  0  0
 19 21  1  0  0  0
 19 22  2  0  0  0
 16 17  1  0  0  0
 17 18  2  0  0  0
  3  4  1  0  0  0
  4 25  1  0  0  0
 25 26  2  0  0  0
 26 27  1  0  0  0
 27 28  2  0  0  0
 28 31  1  0  0  0
 31 32  1  0  0  0
 28 29  1  0  0  0
 29 30  2  0  0  0
  4  5  2  0  0  0
  6  7  2  0  0  0
  7  8  1  0  0  0
  8  9  2  0  0  0
  9 10  1  0  0  0
  9 11  1  0  0  0
 11 12  2  0  0  0
 12  6  1  0  0  0
  5  1  1  0  0  0
 18 13  1  0  0  0
 30 25  1  0  0  0
 21 23  1  0  0  0
 21 24  1  0  0  0
M  END
> <minimizedAffinity>
-5.18421

> <CNNscore>
0.5370149612

> <CNNaffinity>
5.8220572472

> <CNN_VS>
3.1265318394

> <CNNaffinity_variance>
1.0361367464

$$$$
[H]c1c([H])c(-c2nc(-c3c([H])c([H])c(C([H])([H])[H])c([H])c3[H])nn2-c2c([H])c([H])c(S(=O)(=O)N([H])[H])c([H])c2[H])c([H])c([H])c1OC([H])([H])[H]


 32 35  0  0  0  0  0  0  0  0999 V2000
    4.2235    1.5353    8.9673 C   0  0  0  0  0  0  0  0  0  0  0  0
    3.7707    2.1990   10.0280 N   0  0  0  0  0  0  0  0  0  0  0  0
    4.0176    3.5206    9.8582 N   0  0  0  0  0  0  0  0  0  0  0  0
    4.6226    3.7132    8.7026 C   0  0  0  0  0  0  0  0  0  0  0  0
    4.7465    2.4472    8.1495 N   0  0  0  0  0  0  0  0  0  0  0  0
    4.1878    0.1059    8.6912 C   0  0  0  0  0  0  0  0  0  0  0  0
    5.0237   -0.4652    7.7585 C   0  0  0  0  0  0  0  0  0  0  0  0
    5.0092   -1.8114    7.4800 C   0  0  0  0  0  0  0  0  0  0  0  0
    4.1310   -2.6599    8.1451 C   0  0  0  0  0  0  0  0  0  0  0  0
    4.1309   -4.1116    7.8297 C   0  0  0  0  0  0  0  0  0  0  0  0
    3.2951   -2.0861    9.0783 C   0  0  0  0  0  0  0  0  0  0  0  0
    3.3184   -0.7386    9.3487 C   0  0  0  0  0  0  0  0  0  0  0  0
    3.6448    4.4655   10.8281 C   0  0  0  0  0  0  0  0  0  0  0  0
    2.3052    4.7829   11.0249 C   0  0  0  0  0  0  0  0  0  0  0  0
    1.9438    5.7391   11.9420 C   0  0  0  0  0  0  0  0  0  0  0  0
    2.8551    6.4313   12.7095 C   0  0  0  0  0  0  0  0  0  0  0  0
    4.1786    6.1051   12.5025 C   0  0  0  0  0  0  0  0  0  0  0  0
    4.5748    5.1548   11.5943 C   0  0  0  0  0  0  0  0  0  0  0  0
    2.3786    7.6463   13.8733 S   0  0  0  0  0  0  0  0  0  0  0  0
    3.2133    7.4528   15.1259 O   0  0  0  0  0  0  0  0  0  0  0  0
    0.7276    7.3989   14.3038 N   0  0  0  0  0  0  0  0  0  0  0  0
    2.5790    9.0323   13.3209 O   0  0  0  0  0  0  0  0  0  0  0  0
    0.1124    8.1477   13.9480 H   0  0  0  0  0  0  0  0  0  0  0  0
    0.4017    6.4862   13.9636 H   0  0  0  0  0  0  0  0  0  0  0  0
    5.1178    4.8763    8.0008 C   0  0  0  0  0  0  0  0  0  0  0  0
    4.1974    5.8043    7.5152 C   0  0  0  0  0  0  0  0  0  0  0  0
    4.5600    6.9386    6.8375 C   0  0  0  0  0  0  0  0  0  0  0  0
    5.8823    7.2258    6.5965 C   0  0  0  0  0  0  0  0  0  0  0  0
    6.8063    6.3391    7.0580 C   0  0  0  0  0  0  0  0  0  0  0  0
    6.4222    5.1802    7.7511 C   0  0  0  0  0  0  0  0  0  0  0  0
    6.2239    8.3858    5.9052 O   0  0  0  0  0  0  0  0  0  0  0  0
    5.8183    9.6632    6.2820 C   0  0  0  0  0  0  0  0  0  0  0  0
  6  1  1  0  0  0
  1  2  2  0  0  0
  2  3  1  0  0  0
  3 13  1  0  0  0
 13 14  2  0  0  0
 14 15  1  0  0  0
 15 16  2  0  0  0
 16 19  1  0  0  0
 19 20  2  0  0  0
 19 21  1  0  0  0
 19 22  2  0  0  0
 16 17  1  0  0  0
 17 18  2  0  0  0
  3  4  1  0  0  0
  4 25  1  0  0  0
 25 26  2  0  0  0
 26 27  1  0  0  0
 27 28  2  0  0  0
 28 31  1  0  0  0
 31 32  1  0  0  0
 28 29  1  0  0  0
 29 30  2  0  0  0
  4  5  2  0  0  0
  6  7  2  0  0  0
  7  8  1  0  0  0
  8  9  2  0  0  0
  9 10  1  0  0  0
  9 11  1  0  0  0
 11 12  2  0  0  0
 12  6  1  0  0  0
  5  1  1  0  0  0
 18 13  1  0  0  0
 30 25  1  0  0  0
 21 23  1  0  0  0
 21 24  1  0  0  0
M  END
> <minimizedAffinity>
-4.83564

> <CNNscore>
0.4997502267

> <CNNaffinity>
5.5455126762

> <CNN_VS>
2.7713711262

> <CNNaffinity_variance>
0.4529546797

$$$$
[H]c1c([H])c(-c2nc(-c3c([H])c([H])c(C([H])([H])[H])c([H])c3[H])nn2-c2c([H])c([H])c(S(=O)(=O)N([H])[H])c([H])c2[H])c([H])c([H])c1OC([H])([H])[H]


 32 35  0  0  0  0  0  0  0  0999 V2000
    2.7180    2.5029    9.7324 C   0  0  0  0  0  0  0  0  0  0  0  0
    2.6300    3.3289   10.7719 N   0  0  0  0  0  0  0  0  0  0  0  0
    3.3050    4.4687   10.4862 N   0  0  0  0  0  0  0  0  0  0  0  0
    3.8246    4.3845    9.2773 C   0  0  0  0  0  0  0  0  0  0  0  0
    3.4448    3.1343    8.8120 N   0  0  0  0  0  0  0  0  0  0  0  0
    2.1592    1.1684    9.5667 C   0  0  0  0  0  0  0  0  0  0  0  0
    0.8498    0.8942    9.8907 C   0  0  0  0  0  0  0  0  0  0  0  0
    0.2990   -0.3569    9.7435 C   0  0  0  0  0  0  0  0  0  0  0  0
    1.0622   -1.4102    9.2519 C   0  0  0  0  0  0  0  0  0  0  0  0
    0.4484   -2.7545    9.1004 C   0  0  0  0  0  0  0  0  0  0  0  0
    2.3727   -1.1335    8.9283 C   0  0  0  0  0  0  0  0  0  0  0  0
    2.9128    0.1214    9.0796 C   0  0  0  0  0  0  0  0  0  0  0  0
    3.3810    5.5252   11.4085 C   0  0  0  0  0  0  0  0  0  0  0  0
    3.8557    5.3037   12.6967 C   0  0  0  0  0  0  0  0  0  0  0  0
    3.8883    6.3268   13.6122 C   0  0  0  0  0  0  0  0  0  0  0  0
    3.4657    7.6073   13.3282 C   0  0  0  0  0  0  0  0  0  0  0  0
    2.9981    7.8105   12.0472 C   0  0  0  0  0  0  0  0  0  0  0  0
    2.9517    6.8106   11.1075 C   0  0  0  0  0  0  0  0  0  0  0  0
    3.5136    8.8995   14.5054 S   0  0  0  0  0  0  0  0  0  0  0  0
    4.8182    9.6537   14.3252 O   0  0  0  0  0  0  0  0  0  0  0  0
    3.5191    8.2198   16.0898 N   0  0  0  0  0  0  0  0  0  0  0  0
    2.3436    9.8310   14.3337 O   0  0  0  0  0  0  0  0  0  0  0  0
    2.6386    8.4003   16.5976 H   0  0  0  0  0  0  0  0  0  0  0  0
    3.6974    7.2092   16.0453 H   0  0  0  0  0  0  0  0  0  0  0  0
    4.6243    5.2655    8.4557 C   0  0  0  0  0  0  0  0  0  0  0  0
    3.9733    6.1799    7.6286 C   0  0  0  0  0  0  0  0  0  0  0  0
    4.6353    7.0584    6.8117 C   0  0  0  0  0  0  0  0  0  0  0  0
    6.0088    7.0830    6.7655 C   0  0  0  0  0  0  0  0  0  0  0  0
    6.6745    6.2020    7.5616 C   0  0  0  0  0  0  0  0  0  0  0  0
    5.9848    5.3067    8.3944 C   0  0  0  0  0  0  0  0  0  0  0  0
    6.6572    7.9860    5.9263 O   0  0  0  0  0  0  0  0  0  0  0  0
    6.0612    8.5843    4.8194 C   0  0  0  0  0  0  0  0  0  0  0  0
  6  1  1  0  0  0
  1  2  2  0  0  0
  2  3  1  0  0  0
  3 13  1  0  0  0
 13 14  2  0  0  0
 14 15  1  0  0  0
 15 16  2  0  0  0
 16 19  1  0  0  0
 19 20  2  0  0  0
 19 21  1  0  0  0
 19 22  2  0  0  0
 16 17  1  0  0  0
 17 18  2  0  0  0
  3  4  1  0  0  0
  4 25  1  0  0  0
 25 26  2  0  0  0
 26 27  1  0  0  0
 27 28  2  0  0  0
 28 31  1  0  0  0
 31 32  1  0  0  0
 28 29  1  0  0  0
 29 30  2  0  0  0
  4  5  2  0  0  0
  6  7  2  0  0  0
  7  8  1  0  0  0
  8  9  2  0  0  0
  9 10  1  0  0  0
  9 11  1  0  0  0
 11 12  2  0  0  0
 12  6  1  0  0  0
  5  1  1  0  0  0
 18 13  1  0  0  0
 30 25  1  0  0  0
 21 23  1  0  0  0
 21 24  1  0  0  0
M  END
> <minimizedAffinity>
-5.10131

> <CNNscore>
0.4811063707

> <CNNaffinity>
5.6489701271

> <CNN_VS>
2.7177555561

> <CNNaffinity_variance>
0.6069867015

$$$$
[H]c1c([H])c(-c2nc(-c3c([H])c([H])c(C([H])([H])[H])c([H])c3[H])nn2-c2c([H])c([H])c(S(=O)(=O)N([H])[H])c([H])c2[H])c([H])c([H])c1OC([H])([H])[H]


 32 35  0  0  0  0  0  0  0  0999 V2000
    3.8587    0.2919    8.6788 C   0  0  0  0  0  0  0  0  0  0  0  0
    4.6626    1.3174    8.9485 N   0  0  0  0  0  0  0  0  0  0  0  0
    3.9151    2.3580    9.3899 N   0  0  0  0  0  0  0  0  0  0  0  0
    2.6426    2.0133    9.4070 C   0  0  0  0  0  0  0  0  0  0  0  0
    2.6219    0.7024    8.9541 N   0  0  0  0  0  0  0  0  0  0  0  0
    4.1941   -1.0353    8.1821 C   0  0  0  0  0  0  0  0  0  0  0  0
    5.2151   -1.2258    7.2788 C   0  0  0  0  0  0  0  0  0  0  0  0
    5.5509   -2.4682    6.7952 C   0  0  0  0  0  0  0  0  0  0  0  0
    4.8559   -3.5986    7.2109 C   0  0  0  0  0  0  0  0  0  0  0  0
    5.2342   -4.9319    6.6765 C   0  0  0  0  0  0  0  0  0  0  0  0
    3.8342   -3.4055    8.1152 C   0  0  0  0  0  0  0  0  0  0  0  0
    3.5072   -2.1584    8.5921 C   0  0  0  0  0  0  0  0  0  0  0  0
    4.5037    3.5809    9.7513 C   0  0  0  0  0  0  0  0  0  0  0  0
    4.6547    3.9220   11.0910 C   0  0  0  0  0  0  0  0  0  0  0  0
    5.1894    5.1367   11.4441 C   0  0  0  0  0  0  0  0  0  0  0  0
    5.6020    6.0758   10.5239 C   0  0  0  0  0  0  0  0  0  0  0  0
    5.4456    5.7225    9.2004 C   0  0  0  0  0  0  0  0  0  0  0  0
    4.9150    4.5171    8.8124 C   0  0  0  0  0  0  0  0  0  0  0  0
    6.2810    7.6184   10.9898 S   0  0  0  0  0  0  0  0  0  0  0  0
    5.6310    8.0458   12.2928 O   0  0  0  0  0  0  0  0  0  0  0  0
    5.8791    8.7957    9.7961 N   0  0  0  0  0  0  0  0  0  0  0  0
    7.7740    7.5236   11.1573 O   0  0  0  0  0  0  0  0  0  0  0  0
    6.7034    9.1067    9.2580 H   0  0  0  0  0  0  0  0  0  0  0  0
    5.1622    8.4289    9.1585 H   0  0  0  0  0  0  0  0  0  0  0  0
    1.4163    2.6866    9.7726 C   0  0  0  0  0  0  0  0  0  0  0  0
    0.4451    2.8829    8.7916 C   0  0  0  0  0  0  0  0  0  0  0  0
   -0.7500    3.5083    9.0318 C   0  0  0  0  0  0  0  0  0  0  0  0
   -1.0593    3.9856   10.2830 C   0  0  0  0  0  0  0  0  0  0  0  0
   -0.1315    3.8096   11.2634 C   0  0  0  0  0  0  0  0  0  0  0  0
    1.0896    3.1671   11.0049 C   0  0  0  0  0  0  0  0  0  0  0  0
   -2.2813    4.6176   10.5004 O   0  0  0  0  0  0  0  0  0  0  0  0
   -2.6051    5.3030   11.6683 C   0  0  0  0  0  0  0  0  0  0  0  0
  6  1  1  0  0  0
  1  2  2  0  0  0
  2  3  1  0  0  0
  3 13  1  0  0  0
 13 14  2  0  0  0
 14 15  1  0  0  0
 15 16  2  0  0  0
 16 19  1  0  0  0
 19 20  2  0  0  0
 19 21  1  0  0  0
 19 22  2  0  0  0
 16 17  1  0  0  0
 17 18  2  0  0  0
  3  4  1  0  0  0
  4 25  1  0  0  0
 25 26  2  0  0  0
 26 27  1  0  0  0
 27 28  2  0  0  0
 28 31  1  0  0  0
 31 32  1  0  0  0
 28 29  1  0  0  0
 29 30  2  0  0  0
  4  5  2  0  0  0
  6  7  2  0  0  0
  7  8  1  0  0  0
  8  9  2  0  0  0
  9 10  1  0  0  0
  9 11  1  0  0  0
 11 12  2  0  0  0
 12  6  1  0  0  0
  5  1  1  0  0  0
 18 13  1  0  0  0
 30 25  1  0  0  0
 21 23  1  0  0  0
 21 24  1  0  0  0
M  END
> <minimizedAffinity>
-4.67077

> <CNNscore>
0.4711824656

> <CNNaffinity>
5.3124513626

> <CNN_VS>
2.5031340122

> <CNNaffinity_variance>
0.4715220332

$$$$
[H]c1c([H])c(-c2nc(-c3c([H])c([H])c(C([H])([H])[H])c([H])c3[H])nn2-c2c([H])c([H])c(S(=O)(=O)N([H])[H])c([H])c2[H])c([H])c([H])c1OC([H])([H])[H]


 32 35  0  0  0  0  0  0  0  0999 V2000
    2.2037    0.3044    9.6313 C   0  0  0  0  0  0  0  0  0  0  0  0
    3.1596    1.2274    9.7013 N   0  0  0  0  0  0  0  0  0  0  0  0
    2.5900    2.4330    9.9432 N   0  0  0  0  0  0  0  0  0  0  0  0
    1.2816    2.2953   10.0293 C   0  0  0  0  0  0  0  0  0  0  0  0
    1.0514    0.9421    9.8298 N   0  0  0  0  0  0  0  0  0  0  0  0
    2.3215   -1.1269    9.3904 C   0  0  0  0  0  0  0  0  0  0  0  0
    1.2112   -1.9114    9.1750 C   0  0  0  0  0  0  0  0  0  0  0  0
    1.2961   -3.2643    8.9454 C   0  0  0  0  0  0  0  0  0  0  0  0
    2.5328   -3.8997    8.9226 C   0  0  0  0  0  0  0  0  0  0  0  0
    2.6032   -5.3623    8.6729 C   0  0  0  0  0  0  0  0  0  0  0  0
    3.6430   -3.1124    9.1385 C   0  0  0  0  0  0  0  0  0  0  0  0
    3.5460   -1.7604    9.3670 C   0  0  0  0  0  0  0  0  0  0  0  0
    3.3655    3.5974   10.0671 C   0  0  0  0  0  0  0  0  0  0  0  0
    3.9729    3.9145   11.2772 C   0  0  0  0  0  0  0  0  0  0  0  0
    4.6942    5.0754   11.4111 C   0  0  0  0  0  0  0  0  0  0  0  0
    4.8626    5.9816   10.3867 C   0  0  0  0  0  0  0  0  0  0  0  0
    4.2544    5.6527    9.1939 C   0  0  0  0  0  0  0  0  0  0  0  0
    3.5263    4.5009    9.0255 C   0  0  0  0  0  0  0  0  0  0  0  0
    5.7844    7.4558   10.5732 S   0  0  0  0  0  0  0  0  0  0  0  0
    7.2366    7.0786   10.8006 O   0  0  0  0  0  0  0  0  0  0  0  0
    5.2363    8.2902   11.9788 N   0  0  0  0  0  0  0  0  0  0  0  0
    5.6566    8.3311    9.3552 O   0  0  0  0  0  0  0  0  0  0  0  0
    4.7395    9.1652   11.7474 H   0  0  0  0  0  0  0  0  0  0  0  0
    4.6308    7.6820   12.5430 H   0  0  0  0  0  0  0  0  0  0  0  0
    0.1817    3.2033   10.2672 C   0  0  0  0  0  0  0  0  0  0  0  0
   -0.8321    3.2871    9.3137 C   0  0  0  0  0  0  0  0  0  0  0  0
   -1.9172    4.1141    9.4413 C   0  0  0  0  0  0  0  0  0  0  0  0
   -2.0644    4.9225   10.5430 C   0  0  0  0  0  0  0  0  0  0  0  0
   -1.0910    4.8640   11.4928 C   0  0  0  0  0  0  0  0  0  0  0  0
    0.0162    4.0126   11.3507 C   0  0  0  0  0  0  0  0  0  0  0  0
   -3.1770    5.7539   10.6480 O   0  0  0  0  0  0  0  0  0  0  0  0
   -4.0248    5.7821   11.7520 C   0  0  0  0  0  0  0  0  0  0  0  0
  6  1  1  0  0  0
  1  2  2  0  0  0
  2  3  1  0  0  0
  3 13  1  0  0  0
 13 14  2  0  0  0
 14 15  1  0  0  0
 15 16  2  0  0  0
 16 19  1  0  0  0
 19 20  2  0  0  0
 19 21  1  0  0  0
 19 22  2  0  0  0
 16 17  1  0  0  0
 17 18  2  0  0  0
  3  4  1  0  0  0
  4 25  1  0  0  0
 25 26  2  0  0  0
 26 27  1  0  0  0
 27 28  2  0  0  0
 28 31  1  0  0  0
 31 32  1  0  0  0
 28 29  1  0  0  0
 29 30  2  0  0  0
  4  5  2  0  0  0
  6  7  2  0  0  0
  7  8  1  0  0  0
  8  9  2  0  0  0
  9 10  1  0  0  0
  9 11  1  0  0  0
 11 12  2  0  0  0
 12  6  1  0  0  0
  5  1  1  0  0  0
 18 13  1  0  0  0
 30 25  1  0  0  0
 21 23  1  0  0  0
 21 24  1  0  0  0
M  END
> <minimizedAffinity>
-5.00490

> <CNNscore>
0.4400168061

> <CNNaffinity>
5.3584012985

> <CNN_VS>
2.3577866554

> <CNNaffinity_variance>
0.4725687504

$$$$
[H]c1c([H])c(-c2nc(-c3c([H])c([H])c(C([H])([H])[H])c([H])c3[H])nn2-c2c([H])c([H])c(S(=O)(=O)N([H])[H])c([H])c2[H])c([H])c([H])c1OC([H])([H])[H]


 32 35  0  0  0  0  0  0  0  0999 V2000
    3.2197    2.1250    9.5047 C   0  0  0  0  0  0  0  0  0  0  0  0
    3.2521    2.9323   10.5620 N   0  0  0  0  0  0  0  0  0  0  0  0
    3.3451    4.2146   10.1335 N   0  0  0  0  0  0  0  0  0  0  0  0
    3.3728    4.2402    8.8156 C   0  0  0  0  0  0  0  0  0  0  0  0
    3.2927    2.9099    8.4311 N   0  0  0  0  0  0  0  0  0  0  0  0
    3.1248    0.6726    9.4576 C   0  0  0  0  0  0  0  0  0  0  0  0
    4.2160   -0.1259    9.7152 C   0  0  0  0  0  0  0  0  0  0  0  0
    4.1521   -1.4987    9.6771 C   0  0  0  0  0  0  0  0  0  0  0  0
    2.9574   -2.1409    9.3704 C   0  0  0  0  0  0  0  0  0  0  0  0
    2.9091   -3.6252    9.3344 C   0  0  0  0  0  0  0  0  0  0  0  0
    1.8664   -1.3397    9.1128 C   0  0  0  0  0  0  0  0  0  0  0  0
    1.9420    0.0322    9.1539 C   0  0  0  0  0  0  0  0  0  0  0  0
    3.3979    5.2869   11.0390 C   0  0  0  0  0  0  0  0  0  0  0  0
    4.5963    5.9517   11.2753 C   0  0  0  0  0  0  0  0  0  0  0  0
    4.6576    6.9711   12.1935 C   0  0  0  0  0  0  0  0  0  0  0  0
    3.5690    7.3951   12.9241 C   0  0  0  0  0  0  0  0  0  0  0  0
    2.3888    6.7261   12.6783 C   0  0  0  0  0  0  0  0  0  0  0  0
    2.2921    5.7031   11.7677 C   0  0  0  0  0  0  0  0  0  0  0  0
    3.6635    8.6950   14.0899 S   0  0  0  0  0  0  0  0  0  0  0  0
    2.3213    9.4025   14.1175 O   0  0  0  0  0  0  0  0  0  0  0  0
    4.8442    9.8375   13.5671 N   0  0  0  0  0  0  0  0  0  0  0  0
    4.0056    8.1700   15.4587 O   0  0  0  0  0  0  0  0  0  0  0  0
    5.6813    9.8416   14.1712 H   0  0  0  0  0  0  0  0  0  0  0  0
    5.1152    9.6524   12.5938 H   0  0  0  0  0  0  0  0  0  0  0  0
    3.4614    5.2900    7.8252 C   0  0  0  0  0  0  0  0  0  0  0  0
    4.7148    5.8253    7.5311 C   0  0  0  0  0  0  0  0  0  0  0  0
    4.9093    6.8214    6.6106 C   0  0  0  0  0  0  0  0  0  0  0  0
    3.8523    7.3563    5.9137 C   0  0  0  0  0  0  0  0  0  0  0  0
    2.6147    6.8550    6.1781 C   0  0  0  0  0  0  0  0  0  0  0  0
    2.4281    5.8342    7.1236 C   0  0  0  0  0  0  0  0  0  0  0  0
    4.0775    8.3683    4.9834 O   0  0  0  0  0  0  0  0  0  0  0  0
    3.9228    8.2091    3.6090 C   0  0  0  0  0  0  0  0  0  0  0  0
  6  1  1  0  0  0
  1  2  2  0  0  0
  2  3  1  0  0  0
  3 13  1  0  0  0
 13 14  2  0  0  0
 14 15  1  0  0  0
 15 16  2  0  0  0
 16 19  1  0  0  0
 19 20  2  0  0  0
 19 21  1  0  0  0
 19 22  2  0  0  0
 16 17  1  0  0  0
 17 18  2  0  0  0
  3  4  1  0  0  0
  4 25  1  0  0  0
 25 26  2  0  0  0
 26 27  1  0  0  0
 27 28  2  0  0  0
 28 31  1  0  0  0
 31 32  1  0  0  0
 28 29  1  0  0  0
 29 30  2  0  0  0
  4  5  2  0  0  0
  6  7  2  0  0  0
  7  8  1  0  0  0
  8  9  2  0  0  0
  9 10  1  0  0  0
  9 11  1  0  0  0
 11 12  2  0  0  0
 12  6  1  0  0  0
  5  1  1  0  0  0
 18 13  1  0  0  0
 30 25  1  0  0  0
 21 23  1  0  0  0
 21 24  1  0  0  0
M  END
> <minimizedAffinity>
-5.09290

> <CNNscore>
0.4347391427

> <CNNaffinity>
5.5355310440

> <CNN_VS>
2.4065120220

> <CNNaffinity_variance>
0.6118196249

$$$$
[H]c1c([H])c(-c2nc(-c3c([H])c([H])c(C([H])([H])[H])c([H])c3[H])nn2-c2c([H])c([H])c(S(=O)(=O)N([H])[H])c([H])c2[H])c([H])c([H])c1OC([H])([H])[H]


 32 35  0  0  0  0  0  0  0  0999 V2000
    1.4950    3.8636   10.9476 C   0  0  0  0  0  0  0  0  0  0  0  0
    2.6144    4.2611   10.3480 N   0  0  0  0  0  0  0  0  0  0  0  0
    3.2333    3.1814    9.8117 N   0  0  0  0  0  0  0  0  0  0  0  0
    2.5255    2.0969   10.0594 C   0  0  0  0  0  0  0  0  0  0  0  0
    1.4276    2.5441   10.7795 N   0  0  0  0  0  0  0  0  0  0  0  0
    0.5012    4.6544   11.6601 C   0  0  0  0  0  0  0  0  0  0  0  0
    0.8594    5.5037   12.6824 C   0  0  0  0  0  0  0  0  0  0  0  0
   -0.0596    6.2606   13.3700 C   0  0  0  0  0  0  0  0  0  0  0  0
   -1.4110    6.1923   13.0495 C   0  0  0  0  0  0  0  0  0  0  0  0
   -2.3880    7.0181   13.8045 C   0  0  0  0  0  0  0  0  0  0  0  0
   -1.7673    5.3414   12.0259 C   0  0  0  0  0  0  0  0  0  0  0  0
   -0.8397    4.5894   11.3451 C   0  0  0  0  0  0  0  0  0  0  0  0
    4.4458    3.3043    9.1137 C   0  0  0  0  0  0  0  0  0  0  0  0
    4.4778    3.1807    7.7289 C   0  0  0  0  0  0  0  0  0  0  0  0
    5.6694    3.2565    7.0505 C   0  0  0  0  0  0  0  0  0  0  0  0
    6.8818    3.4545    7.6746 C   0  0  0  0  0  0  0  0  0  0  0  0
    6.8331    3.5751    9.0473 C   0  0  0  0  0  0  0  0  0  0  0  0
    5.6597    3.5043    9.7566 C   0  0  0  0  0  0  0  0  0  0  0  0
    8.3909    3.5487    6.7963 S   0  0  0  0  0  0  0  0  0  0  0  0
    9.5267    3.4450    7.7974 O   0  0  0  0  0  0  0  0  0  0  0  0
    8.5060    5.0916    6.0356 N   0  0  0  0  0  0  0  0  0  0  0  0
    8.4921    2.4470    5.7754 O   0  0  0  0  0  0  0  0  0  0  0  0
    8.4342    5.0291    5.0076 H   0  0  0  0  0  0  0  0  0  0  0  0
    7.7839    5.7250    6.3995 H   0  0  0  0  0  0  0  0  0  0  0  0
    2.6805    0.6937    9.7465 C   0  0  0  0  0  0  0  0  0  0  0  0
    3.9329    0.1060    9.9199 C   0  0  0  0  0  0  0  0  0  0  0  0
    4.1871   -1.2137    9.6534 C   0  0  0  0  0  0  0  0  0  0  0  0
    3.1956   -2.0452    9.1903 C   0  0  0  0  0  0  0  0  0  0  0  0
    1.9606   -1.5015    9.0102 C   0  0  0  0  0  0  0  0  0  0  0  0
    1.7125   -0.1477    9.2869 C   0  0  0  0  0  0  0  0  0  0  0  0
    3.4806   -3.3830    8.9271 O   0  0  0  0  0  0  0  0  0  0  0  0
    4.0567   -3.8368    7.7436 C   0  0  0  0  0  0  0  0  0  0  0  0
  6  1  1  0  0  0
  1  2  2  0  0  0
  2  3  1  0  0  0
  3 13  1  0  0  0
 13 14  2  0  0  0
 14 15  1  0  0  0
 15 16  2  0  0  0
 16 19  1  0  0  0
 19 20  2  0  0  0
 19 21  1  0  0  0
 19 22  2  0  0  0
 16 17  1  0  0  0
 17 18  2  0  0  0
  3  4  1  0  0  0
  4 25  1  0  0  0
 25 26  2  0  0  0
 26 27  1  0  0  0
 27 28  2  0  0  0
 28 31  1  0  0  0
 31 32  1  0  0  0
 28 29  1  0  0  0
 29 30  2  0  0  0
  4  5  2  0  0  0
  6  7  2  0  0  0
  7  8  1  0  0  0
  8  9  2  0  0  0
  9 10  1  0  0  0
  9 11  1  0  0  0
 11 12  2  0  0  0
 12  6  1  0  0  0
  5  1  1  0  0  0
 18 13  1  0  0  0
 30 25  1  0  0  0
 21 23  1  0  0  0
 21 24  1  0  0  0
M  END
> <minimizedAffinity>
-5.33167

> <CNNscore>
0.4307491779

> <CNNaffinity>
5.3702840805

> <CNN_VS>
2.3132455349

> <CNNaffinity_variance>
0.3739289343

$$$$
[H]OC(=O)[C@@]([H])(N([H])C(=O)[C@@]([H])(N([H])C(=O)[C@]([H])(N([H])C(=O)C([H])([H])c1c([H])c([H])c([H])c([H])c1[H])C([H])([H])C([H])(C([H])([H])[H])C([H])([H])[H])C([H])([H])c1c([H])c([H])c([H])c([H])c1[H])C([H])([H])C([H])(C([H])([H])[H])C([H])([H])[H]


 41 42  0  0  0  0  0  0  0  0999 V2000
    4.5168    7.3201   18.8905 C   0  0  0  0  0  0  0  0  0  0  0  0
    4.3105    7.1934   16.4111 C   0  0  0  0  0  0  0  0  0  0  0  0
    3.7518    6.9888   17.7112 N   0  0  0  0  0  0  0  0  0  0  0  0
    5.4999    7.6667   16.3344 O   0  0  0  0  0  0  0  0  0  0  0  0
    2.7776    6.5936   17.7465 H   0  0  0  0  0  0  0  0  0  0  0  0
    3.6143    6.8949   15.1544 C   0  0  0  0  0  0  0  0  0  0  0  0
    2.8654    4.4939   15.0840 C   0  0  0  0  0  0  0  0  0  0  0  0
    1.8659    4.8194   15.7928 O   0  0  0  0  0  0  0  0  0  0  0  0
    3.7601    5.5192   14.7432 N   0  0  0  0  0  0  0  0  0  0  0  0
    4.5923    5.2800   14.1548 H   0  0  0  0  0  0  0  0  0  0  0  0
    3.0149    3.0850   14.6727 C   0  0  0  0  0  0  0  0  0  0  0  0
    4.1249    2.3961   16.7647 C   0  0  0  0  0  0  0  0  0  0  0  0
    4.3344    1.5519   17.8285 C   0  0  0  0  0  0  0  0  0  0  0  0
    3.5832    0.3934   17.9450 C   0  0  0  0  0  0  0  0  0  0  0  0
    2.6537    0.1275   16.9914 C   0  0  0  0  0  0  0  0  0  0  0  0
    2.4356    0.9743   15.9146 C   0  0  0  0  0  0  0  0  0  0  0  0
    3.1685    2.1321   15.7751 C   0  0  0  0  0  0  0  0  0  0  0  0
    3.9551    7.8756   14.1012 C   0  0  0  0  0  0  0  0  0  0  0  0
    4.0570    7.4359   12.7014 C   0  0  0  0  0  0  0  0  0  0  0  0
    5.2811    7.8201   11.9352 C   0  0  0  0  0  0  0  0  0  0  0  0
    2.8947    8.1386   11.9626 C   0  0  0  0  0  0  0  0  0  0  0  0
    4.7674    6.1544   19.7787 C   0  0  0  0  0  0  0  0  0  0  0  0
    3.6861    5.5900   20.4983 N   0  0  0  0  0  0  0  0  0  0  0  0
    5.9439    5.7367   19.8458 O   0  0  0  0  0  0  0  0  0  0  0  0
    2.7386    5.9920   20.3681 H   0  0  0  0  0  0  0  0  0  0  0  0
    3.9153    4.4424   21.4163 C   0  0  0  0  0  0  0  0  0  0  0  0
    4.2065    4.8561   22.7754 C   0  0  0  0  0  0  0  0  0  0  0  0
    3.5396    4.2637   23.7021 O   0  0  0  0  0  0  0  0  0  0  0  0
    5.1133    5.8041   23.1824 O   0  0  0  0  0  0  0  0  0  0  0  0
    5.2591    6.0031   24.1428 H   0  0  0  0  0  0  0  0  0  0  0  0
    4.8901    3.5694   20.7160 C   0  0  0  0  0  0  0  0  0  0  0  0
    5.1009    2.1825   21.1826 C   0  0  0  0  0  0  0  0  0  0  0  0
    3.8255    1.4509   21.5472 C   0  0  0  0  0  0  0  0  0  0  0  0
    6.2427    1.9292   22.1028 C   0  0  0  0  0  0  0  0  0  0  0  0
    4.0534    8.5567   19.5630 C   0  0  0  0  0  0  0  0  0  0  0  0
    5.0889    9.2084   20.4281 C   0  0  0  0  0  0  0  0  0  0  0  0
    5.1214    9.1049   21.7908 C   0  0  0  0  0  0  0  0  0  0  0  0
    6.1123    9.7258   22.5635 C   0  0  0  0  0  0  0  0  0  0  0  0
    7.0997   10.4729   21.9564 C   0  0  0  0  0  0  0  0  0  0  0  0
    7.0781   10.5853   20.5862 C   0  0  0  0  0  0  0  0  0  0  0  0
    6.0907    9.9648   19.8282 C   0  0  0  0  0  0  0  0  0  0  0  0
 12 13  2  0  0  0
 13 14  1  0  0  0
 14 15  2  0  0  0
 15 16  1  0  0  0
 16 17  2  0  0  0
 17 11  1  0  0  0
 11  7  1  0  0  0
  7  8  2  0  0  0
  7  9  1  0  0  0
  9  6  1  0  0  0
  6  2  1  0  0  0
  2  3  1  0  0  0
  3  1  1  0  0  0
  1 35  1  0  0  0
 35 36  1  0  0  0
 36 37  2  0  0  0
 37 38  1  0  0  0
 38 39  2  0  0  0
 39 40  1  0  0  0
 40 41  2  0  0  0
  1 22  1  0  0  0
 22 23  1  0  0  0
 23 26  1  0  0  0
 26 27  1  0  0  0
 27 28  2  0  0  0
 27 29  1  0  0  0
 26 31  1  0  0  0
 31 32  1  0  0  0
 32 33  1  0  0  0
 32 34  1  0  0  0
 22 24  2  0  0  0
  2  4  2  0  0  0
  6 18  1  0  0  0
 18 19  1  0  0  0
 19 20  1  0  0  0
 19 21  1  0  0  0
 17 12  1  0  0  0
 41 36  1  0  0  0
  9 10  1  0  0  0
  3  5  1  0  0  0
 23 25  1  0  0  0
 29 30  1  0  0  0
M  END
> <minimizedAffinity>
-8.65419

> <CNNscore>
0.5184066892

> <CNNaffinity>
6.8869581223

> <CNN_VS>
3.5702452660

> <CNNaffinity_variance>
0.1152011305

$$$$
[H]OC(=O)[C@@]([H])(N([H])C(=O)[C@@]([H])(N([H])C(=O)[C@]([H])(N([H])C(=O)C([H])([H])c1c([H])c([H])c([H])c([H])c1[H])C([H])([H])C([H])(C([H])([H])[H])C([H])([H])[H])C([H])([H])c1c([H])c([H])c([H])c([H])c1[H])C([H])([H])C([H])(C([H])([H])[H])C([H])([H])[H]


 41 42  0  0  0  0  0  0  0  0999 V2000
    4.4577    4.3321   17.4422 C   0  0  0  0  0  0  0  0  0  0  0  0
    4.9256    5.7586   19.4301 C   0  0  0  0  0  0  0  0  0  0  0  0
    4.1819    4.7071   18.8092 N   0  0  0  0  0  0  0  0  0  0  0  0
    5.8260    6.3511   18.7351 O   0  0  0  0  0  0  0  0  0  0  0  0
    3.4451    4.2421   19.3986 H   0  0  0  0  0  0  0  0  0  0  0  0
    4.7262    6.2096   20.8121 C   0  0  0  0  0  0  0  0  0  0  0  0
    6.2573    7.8747   21.9138 C   0  0  0  0  0  0  0  0  0  0  0  0
    5.3712    8.7623   21.7286 O   0  0  0  0  0  0  0  0  0  0  0  0
    5.9582    6.5791   21.4668 N   0  0  0  0  0  0  0  0  0  0  0  0
    6.6699    5.8250   21.6106 H   0  0  0  0  0  0  0  0  0  0  0  0
    7.5185    8.2586   22.5761 C   0  0  0  0  0  0  0  0  0  0  0  0
    9.1021    6.4901   23.2455 C   0  0  0  0  0  0  0  0  0  0  0  0
   10.1704    5.6505   23.0408 C   0  0  0  0  0  0  0  0  0  0  0  0
   10.8518    5.6866   21.8348 C   0  0  0  0  0  0  0  0  0  0  0  0
   10.4359    6.5620   20.8837 C   0  0  0  0  0  0  0  0  0  0  0  0
    9.3583    7.4127   21.0820 C   0  0  0  0  0  0  0  0  0  0  0  0
    8.6639    7.3971   22.2713 C   0  0  0  0  0  0  0  0  0  0  0  0
    3.9023    5.2513   21.5801 C   0  0  0  0  0  0  0  0  0  0  0  0
    4.5268    4.4292   22.6277 C   0  0  0  0  0  0  0  0  0  0  0  0
    5.1548    3.1359   22.2201 C   0  0  0  0  0  0  0  0  0  0  0  0
    3.3749    4.0245   23.5762 C   0  0  0  0  0  0  0  0  0  0  0  0
    3.3271    4.6038   16.5156 C   0  0  0  0  0  0  0  0  0  0  0  0
    3.5795    4.6878   15.1247 N   0  0  0  0  0  0  0  0  0  0  0  0
    2.1974    4.7532   17.0300 O   0  0  0  0  0  0  0  0  0  0  0  0
    4.5475    4.5335   14.7850 H   0  0  0  0  0  0  0  0  0  0  0  0
    2.4713    4.9882   14.1793 C   0  0  0  0  0  0  0  0  0  0  0  0
    1.8015    6.2402   14.4741 C   0  0  0  0  0  0  0  0  0  0  0  0
    2.4644    7.3113   14.2137 O   0  0  0  0  0  0  0  0  0  0  0  0
    0.5422    6.4097   14.9957 O   0  0  0  0  0  0  0  0  0  0  0  0
    0.1591    7.3124   15.1420 H   0  0  0  0  0  0  0  0  0  0  0  0
    1.6604    3.7465   14.1194 C   0  0  0  0  0  0  0  0  0  0  0  0
    1.3895    3.1091   12.8132 C   0  0  0  0  0  0  0  0  0  0  0  0
    2.6229    2.5668   12.1207 C   0  0  0  0  0  0  0  0  0  0  0  0
    0.4160    3.7769   11.9073 C   0  0  0  0  0  0  0  0  0  0  0  0
    5.0903    2.9980   17.3153 C   0  0  0  0  0  0  0  0  0  0  0  0
    4.2154    1.8614   17.7491 C   0  0  0  0  0  0  0  0  0  0  0  0
    4.1050    1.4326   19.0424 C   0  0  0  0  0  0  0  0  0  0  0  0
    3.2693    0.3684   19.4076 C   0  0  0  0  0  0  0  0  0  0  0  0
    2.5221   -0.2873   18.4518 C   0  0  0  0  0  0  0  0  0  0  0  0
    2.6245    0.1340   17.1469 C   0  0  0  0  0  0  0  0  0  0  0  0
    3.4564    1.1916   16.7948 C   0  0  0  0  0  0  0  0  0  0  0  0
 12 13  2  0  0  0
 13 14  1  0  0  0
 14 15  2  0  0  0
 15 16  1  0  0  0
 16 17  2  0  0  0
 17 11  1  0  0  0
 11  7  1  0  0  0
  7  8  2  0  0  0
  7  9  1  0  0  0
  9  6  1  0  0  0
  6  2  1  0  0  0
  2  3  1  0  0  0
  3  1  1  0  0  0
  1 35  1  0  0  0
 35 36  1  0  0  0
 36 37  2  0  0  0
 37 38  1  0  0  0
 38 39  2  0  0  0
 39 40  1  0  0  0
 40 41  2  0  0  0
  1 22  1  0  0  0
 22 23  1  0  0  0
 23 26  1  0  0  0
 26 27  1  0  0  0
 27 28  2  0  0  0
 27 29  1  0  0  0
 26 31  1  0  0  0
 31 32  1  0  0  0
 32 33  1  0  0  0
 32 34  1  0  0  0
 22 24  2  0  0  0
  2  4  2  0  0  0
  6 18  1  0  0  0
 18 19  1  0  0  0
 19 20  1  0  0  0
 19 21  1  0  0  0
 17 12  1  0  0  0
 41 36  1  0  0  0
  9 10  1  0  0  0
  3  5  1  0  0  0
 23 25  1  0  0  0
 29 30  1  0  0  0
M  END
> <minimizedAffinity>
-7.95852

> <CNNscore>
0.5156035423

> <CNNaffinity>
6.8086938858

> <CNN_VS>
3.5105867386

> <CNNaffinity_variance>
0.1214984432

$$$$
[H]OC(=O)[C@@]([H])(N([H])C(=O)[C@@]([H])(N([H])C(=O)[C@]([H])(N([H])C(=O)C([H])([H])c1c([H])c([H])c([H])c([H])c1[H])C([H])([H])C([H])(C([H])([H])[H])C([H])([H])[H])C([H])([H])c1c([H])c([H])c([H])c([H])c1[H])C([H])([H])C([H])(C([H])([H])[H])C([H])([H])[H]


 41 42  0  0  0  0  0  0  0  0999 V2000
    4.3889    5.2472   16.6898 C   0  0  0  0  0  0  0  0  0  0  0  0
    4.8460    6.9150   18.4829 C   0  0  0  0  0  0  0  0  0  0  0  0
    4.2337    5.6965   18.0535 N   0  0  0  0  0  0  0  0  0  0  0  0
    5.5199    7.5862   17.6226 O   0  0  0  0  0  0  0  0  0  0  0  0
    3.6814    5.1686   18.7766 H   0  0  0  0  0  0  0  0  0  0  0  0
    4.7532    7.4534   19.8448 C   0  0  0  0  0  0  0  0  0  0  0  0
    4.9443    5.8677   21.7889 C   0  0  0  0  0  0  0  0  0  0  0  0
    6.1768    6.1560   21.8604 O   0  0  0  0  0  0  0  0  0  0  0  0
    4.2015    6.5093   20.7867 N   0  0  0  0  0  0  0  0  0  0  0  0
    3.1802    6.2935   20.7072 H   0  0  0  0  0  0  0  0  0  0  0  0
    4.3861    4.8960   22.7486 C   0  0  0  0  0  0  0  0  0  0  0  0
    5.7326    3.0826   21.7577 C   0  0  0  0  0  0  0  0  0  0  0  0
    5.9514    1.7848   21.3627 C   0  0  0  0  0  0  0  0  0  0  0  0
    4.9668    0.8304   21.5614 C   0  0  0  0  0  0  0  0  0  0  0  0
    3.8034    1.2147   22.1470 C   0  0  0  0  0  0  0  0  0  0  0  0
    3.5744    2.5224   22.5490 C   0  0  0  0  0  0  0  0  0  0  0  0
    4.5364    3.4904   22.3631 C   0  0  0  0  0  0  0  0  0  0  0  0
    4.0888    8.7745   19.8600 C   0  0  0  0  0  0  0  0  0  0  0  0
    4.8456    9.9662   20.2730 C   0  0  0  0  0  0  0  0  0  0  0  0
    5.9043   10.4766   19.3500 C   0  0  0  0  0  0  0  0  0  0  0  0
    5.6077    9.5483   21.5516 C   0  0  0  0  0  0  0  0  0  0  0  0
    3.1359    5.3318   15.8940 C   0  0  0  0  0  0  0  0  0  0  0  0
    3.2192    5.5363   14.4951 N   0  0  0  0  0  0  0  0  0  0  0  0
    2.0593    5.2231   16.5203 O   0  0  0  0  0  0  0  0  0  0  0  0
    4.1574    5.5986   14.0569 H   0  0  0  0  0  0  0  0  0  0  0  0
    1.9803    5.6544   13.6805 C   0  0  0  0  0  0  0  0  0  0  0  0
    1.1260    6.7457   14.1073 C   0  0  0  0  0  0  0  0  0  0  0  0
    1.4960    7.9256   13.7529 O   0  0  0  0  0  0  0  0  0  0  0  0
   -0.0312    6.6606   14.8423 O   0  0  0  0  0  0  0  0  0  0  0  0
   -0.5626    7.4669   15.0674 H   0  0  0  0  0  0  0  0  0  0  0  0
    1.4112    4.2846   13.6326 C   0  0  0  0  0  0  0  0  0  0  0  0
    1.9896    3.2811   12.7138 C   0  0  0  0  0  0  0  0  0  0  0  0
    2.3730    3.8326   11.3559 C   0  0  0  0  0  0  0  0  0  0  0  0
    1.3596    1.9334   12.6775 C   0  0  0  0  0  0  0  0  0  0  0  0
    5.1443    3.9777   16.5720 C   0  0  0  0  0  0  0  0  0  0  0  0
    4.3119    2.7484   16.7751 C   0  0  0  0  0  0  0  0  0  0  0  0
    3.5782    2.1508   15.7886 C   0  0  0  0  0  0  0  0  0  0  0  0
    2.8170    0.9968   16.0190 C   0  0  0  0  0  0  0  0  0  0  0  0
    2.7875    0.4233   17.2727 C   0  0  0  0  0  0  0  0  0  0  0  0
    3.5209    1.0149   18.2741 C   0  0  0  0  0  0  0  0  0  0  0  0
    4.2737    2.1599   18.0351 C   0  0  0  0  0  0  0  0  0  0  0  0
 12 13  2  0  0  0
 13 14  1  0  0  0
 14 15  2  0  0  0
 15 16  1  0  0  0
 16 17  2  0  0  0
 17 11  1  0  0  0
 11  7  1  0  0  0
  7  8  2  0  0  0
  7  9  1  0  0  0
  9  6  1  0  0  0
  6  2  1  0  0  0
  2  3  1  0  0  0
  3  1  1  0  0  0
  1 35  1  0  0  0
 35 36  1  0  0  0
 36 37  2  0  0  0
 37 38  1  0  0  0
 38 39  2  0  0  0
 39 40  1  0  0  0
 40 41  2  0  0  0
  1 22  1  0  0  0
 22 23  1  0  0  0
 23 26  1  0  0  0
 26 27  1  0  0  0
 27 28  2  0  0  0
 27 29  1  0  0  0
 26 31  1  0  0  0
 31 32  1  0  0  0
 32 33  1  0  0  0
 32 34  1  0  0  0
 22 24  2  0  0  0
  2  4  2  0  0  0
  6 18  1  0  0  0
 18 19  1  0  0  0
 19 20  1  0  0  0
 19 21  1  0  0  0
 17 12  1  0  0  0
 41 36  1  0  0  0
  9 10  1  0  0  0
  3  5  1  0  0  0
 23 25  1  0  0  0
 29 30  1  0  0  0
M  END
> <minimizedAffinity>
-8.63858

> <CNNscore>
0.4931333065

> <CNNaffinity>
6.8084998131

> <CNN_VS>
3.3574979305

> <CNNaffinity_variance>
0.1175426692

$$$$
[H]OC(=O)[C@@]([H])(N([H])C(=O)[C@@]([H])(N([H])C(=O)[C@]([H])(N([H])C(=O)C([H])([H])c1c([H])c([H])c([H])c([H])c1[H])C([H])([H])C([H])(C([H])([H])[H])C([H])([H])[H])C([H])([H])c1c([H])c([H])c([H])c([H])c1[H])C([H])([H])C([H])(C([H])([H])[H])C([H])([H])[H]


 41 42  0  0  0  0  0  0  0  0999 V2000
    4.0347    6.3687   17.3881 C   0  0  0  0  0  0  0  0  0  0  0  0
    5.4712    6.7133   19.3940 C   0  0  0  0  0  0  0  0  0  0  0  0
    4.2151    6.8719   18.7297 N   0  0  0  0  0  0  0  0  0  0  0  0
    6.4177    6.1242   18.7600 O   0  0  0  0  0  0  0  0  0  0  0  0
    3.4578    7.3641   19.2690 H   0  0  0  0  0  0  0  0  0  0  0  0
    5.7530    7.1828   20.7554 C   0  0  0  0  0  0  0  0  0  0  0  0
    4.7043    5.2400   21.9621 C   0  0  0  0  0  0  0  0  0  0  0  0
    3.6614    5.4105   21.2617 O   0  0  0  0  0  0  0  0  0  0  0  0
    5.7752    6.1146   21.7257 N   0  0  0  0  0  0  0  0  0  0  0  0
    6.6509    5.9942   22.2866 H   0  0  0  0  0  0  0  0  0  0  0  0
    4.7198    4.1519   22.9585 C   0  0  0  0  0  0  0  0  0  0  0  0
    6.0218    2.3358   21.9148 C   0  0  0  0  0  0  0  0  0  0  0  0
    6.1724    1.0836   21.3694 C   0  0  0  0  0  0  0  0  0  0  0  0
    5.0803    0.2350   21.2844 C   0  0  0  0  0  0  0  0  0  0  0  0
    3.8824    0.6752   21.7483 C   0  0  0  0  0  0  0  0  0  0  0  0
    3.7218    1.9375   22.3005 C   0  0  0  0  0  0  0  0  0  0  0  0
    4.7909    2.8004   22.3969 C   0  0  0  0  0  0  0  0  0  0  0  0
    4.8782    8.3151   21.1289 C   0  0  0  0  0  0  0  0  0  0  0  0
    5.4560    9.6567   21.3008 C   0  0  0  0  0  0  0  0  0  0  0  0
    6.4590   10.1200   20.2945 C   0  0  0  0  0  0  0  0  0  0  0  0
    6.2350    9.6026   22.6352 C   0  0  0  0  0  0  0  0  0  0  0  0
    4.0973    7.4280   16.3467 C   0  0  0  0  0  0  0  0  0  0  0  0
    4.2200    7.0525   14.9867 N   0  0  0  0  0  0  0  0  0  0  0  0
    4.0446    8.6132   16.7412 O   0  0  0  0  0  0  0  0  0  0  0  0
    4.2395    6.0427   14.7497 H   0  0  0  0  0  0  0  0  0  0  0  0
    4.3146    8.0930   13.9281 C   0  0  0  0  0  0  0  0  0  0  0  0
    5.5090    8.9075   14.0423 C   0  0  0  0  0  0  0  0  0  0  0  0
    5.3502   10.1719   13.8669 O   0  0  0  0  0  0  0  0  0  0  0  0
    6.7853    8.4820   14.3186 O   0  0  0  0  0  0  0  0  0  0  0  0
    7.5387    9.1216   14.3994 H   0  0  0  0  0  0  0  0  0  0  0  0
    2.9929    8.7682   13.9236 C   0  0  0  0  0  0  0  0  0  0  0  0
    1.9516    8.3371   12.9668 C   0  0  0  0  0  0  0  0  0  0  0  0
    0.9393    7.3707   13.5466 C   0  0  0  0  0  0  0  0  0  0  0  0
    2.3785    8.0236   11.5761 C   0  0  0  0  0  0  0  0  0  0  0  0
    2.9119    5.4091   17.2667 C   0  0  0  0  0  0  0  0  0  0  0  0
    3.3297    3.9704   17.2969 C   0  0  0  0  0  0  0  0  0  0  0  0
    4.0600    3.4078   18.3064 C   0  0  0  0  0  0  0  0  0  0  0  0
    4.4251    2.0547   18.2995 C   0  0  0  0  0  0  0  0  0  0  0  0
    4.0501    1.2397   17.2522 C   0  0  0  0  0  0  0  0  0  0  0  0
    3.3158    1.7934   16.2301 C   0  0  0  0  0  0  0  0  0  0  0  0
    2.9578    3.1373   16.2467 C   0  0  0  0  0  0  0  0  0  0  0  0
 12 13  2  0  0  0
 13 14  1  0  0  0
 14 15  2  0  0  0
 15 16  1  0  0  0
 16 17  2  0  0  0
 17 11  1  0  0  0
 11  7  1  0  0  0
  7  8  2  0  0  0
  7  9  1  0  0  0
  9  6  1  0  0  0
  6  2  1  0  0  0
  2  3  1  0  0  0
  3  1  1  0  0  0
  1 35  1  0  0  0
 35 36  1  0  0  0
 36 37  2  0  0  0
 37 38  1  0  0  0
 38 39  2  0  0  0
 39 40  1  0  0  0
 40 41  2  0  0  0
  1 22  1  0  0  0
 22 23  1  0  0  0
 23 26  1  0  0  0
 26 27  1  0  0  0
 27 28  2  0  0  0
 27 29  1  0  0  0
 26 31  1  0  0  0
 31 32  1  0  0  0
 32 33  1  0  0  0
 32 34  1  0  0  0
 22 24  2  0  0  0
  2  4  2  0  0  0
  6 18  1  0  0  0
 18 19  1  0  0  0
 19 20  1  0  0  0
 19 21  1  0  0  0
 17 12  1  0  0  0
 41 36  1  0  0  0
  9 10  1  0  0  0
  3  5  1  0  0  0
 23 25  1  0  0  0
 29 30  1  0  0  0
M  END
> <minimizedAffinity>
-8.33881

> <CNNscore>
0.4473610222

> <CNNaffinity>
6.5482659340

> <CNN_VS>
2.9294388294

> <CNNaffinity_variance>
0.2238526344

$$$$
[H]OC(=O)[C@@]([H])(N([H])C(=O)[C@@]([H])(N([H])C(=O)[C@]([H])(N([H])C(=O)C([H])([H])c1c([H])c([H])c([H])c([H])c1[H])C([H])([H])C([H])(C([H])([H])[H])C([H])([H])[H])C([H])([H])c1c([H])c([H])c([H])c([H])c1[H])C([H])([H])C([H])(C([H])([H])[H])C([H])([H])[H]


 41 42  0  0  0  0  0  0  0  0999 V2000
    4.2821    5.5208   16.8199 C   0  0  0  0  0  0  0  0  0  0  0  0
    2.4760    5.3529   15.1124 C   0  0  0  0  0  0  0  0  0  0  0  0
    3.8562    5.5316   15.4400 N   0  0  0  0  0  0  0  0  0  0  0  0
    1.6441    5.1937   16.0754 O   0  0  0  0  0  0  0  0  0  0  0  0
    4.5166    5.6666   14.6324 H   0  0  0  0  0  0  0  0  0  0  0  0
    1.9442    5.3421   13.7448 C   0  0  0  0  0  0  0  0  0  0  0  0
   -0.1513    6.5339   13.0245 C   0  0  0  0  0  0  0  0  0  0  0  0
    0.5760    7.3766   12.4178 O   0  0  0  0  0  0  0  0  0  0  0  0
    0.5100    5.4958   13.6975 N   0  0  0  0  0  0  0  0  0  0  0  0
   -0.0658    4.7829   14.2036 H   0  0  0  0  0  0  0  0  0  0  0  0
   -1.6167    6.6993   12.9803 C   0  0  0  0  0  0  0  0  0  0  0  0
   -3.7092    5.8546   11.9847 C   0  0  0  0  0  0  0  0  0  0  0  0
   -4.4339    5.0652   11.1245 C   0  0  0  0  0  0  0  0  0  0  0  0
   -3.7751    4.2047   10.2612 C   0  0  0  0  0  0  0  0  0  0  0  0
   -2.4180    4.1693   10.2950 C   0  0  0  0  0  0  0  0  0  0  0  0
   -1.6789    4.9629   11.1599 C   0  0  0  0  0  0  0  0  0  0  0  0
   -2.3089    5.8268   12.0281 C   0  0  0  0  0  0  0  0  0  0  0  0
    2.4495    4.1833   12.9773 C   0  0  0  0  0  0  0  0  0  0  0  0
    1.5947    3.0000   12.7969 C   0  0  0  0  0  0  0  0  0  0  0  0
    1.6012    1.9624   13.8724 C   0  0  0  0  0  0  0  0  0  0  0  0
    2.1507    2.2757   11.5493 C   0  0  0  0  0  0  0  0  0  0  0  0
    4.5459    6.8779   17.3671 C   0  0  0  0  0  0  0  0  0  0  0  0
    3.6047    7.4610   18.2502 N   0  0  0  0  0  0  0  0  0  0  0  0
    5.6012    7.4400   17.0019 O   0  0  0  0  0  0  0  0  0  0  0  0
    2.7632    6.9136   18.5119 H   0  0  0  0  0  0  0  0  0  0  0  0
    3.8303    8.8292   18.7881 C   0  0  0  0  0  0  0  0  0  0  0  0
    3.7881    9.8532   17.7620 C   0  0  0  0  0  0  0  0  0  0  0  0
    4.8405   10.5841   17.6488 O   0  0  0  0  0  0  0  0  0  0  0  0
    2.7553   10.1270   16.8990 O   0  0  0  0  0  0  0  0  0  0  0  0
    2.8291   10.8375   16.2113 H   0  0  0  0  0  0  0  0  0  0  0  0
    5.0450    8.7220   19.6342 C   0  0  0  0  0  0  0  0  0  0  0  0
    4.9229    8.2870   21.0419 C   0  0  0  0  0  0  0  0  0  0  0  0
    5.4662    9.2817   22.0470 C   0  0  0  0  0  0  0  0  0  0  0  0
    5.2277    6.8644   21.3542 C   0  0  0  0  0  0  0  0  0  0  0  0
    5.3134    4.4965   17.1084 C   0  0  0  0  0  0  0  0  0  0  0  0
    4.7674    3.2181   17.6679 C   0  0  0  0  0  0  0  0  0  0  0  0
    4.1586    2.2531   16.9151 C   0  0  0  0  0  0  0  0  0  0  0  0
    3.6666    1.0671   17.4771 C   0  0  0  0  0  0  0  0  0  0  0  0
    3.7859    0.8392   18.8319 C   0  0  0  0  0  0  0  0  0  0  0  0
    4.3959    1.8024   19.6006 C   0  0  0  0  0  0  0  0  0  0  0  0
    4.8814    2.9757   19.0330 C   0  0  0  0  0  0  0  0  0  0  0  0
 12 13  2  0  0  0
 13 14  1  0  0  0
 14 15  2  0  0  0
 15 16  1  0  0  0
 16 17  2  0  0  0
 17 11  1  0  0  0
 11  7  1  0  0  0
  7  8  2  0  0  0
  7  9  1  0  0  0
  9  6  1  0  0  0
  6  2  1  0  0  0
  2  3  1  0  0  0
  3  1  1  0  0  0
  1 35  1  0  0  0
 35 36  1  0  0  0
 36 37  2  0  0  0
 37 38  1  0  0  0
 38 39  2  0  0  0
 39 40  1  0  0  0
 40 41  2  0  0  0
  1 22  1  0  0  0
 22 23  1  0  0  0
 23 26  1  0  0  0
 26 27  1  0  0  0
 27 28  2  0  0  0
 27 29  1  0  0  0
 26 31  1  0  0  0
 31 32  1  0  0  0
 32 33  1  0  0  0
 32 34  1  0  0  0
 22 24  2  0  0  0
  2  4  2  0  0  0
  6 18  1  0  0  0
 18 19  1  0  0  0
 19 20  1  0  0  0
 19 21  1  0  0  0
 17 12  1  0  0  0
 41 36  1  0  0  0
  9 10  1  0  0  0
  3  5  1  0  0  0
 23 25  1  0  0  0
 29 30  1  0  0  0
M  END
> <minimizedAffinity>
-7.85141

> <CNNscore>
0.4369522631

> <CNNaffinity>
6.3370270729

> <CNN_VS>
2.7689783573

> <CNNaffinity_variance>
0.2449322194

$$$$
[H]OC(=O)[C@@]([H])(N([H])C(=O)[C@@]([H])(N([H])C(=O)[C@]([H])(N([H])C(=O)C([H])([H])c1c([H])c([H])c([H])c([H])c1[H])C([H])([H])C([H])(C([H])([H])[H])C([H])([H])[H])C([H])([H])c1c([H])c([H])c([H])c([H])c1[H])C([H])([H])C([H])(C([H])([H])[H])C([H])([H])[H]


 41 42  0  0  0  0  0  0  0  0999 V2000
    5.4560    6.0823   21.9517 C   0  0  0  0  0  0  0  0  0  0  0  0
    4.5180    7.2272   19.9480 C   0  0  0  0  0  0  0  0  0  0  0  0
    4.9398    6.0289   20.6040 N   0  0  0  0  0  0  0  0  0  0  0  0
    4.6218    8.3332   20.5888 O   0  0  0  0  0  0  0  0  0  0  0  0
    4.8503    5.1365   20.0543 H   0  0  0  0  0  0  0  0  0  0  0  0
    3.9752    7.2783   18.5857 C   0  0  0  0  0  0  0  0  0  0  0  0
    3.8064    5.4153   16.9030 C   0  0  0  0  0  0  0  0  0  0  0  0
    2.5448    5.5314   16.9503 O   0  0  0  0  0  0  0  0  0  0  0  0
    4.5526    6.2849   17.7123 N   0  0  0  0  0  0  0  0  0  0  0  0
    5.5968    6.2144   17.6901 H   0  0  0  0  0  0  0  0  0  0  0  0
    4.3922    4.3931   16.0149 C   0  0  0  0  0  0  0  0  0  0  0  0
    3.1688    2.3232   15.4655 C   0  0  0  0  0  0  0  0  0  0  0  0
    2.7727    1.0277   15.6959 C   0  0  0  0  0  0  0  0  0  0  0  0
    3.2248    0.3609   16.8231 C   0  0  0  0  0  0  0  0  0  0  0  0
    4.0543    1.0185   17.6736 C   0  0  0  0  0  0  0  0  0  0  0  0
    4.4593    2.3259   17.4484 C   0  0  0  0  0  0  0  0  0  0  0  0
    4.0246    3.0115   16.3358 C   0  0  0  0  0  0  0  0  0  0  0  0
    4.0127    8.6523   18.0398 C   0  0  0  0  0  0  0  0  0  0  0  0
    4.9168    8.9686   16.9236 C   0  0  0  0  0  0  0  0  0  0  0  0
    6.1883    9.6888   17.2363 C   0  0  0  0  0  0  0  0  0  0  0  0
    4.1279    9.9406   16.0163 C   0  0  0  0  0  0  0  0  0  0  0  0
    6.9172    6.3500   22.0143 C   0  0  0  0  0  0  0  0  0  0  0  0
    7.4979    6.7249   23.2503 N   0  0  0  0  0  0  0  0  0  0  0  0
    7.5599    6.2339   20.9482 O   0  0  0  0  0  0  0  0  0  0  0  0
    6.8896    6.7802   24.0888 H   0  0  0  0  0  0  0  0  0  0  0  0
    8.9518    7.0273   23.3335 C   0  0  0  0  0  0  0  0  0  0  0  0
    9.6072    6.3498   24.4356 C   0  0  0  0  0  0  0  0  0  0  0  0
   10.5105    5.4918   24.1152 O   0  0  0  0  0  0  0  0  0  0  0  0
    9.3742    6.5231   25.7780 O   0  0  0  0  0  0  0  0  0  0  0  0
    9.8926    6.0268   26.4622 H   0  0  0  0  0  0  0  0  0  0  0  0
    9.0496    8.5059   23.2505 C   0  0  0  0  0  0  0  0  0  0  0  0
    8.0312    9.3472   23.9145 C   0  0  0  0  0  0  0  0  0  0  0  0
    7.3044   10.2932   22.9807 C   0  0  0  0  0  0  0  0  0  0  0  0
    8.3742    9.9302   25.2400 C   0  0  0  0  0  0  0  0  0  0  0  0
    4.9637    4.9816   22.8133 C   0  0  0  0  0  0  0  0  0  0  0  0
    5.1958    3.6124   22.2504 C   0  0  0  0  0  0  0  0  0  0  0  0
    6.4154    2.9955   22.2197 C   0  0  0  0  0  0  0  0  0  0  0  0
    6.5888    1.7098   21.6894 C   0  0  0  0  0  0  0  0  0  0  0  0
    5.5115    1.0203   21.1738 C   0  0  0  0  0  0  0  0  0  0  0  0
    4.2793    1.6299   21.1982 C   0  0  0  0  0  0  0  0  0  0  0  0
    4.1175    2.9060   21.7272 C   0  0  0  0  0  0  0  0  0  0  0  0
 12 13  2  0  0  0
 13 14  1  0  0  0
 14 15  2  0  0  0
 15 16  1  0  0  0
 16 17  2  0  0  0
 17 11  1  0  0  0
 11  7  1  0  0  0
  7  8  2  0  0  0
  7  9  1  0  0  0
  9  6  1  0  0  0
  6  2  1  0  0  0
  2  3  1  0  0  0
  3  1  1  0  0  0
  1 35  1  0  0  0
 35 36  1  0  0  0
 36 37  2  0  0  0
 37 38  1  0  0  0
 38 39  2  0  0  0
 39 40  1  0  0  0
 40 41  2  0  0  0
  1 22  1  0  0  0
 22 23  1  0  0  0
 23 26  1  0  0  0
 26 27  1  0  0  0
 27 28  2  0  0  0
 27 29  1  0  0  0
 26 31  1  0  0  0
 31 32  1  0  0  0
 32 33  1  0  0  0
 32 34  1  0  0  0
 22 24  2  0  0  0
  2  4  2  0  0  0
  6 18  1  0  0  0
 18 19  1  0  0  0
 19 20  1  0  0  0
 19 21  1  0  0  0
 17 12  1  0  0  0
 41 36  1  0  0  0
  9 10  1  0  0  0
  3  5  1  0  0  0
 23 25  1  0  0  0
 29 30  1  0  0  0
M  END
> <minimizedAffinity>
-8.23168

> <CNNscore>
0.4320177436

> <CNNaffinity>
6.6649641991

> <CNN_VS>
2.8793828487

> <CNNaffinity_variance>
0.0565826297

$$$$
[H]OC(=O)[C@@]([H])(N([H])C(=O)[C@@]([H])(N([H])C(=O)[C@]([H])(N([H])C(=O)C([H])([H])c1c([H])c([H])c([H])c([H])c1[H])C([H])([H])C([H])(C([H])([H])[H])C([H])([H])[H])C([H])([H])c1c([H])c([H])c([H])c([H])c1[H])C([H])([H])C([H])(C([H])([H])[H])C([H])([H])[H]


 41 42  0  0  0  0  0  0  0  0999 V2000
    5.0080    6.0117   22.0597 C   0  0  0  0  0  0  0  0  0  0  0  0
    4.3945    7.2704   19.9994 C   0  0  0  0  0  0  0  0  0  0  0  0
    4.5416    6.0289   20.6931 N   0  0  0  0  0  0  0  0  0  0  0  0
    4.6955    8.3490   20.6246 O   0  0  0  0  0  0  0  0  0  0  0  0
    4.2943    5.1590   20.1558 H   0  0  0  0  0  0  0  0  0  0  0  0
    3.9236    7.3949   18.6152 C   0  0  0  0  0  0  0  0  0  0  0  0
    3.8597    5.4074   17.0736 C   0  0  0  0  0  0  0  0  0  0  0  0
    2.6142    5.3190   17.2928 O   0  0  0  0  0  0  0  0  0  0  0  0
    4.5442    6.4460   17.7223 N   0  0  0  0  0  0  0  0  0  0  0  0
    5.5730    6.5456   17.5562 H   0  0  0  0  0  0  0  0  0  0  0  0
    4.4916    4.4304   16.1664 C   0  0  0  0  0  0  0  0  0  0  0  0
    4.3164    2.2731   17.3488 C   0  0  0  0  0  0  0  0  0  0  0  0
    3.8613    0.9857   17.5031 C   0  0  0  0  0  0  0  0  0  0  0  0
    3.0149    0.4373   16.5530 C   0  0  0  0  0  0  0  0  0  0  0  0
    2.6592    1.2001   15.4873 C   0  0  0  0  0  0  0  0  0  0  0  0
    3.1137    2.5005   15.3241 C   0  0  0  0  0  0  0  0  0  0  0  0
    3.9558    3.0694   16.2536 C   0  0  0  0  0  0  0  0  0  0  0  0
    3.9915    8.7952   18.1447 C   0  0  0  0  0  0  0  0  0  0  0  0
    4.7501    9.1188   16.9268 C   0  0  0  0  0  0  0  0  0  0  0  0
    6.0726    9.7963   17.0862 C   0  0  0  0  0  0  0  0  0  0  0  0
    3.8781   10.1364   16.1557 C   0  0  0  0  0  0  0  0  0  0  0  0
    6.4503    6.3462   22.1957 C   0  0  0  0  0  0  0  0  0  0  0  0
    6.8970    7.0141   23.3619 N   0  0  0  0  0  0  0  0  0  0  0  0
    7.1989    6.0185   21.2494 O   0  0  0  0  0  0  0  0  0  0  0  0
    6.2066    7.2326   24.1048 H   0  0  0  0  0  0  0  0  0  0  0  0
    8.3294    7.3866   23.5093 C   0  0  0  0  0  0  0  0  0  0  0  0
    8.7171    8.4893   22.6508 C   0  0  0  0  0  0  0  0  0  0  0  0
    9.1124    9.5583   23.2471 O   0  0  0  0  0  0  0  0  0  0  0  0
    8.7121    8.5189   21.2777 O   0  0  0  0  0  0  0  0  0  0  0  0
    9.0188    9.3169   20.7754 H   0  0  0  0  0  0  0  0  0  0  0  0
    9.0787    6.1096   23.4062 C   0  0  0  0  0  0  0  0  0  0  0  0
   10.5179    6.1283   23.0687 C   0  0  0  0  0  0  0  0  0  0  0  0
   10.8796    5.3026   21.8512 C   0  0  0  0  0  0  0  0  0  0  0  0
   11.4917    6.0342   24.1901 C   0  0  0  0  0  0  0  0  0  0  0  0
    4.5444    4.8295   22.8238 C   0  0  0  0  0  0  0  0  0  0  0  0
    5.0036    3.5184   22.2620 C   0  0  0  0  0  0  0  0  0  0  0  0
    6.2549    3.0019   22.4522 C   0  0  0  0  0  0  0  0  0  0  0  0
    6.6429    1.7673   21.9140 C   0  0  0  0  0  0  0  0  0  0  0  0
    5.7543    1.0273   21.1627 C   0  0  0  0  0  0  0  0  0  0  0  0
    4.4925    1.5360   20.9635 C   0  0  0  0  0  0  0  0  0  0  0  0
    4.1169    2.7620   21.5025 C   0  0  0  0  0  0  0  0  0  0  0  0
 12 13  2  0  0  0
 13 14  1  0  0  0
 14 15  2  0  0  0
 15 16  1  0  0  0
 16 17  2  0  0  0
 17 11  1  0  0  0
 11  7  1  0  0  0
  7  8  2  0  0  0
  7  9  1  0  0  0
  9  6  1  0  0  0
  6  2  1  0  0  0
  2  3  1  0  0  0
  3  1  1  0  0  0
  1 35  1  0  0  0
 35 36  1  0  0  0
 36 37  2  0  0  0
 37 38  1  0  0  0
 38 39  2  0  0  0
 39 40  1  0  0  0
 40 41  2  0  0  0
  1 22  1  0  0  0
 22 23  1  0  0  0
 23 26  1  0  0  0
 26 27  1  0  0  0
 27 28  2  0  0  0
 27 29  1  0  0  0
 26 31  1  0  0  0
 31 32  1  0  0  0
 32 33  1  0  0  0
 32 34  1  0  0  0
 22 24  2  0  0  0
  2  4  2  0  0  0
  6 18  1  0  0  0
 18 19  1  0  0  0
 19 20  1  0  0  0
 19 21  1  0  0  0
 17 12  1  0  0  0
 41 36  1  0  0  0
  9 10  1  0  0  0
  3  5  1  0  0  0
 23 25  1  0  0  0
 29 30  1  0  0  0
M  END
> <minimizedAffinity>
-8.43670

> <CNNscore>
0.4088173807

> <CNNaffinity>
6.5782737732

> <CNN_VS>
2.6893126965

> <CNNaffinity_variance>
0.0996219665

$$$$
[H]OC(=O)[C@@]([H])(N([H])C(=O)[C@@]([H])(N([H])C(=O)[C@]([H])(N([H])C(=O)C([H])([H])c1c([H])c([H])c([H])c([H])c1[H])C([H])([H])C([H])(C([H])([H])[H])C([H])([H])[H])C([H])([H])c1c([H])c([H])c([H])c([H])c1[H])C([H])([H])C([H])(C([H])([H])[H])C([H])([H])[H]


 41 42  0  0  0  0  0  0  0  0999 V2000
    4.0452    4.7366   16.4651 C   0  0  0  0  0  0  0  0  0  0  0  0
    4.4033    6.6904   17.9686 C   0  0  0  0  0  0  0  0  0  0  0  0
    3.9850    5.3366   17.7774 N   0  0  0  0  0  0  0  0  0  0  0  0
    4.8190    7.3425   16.9456 O   0  0  0  0  0  0  0  0  0  0  0  0
    3.6423    4.8262   18.6310 H   0  0  0  0  0  0  0  0  0  0  0  0
    4.3864    7.3877   19.2596 C   0  0  0  0  0  0  0  0  0  0  0  0
    4.8307    6.1422   21.4001 C   0  0  0  0  0  0  0  0  0  0  0  0
    6.0205    6.5789   21.3686 O   0  0  0  0  0  0  0  0  0  0  0  0
    3.9840    6.5368   20.3536 N   0  0  0  0  0  0  0  0  0  0  0  0
    2.9946    6.1946   20.3563 H   0  0  0  0  0  0  0  0  0  0  0  0
    4.4258    5.2661   22.5160 C   0  0  0  0  0  0  0  0  0  0  0  0
    5.9146    3.4397   21.7874 C   0  0  0  0  0  0  0  0  0  0  0  0
    6.2248    2.1217   21.5535 C   0  0  0  0  0  0  0  0  0  0  0  0
    5.2909    1.1362   21.8299 C   0  0  0  0  0  0  0  0  0  0  0  0
    4.0846    1.5108   22.3285 C   0  0  0  0  0  0  0  0  0  0  0  0
    3.7634    2.8389   22.5678 C   0  0  0  0  0  0  0  0  0  0  0  0
    4.6735    3.8379   22.3019 C   0  0  0  0  0  0  0  0  0  0  0  0
    3.6332    8.6578   19.1784 C   0  0  0  0  0  0  0  0  0  0  0  0
    4.3317    9.9343   19.3933 C   0  0  0  0  0  0  0  0  0  0  0  0
    5.4148   10.3087   18.4341 C   0  0  0  0  0  0  0  0  0  0  0  0
    5.0472    9.7888   20.7561 C   0  0  0  0  0  0  0  0  0  0  0  0
    2.7318    4.7061   15.7689 C   0  0  0  0  0  0  0  0  0  0  0  0
    2.6914    4.4129   14.3840 N   0  0  0  0  0  0  0  0  0  0  0  0
    1.7195    4.9539   16.4594 O   0  0  0  0  0  0  0  0  0  0  0  0
    3.5815    4.2030   13.8942 H   0  0  0  0  0  0  0  0  0  0  0  0
    1.3934    4.4055   13.6577 C   0  0  0  0  0  0  0  0  0  0  0  0
    1.0908    3.1213   13.0556 C   0  0  0  0  0  0  0  0  0  0  0  0
    1.3002    3.0267   11.7900 O   0  0  0  0  0  0  0  0  0  0  0  0
    0.6102    1.9983   13.6836 O   0  0  0  0  0  0  0  0  0  0  0  0
    0.4547    1.1538   13.1878 H   0  0  0  0  0  0  0  0  0  0  0  0
    1.4247    5.6075   12.7877 C   0  0  0  0  0  0  0  0  0  0  0  0
    0.7935    6.8629   13.2472 C   0  0  0  0  0  0  0  0  0  0  0  0
    1.7777    7.9206   13.7029 C   0  0  0  0  0  0  0  0  0  0  0  0
   -0.4292    6.7537   14.0884 C   0  0  0  0  0  0  0  0  0  0  0  0
    4.8238    3.4762   16.4307 C   0  0  0  0  0  0  0  0  0  0  0  0
    4.0698    2.2768   16.9189 C   0  0  0  0  0  0  0  0  0  0  0  0
    3.3225    1.4639   16.1130 C   0  0  0  0  0  0  0  0  0  0  0  0
    2.6368    0.3467   16.6091 C   0  0  0  0  0  0  0  0  0  0  0  0
    2.6991    0.0330   17.9505 C   0  0  0  0  0  0  0  0  0  0  0  0
    3.4471    0.8431   18.7720 C   0  0  0  0  0  0  0  0  0  0  0  0
    4.1245    1.9492   18.2699 C   0  0  0  0  0  0  0  0  0  0  0  0
 12 13  2  0  0  0
 13 14  1  0  0  0
 14 15  2  0  0  0
 15 16  1  0  0  0
 16 17  2  0  0  0
 17 11  1  0  0  0
 11  7  1  0  0  0
  7  8  2  0  0  0
  7  9  1  0  0  0
  9  6  1  0  0  0
  6  2  1  0  0  0
  2  3  1  0  0  0
  3  1  1  0  0  0
  1 35  1  0  0  0
 35 36  1  0  0  0
 36 37  2  0  0  0
 37 38  1  0  0  0
 38 39  2  0  0  0
 39 40  1  0  0  0
 40 41  2  0  0  0
  1 22  1  0  0  0
 22 23  1  0  0  0
 23 26  1  0  0  0
 26 27  1  0  0  0
 27 28  2  0  0  0
 27 29  1  0  0  0
 26 31  1  0  0  0
 31 32  1  0  0  0
 32 33  1  0  0  0
 32 34  1  0  0  0
 22 24  2  0  0  0
  2  4  2  0  0  0
  6 18  1  0  0  0
 18 19  1  0  0  0
 19 20  1  0  0  0
 19 21  1  0  0  0
 17 12  1  0  0  0
 41 36  1  0  0  0
  9 10  1  0  0  0
  3  5  1  0  0  0
 23 25  1  0  0  0
 29 30  1  0  0  0
M  END
> <minimizedAffinity>
-8.76005

> <CNNscore>
0.3809759617

> <CNNaffinity>
6.7291283607

> <CNN_VS>
2.5636360645

> <CNNaffinity_variance>
0.1559185088

$$$$
[H]OC(=O)[C@@]([H])(N([H])C(=O)[C@@]([H])(N([H])C(=O)[C@]([H])(N([H])C(=O)C([H])([H])c1c([H])c([H])c([H])c([H])c1[H])C([H])([H])C([H])(C([H])([H])[H])C([H])([H])[H])C([H])([H])c1c([H])c([H])c([H])c([H])c1[H])C([H])([H])C([H])(C([H])([H])[H])C([H])([H])[H]


 41 42  0  0  0  0  0  0  0  0999 V2000
    4.3312    4.3774   19.2725 C   0  0  0  0  0  0  0  0  0  0  0  0
    3.2981    4.8646   17.0587 C   0  0  0  0  0  0  0  0  0  0  0  0
    4.4585    4.6025   17.8517 N   0  0  0  0  0  0  0  0  0  0  0  0
    2.1603    4.8996   17.6493 O   0  0  0  0  0  0  0  0  0  0  0  0
    5.3798    4.5857   17.3442 H   0  0  0  0  0  0  0  0  0  0  0  0
    3.3207    5.0999   15.6104 C   0  0  0  0  0  0  0  0  0  0  0  0
    2.1262    6.7367   14.1189 C   0  0  0  0  0  0  0  0  0  0  0  0
    3.2455    7.0313   13.6014 O   0  0  0  0  0  0  0  0  0  0  0  0
    2.1329    5.7639   15.1296 N   0  0  0  0  0  0  0  0  0  0  0  0
    1.2222    5.4977   15.5719 H   0  0  0  0  0  0  0  0  0  0  0  0
    0.9155    7.4237   13.6300 C   0  0  0  0  0  0  0  0  0  0  0  0
   -1.4254    6.8040   13.1617 C   0  0  0  0  0  0  0  0  0  0  0  0
   -2.4036    6.0363   12.5772 C   0  0  0  0  0  0  0  0  0  0  0  0
   -2.0482    4.9760   11.7590 C   0  0  0  0  0  0  0  0  0  0  0  0
   -0.7280    4.7277   11.5602 C   0  0  0  0  0  0  0  0  0  0  0  0
    0.2658    5.4979   12.1461 C   0  0  0  0  0  0  0  0  0  0  0  0
   -0.0603    6.5574   12.9635 C   0  0  0  0  0  0  0  0  0  0  0  0
    3.6619    3.8675   14.8675 C   0  0  0  0  0  0  0  0  0  0  0  0
    2.6980    2.7579   14.8148 C   0  0  0  0  0  0  0  0  0  0  0  0
    3.0373    1.5015   15.5495 C   0  0  0  0  0  0  0  0  0  0  0  0
    2.6330    2.3380   13.3283 C   0  0  0  0  0  0  0  0  0  0  0  0
    4.4137    5.6246   20.0777 C   0  0  0  0  0  0  0  0  0  0  0  0
    5.1095    6.7406   19.5523 N   0  0  0  0  0  0  0  0  0  0  0  0
    3.8591    5.6125   21.1981 O   0  0  0  0  0  0  0  0  0  0  0  0
    5.5254    6.6659   18.6049 H   0  0  0  0  0  0  0  0  0  0  0  0
    5.2322    7.9899   20.3500 C   0  0  0  0  0  0  0  0  0  0  0  0
    4.4412    9.0813   19.8149 C   0  0  0  0  0  0  0  0  0  0  0  0
    5.0537   10.2022   19.6631 O   0  0  0  0  0  0  0  0  0  0  0  0
    3.1172    9.0514   19.4508 O   0  0  0  0  0  0  0  0  0  0  0  0
    2.6662    9.8484   19.0706 H   0  0  0  0  0  0  0  0  0  0  0  0
    6.6905    8.1946   20.5352 C   0  0  0  0  0  0  0  0  0  0  0  0
    7.6100    7.0398   20.4531 C   0  0  0  0  0  0  0  0  0  0  0  0
    7.8516    6.3448   21.7773 C   0  0  0  0  0  0  0  0  0  0  0  0
    8.8208    7.1803   19.5995 C   0  0  0  0  0  0  0  0  0  0  0  0
    5.1426    3.2379   19.7618 C   0  0  0  0  0  0  0  0  0  0  0  0
    4.3341    2.0655   20.2276 C   0  0  0  0  0  0  0  0  0  0  0  0
    4.0165    1.8277   21.5359 C   0  0  0  0  0  0  0  0  0  0  0  0
    3.2516    0.7213   21.9294 C   0  0  0  0  0  0  0  0  0  0  0  0
    2.7909   -0.1747   20.9878 C   0  0  0  0  0  0  0  0  0  0  0  0
    3.1038    0.0527   19.6683 C   0  0  0  0  0  0  0  0  0  0  0  0
    3.8632    1.1542   19.2879 C   0  0  0  0  0  0  0  0  0  0  0  0
 12 13  2  0  0  0
 13 14  1  0  0  0
 14 15  2  0  0  0
 15 16  1  0  0  0
 16 17  2  0  0  0
 17 11  1  0  0  0
 11  7  1  0  0  0
  7  8  2  0  0  0
  7  9  1  0  0  0
  9  6  1  0  0  0
  6  2  1  0  0  0
  2  3  1  0  0  0
  3  1  1  0  0  0
  1 35  1  0  0  0
 35 36  1  0  0  0
 36 37  2  0  0  0
 37 38  1  0  0  0
 38 39  2  0  0  0
 39 40  1  0  0  0
 40 41  2  0  0  0
  1 22  1  0  0  0
 22 23  1  0  0  0
 23 26  1  0  0  0
 26 27  1  0  0  0
 27 28  2  0  0  0
 27 29  1  0  0  0
 26 31  1  0  0  0
 31 32  1  0  0  0
 32 33  1  0  0  0
 32 34  1  0  0  0
 22 24  2  0  0  0
  2  4  2  0  0  0
  6 18  1  0  0  0
 18 19  1  0  0  0
 19 20  1  0  0  0
 19 21  1  0  0  0
 17 12  1  0  0  0
 41 36  1  0  0  0
  9 10  1  0  0  0
  3  5  1  0  0  0
 23 25  1  0  0  0
 29 30  1  0  0  0
M  END
> <minimizedAffinity>
-8.35327

> <CNNscore>
0.2965218425

> <CNNaffinity>
6.4035224915

> <CNN_VS>
1.8987842798

> <CNNaffinity_variance>
0.2448147833

$$$$
[H]C([H])=C([H])c1c([H])c([H])n2c(-c3c([H])c([H])c(Cl)c([H])c3[H])c(C(=O)N([H])C([H])([H])C([H])([H])N(C([H])([H])[H])C([H])([H])[H])c([H])c2c1[H]


 27 29  0  0  0  0  0  0  0  0999 V2000
    4.1731    5.2354   16.3258 C   0  0  0  0  0  0  0  0  0  0  0  0
    3.9263    5.4828   14.9692 C   0  0  0  0  0  0  0  0  0  0  0  0
    3.5245    4.3318   14.3419 C   0  0  0  0  0  0  0  0  0  0  0  0
    3.1606    4.1239   13.0055 C   0  0  0  0  0  0  0  0  0  0  0  0
    2.7585    2.8845   12.5787 C   0  0  0  0  0  0  0  0  0  0  0  0
    2.7357    1.8884   13.5309 C   0  0  0  0  0  0  0  0  0  0  0  0
    3.1090    2.1547   14.8390 C   0  0  0  0  0  0  0  0  0  0  0  0
    3.5109    3.3623   15.2730 N   0  0  0  0  0  0  0  0  0  0  0  0
    3.9045    3.8833   16.4812 C   0  0  0  0  0  0  0  0  0  0  0  0
    4.0242    3.1147   17.7422 C   0  0  0  0  0  0  0  0  0  0  0  0
    4.6715    3.5853   18.8441 C   0  0  0  0  0  0  0  0  0  0  0  0
    4.9205    2.7893   19.9537 C   0  0  0  0  0  0  0  0  0  0  0  0
    4.5277    1.4817   20.0087 C   0  0  0  0  0  0  0  0  0  0  0  0
    4.8589    0.4800   21.4175 Cl  0  0  0  0  0  0  0  0  0  0  0  0
    3.8733    0.9925   18.9093 C   0  0  0  0  0  0  0  0  0  0  0  0
    3.6222    1.7896   17.7885 C   0  0  0  0  0  0  0  0  0  0  0  0
    3.6129    6.9641   18.0282 N   0  0  0  0  0  0  0  0  0  0  0  0
    4.5699    6.2539   17.2766 C   0  0  0  0  0  0  0  0  0  0  0  0
    5.7871    6.5033   17.4190 O   0  0  0  0  0  0  0  0  0  0  0  0
    2.5936    6.7602   17.9002 H   0  0  0  0  0  0  0  0  0  0  0  0
    3.9969    7.9882   18.9976 C   0  0  0  0  0  0  0  0  0  0  0  0
    3.8600    9.3800   18.4505 C   0  0  0  0  0  0  0  0  0  0  0  0
    5.1927    9.8319   16.4852 C   0  0  0  0  0  0  0  0  0  0  0  0
    5.0688    9.8369   17.8900 N   0  0  0  0  0  0  0  0  0  0  0  0
    6.2428    9.8362   18.6602 C   0  0  0  0  0  0  0  0  0  0  0  0
    2.4120    2.5999   11.1960 C   0  0  0  0  0  0  0  0  0  0  0  0
    1.7566    1.5552   10.7639 C   0  0  0  0  0  0  0  0  0  0  0  0
 23 24  1  0  0  0
 24 25  1  0  0  0
 24 22  1  0  0  0
 22 21  1  0  0  0
 21 17  1  0  0  0
 17 18  1  0  0  0
 18 19  2  0  0  0
 18  1  1  0  0  0
  1  2  1  0  0  0
  2  3  2  0  0  0
  3  4  1  0  0  0
  4  5  2  0  0  0
  5 26  1  0  0  0
 26 27  2  0  0  0
  5  6  1  0  0  0
  6  7  2  0  0  0
  7  8  1  0  0  0
  8  9  1  0  0  0
  9 10  1  0  0  0
 10 11  2  0  0  0
 11 12  1  0  0  0
 12 13  2  0  0  0
 13 14  1  0  0  0
 13 15  1  0  0  0
 15 16  2  0  0  0
  9  1  2  0  0  0
 16 10  1  0  0  0
  8  3  1  0  0  0
 17 20  1  0  0  0
M  END
> <minimizedAffinity>
-6.76270

> <CNNscore>
0.5099412203

> <CNNaffinity>
5.9731602669

> <CNN_VS>
3.0459606647

> <CNNaffinity_variance>
0.1951677501

$$$$
[H]C([H])=C([H])c1c([H])c([H])n2c(-c3c([H])c([H])c(Cl)c([H])c3[H])c(C(=O)N([H])C([H])([H])C([H])([H])N(C([H])([H])[H])C([H])([H])[H])c([H])c2c1[H]


 27 29  0  0  0  0  0  0  0  0999 V2000
    3.5164    4.2200    9.9011 C   0  0  0  0  0  0  0  0  0  0  0  0
    2.5383    3.7572   10.7909 C   0  0  0  0  0  0  0  0  0  0  0  0
    1.6975    4.7802   11.1466 C   0  0  0  0  0  0  0  0  0  0  0  0
    0.5810    4.7649   11.9921 C   0  0  0  0  0  0  0  0  0  0  0  0
   -0.1508    5.9058   12.1986 C   0  0  0  0  0  0  0  0  0  0  0  0
    0.2759    7.0342   11.5322 C   0  0  0  0  0  0  0  0  0  0  0  0
    1.3902    6.9877   10.7091 C   0  0  0  0  0  0  0  0  0  0  0  0
    2.1223    5.8794   10.4998 N   0  0  0  0  0  0  0  0  0  0  0  0
    3.2251    5.5672    9.7432 C   0  0  0  0  0  0  0  0  0  0  0  0
    3.9788    6.5243    8.9002 C   0  0  0  0  0  0  0  0  0  0  0  0
    4.8511    7.4390    9.4074 C   0  0  0  0  0  0  0  0  0  0  0  0
    5.4174    8.4361    8.6252 C   0  0  0  0  0  0  0  0  0  0  0  0
    5.1351    8.5591    7.2939 C   0  0  0  0  0  0  0  0  0  0  0  0
    5.8518    9.8344    6.3153 Cl  0  0  0  0  0  0  0  0  0  0  0  0
    4.2609    7.6458    6.7668 C   0  0  0  0  0  0  0  0  0  0  0  0
    3.6861    6.6412    7.5510 C   0  0  0  0  0  0  0  0  0  0  0  0
    5.8800    3.4636    9.6972 N   0  0  0  0  0  0  0  0  0  0  0  0
    4.5306    3.3772    9.3012 C   0  0  0  0  0  0  0  0  0  0  0  0
    4.1909    2.5669    8.4113 O   0  0  0  0  0  0  0  0  0  0  0  0
    6.1636    4.1499   10.4358 H   0  0  0  0  0  0  0  0  0  0  0  0
    6.9137    2.6147    9.1082 C   0  0  0  0  0  0  0  0  0  0  0  0
    7.8124    3.3677    8.1700 C   0  0  0  0  0  0  0  0  0  0  0  0
    9.2156    2.9520    6.2462 C   0  0  0  0  0  0  0  0  0  0  0  0
    8.0619    2.6354    6.9929 N   0  0  0  0  0  0  0  0  0  0  0  0
    7.0068    1.9795    6.3387 C   0  0  0  0  0  0  0  0  0  0  0  0
   -1.2911    5.9599   13.0985 C   0  0  0  0  0  0  0  0  0  0  0  0
   -1.4650    6.8122   14.0737 C   0  0  0  0  0  0  0  0  0  0  0  0
 23 24  1  0  0  0
 24 25  1  0  0  0
 24 22  1  0  0  0
 22 21  1  0  0  0
 21 17  1  0  0  0
 17 18  1  0  0  0
 18 19  2  0  0  0
 18  1  1  0  0  0
  1  2  1  0  0  0
  2  3  2  0  0  0
  3  4  1  0  0  0
  4  5  2  0  0  0
  5 26  1  0  0  0
 26 27  2  0  0  0
  5  6  1  0  0  0
  6  7  2  0  0  0
  7  8  1  0  0  0
  8  9  1  0  0  0
  9 10  1  0  0  0
 10 11  2  0  0  0
 11 12  1  0  0  0
 12 13  2  0  0  0
 13 14  1  0  0  0
 13 15  1  0  0  0
 15 16  2  0  0  0
  9  1  2  0  0  0
 16 10  1  0  0  0
  8  3  1  0  0  0
 17 20  1  0  0  0
M  END
> <minimizedAffinity>
-4.38189

> <CNNscore>
0.5038112998

> <CNNaffinity>
4.9916787148

> <CNN_VS>
2.5148642063

> <CNNaffinity_variance>
0.3254626691

$$$$
[H]C([H])=C([H])c1c([H])c([H])n2c(-c3c([H])c([H])c(Cl)c([H])c3[H])c(C(=O)N([H])C([H])([H])C([H])([H])N(C([H])([H])[H])C([H])([H])[H])c([H])c2c1[H]


 27 29  0  0  0  0  0  0  0  0999 V2000
    3.1921    7.6128    9.5688 C   0  0  0  0  0  0  0  0  0  0  0  0
    2.1205    8.1998   10.2542 C   0  0  0  0  0  0  0  0  0  0  0  0
    1.6192    7.3288   11.1870 C   0  0  0  0  0  0  0  0  0  0  0  0
    0.5694    7.5033   12.0977 C   0  0  0  0  0  0  0  0  0  0  0  0
    0.2374    6.5043   12.9761 C   0  0  0  0  0  0  0  0  0  0  0  0
    0.9898    5.3519   12.9033 C   0  0  0  0  0  0  0  0  0  0  0  0
    2.0163    5.2373   11.9788 C   0  0  0  0  0  0  0  0  0  0  0  0
    2.3515    6.2044   11.1068 N   0  0  0  0  0  0  0  0  0  0  0  0
    3.3070    6.3497   10.1311 C   0  0  0  0  0  0  0  0  0  0  0  0
    4.2949    5.3154    9.7452 C   0  0  0  0  0  0  0  0  0  0  0  0
    4.0684    4.3955    8.7667 C   0  0  0  0  0  0  0  0  0  0  0  0
    4.9305    3.3326    8.5348 C   0  0  0  0  0  0  0  0  0  0  0  0
    6.0637    3.1456    9.2752 C   0  0  0  0  0  0  0  0  0  0  0  0
    7.1432    1.7876    8.9780 Cl  0  0  0  0  0  0  0  0  0  0  0  0
    6.3080    4.0629   10.2626 C   0  0  0  0  0  0  0  0  0  0  0  0
    5.4415    5.1338   10.5014 C   0  0  0  0  0  0  0  0  0  0  0  0
    3.3639    8.7849    7.3786 N   0  0  0  0  0  0  0  0  0  0  0  0
    3.9696    8.2875    8.5494 C   0  0  0  0  0  0  0  0  0  0  0  0
    5.2015    8.4185    8.7200 O   0  0  0  0  0  0  0  0  0  0  0  0
    2.3335    8.6654    7.2336 H   0  0  0  0  0  0  0  0  0  0  0  0
    4.1324    9.4755    6.3449 C   0  0  0  0  0  0  0  0  0  0  0  0
    4.5306    8.5659    5.2184 C   0  0  0  0  0  0  0  0  0  0  0  0
    6.6165    9.7470    5.5289 C   0  0  0  0  0  0  0  0  0  0  0  0
    5.8786    8.7522    4.8546 N   0  0  0  0  0  0  0  0  0  0  0  0
    6.3282    8.3328    3.5923 C   0  0  0  0  0  0  0  0  0  0  0  0
   -0.8693    6.6121   13.9123 C   0  0  0  0  0  0  0  0  0  0  0  0
   -2.0992    6.9422   13.6189 C   0  0  0  0  0  0  0  0  0  0  0  0
 23 24  1  0  0  0
 24 25  1  0  0  0
 24 22  1  0  0  0
 22 21  1  0  0  0
 21 17  1  0  0  0
 17 18  1  0  0  0
 18 19  2  0  0  0
 18  1  1  0  0  0
  1  2  1  0  0  0
  2  3  2  0  0  0
  3  4  1  0  0  0
  4  5  2  0  0  0
  5 26  1  0  0  0
 26 27  2  0  0  0
  5  6  1  0  0  0
  6  7  2  0  0  0
  7  8  1  0  0  0
  8  9  1  0  0  0
  9 10  1  0  0  0
 10 11  2  0  0  0
 11 12  1  0  0  0
 12 13  2  0  0  0
 13 14  1  0  0  0
 13 15  1  0  0  0
 15 16  2  0  0  0
  9  1  2  0  0  0
 16 10  1  0  0  0
  8  3  1  0  0  0
 17 20  1  0  0  0
M  END
> <minimizedAffinity>
-4.86450

> <CNNscore>
0.4909501374

> <CNNaffinity>
4.9670572281

> <CNN_VS>
2.4385774136

> <CNNaffinity_variance>
0.1335728765

$$$$
[H]C([H])=C([H])c1c([H])c([H])n2c(-c3c([H])c([H])c(Cl)c([H])c3[H])c(C(=O)N([H])C([H])([H])C([H])([H])N(C([H])([H])[H])C([H])([H])[H])c([H])c2c1[H]


 27 29  0  0  0  0  0  0  0  0999 V2000
    4.9586    4.9443   19.4445 C   0  0  0  0  0  0  0  0  0  0  0  0
    4.6008    5.0050   18.0914 C   0  0  0  0  0  0  0  0  0  0  0  0
    4.1915    3.7722   17.6526 C   0  0  0  0  0  0  0  0  0  0  0  0
    3.7339    3.3815   16.3878 C   0  0  0  0  0  0  0  0  0  0  0  0
    3.3427    2.0876   16.1587 C   0  0  0  0  0  0  0  0  0  0  0  0
    3.4262    1.2253   17.2306 C   0  0  0  0  0  0  0  0  0  0  0  0
    3.8889    1.6704   18.4591 C   0  0  0  0  0  0  0  0  0  0  0  0
    4.2817    2.9337   18.6995 N   0  0  0  0  0  0  0  0  0  0  0  0
    4.7484    3.6185   19.7947 C   0  0  0  0  0  0  0  0  0  0  0  0
    4.9898    3.0258   21.1309 C   0  0  0  0  0  0  0  0  0  0  0  0
    4.2791    3.3719   22.2400 C   0  0  0  0  0  0  0  0  0  0  0  0
    4.6288    2.9351   23.5103 C   0  0  0  0  0  0  0  0  0  0  0  0
    5.7094    2.1269   23.7254 C   0  0  0  0  0  0  0  0  0  0  0  0
    6.1483    1.5887   25.3427 Cl  0  0  0  0  0  0  0  0  0  0  0  0
    6.4344    1.7675   22.6203 C   0  0  0  0  0  0  0  0  0  0  0  0
    6.0876    2.2066   21.3391 C   0  0  0  0  0  0  0  0  0  0  0  0
    4.4806    7.0828   20.6273 N   0  0  0  0  0  0  0  0  0  0  0  0
    5.3920    6.0883   20.2206 C   0  0  0  0  0  0  0  0  0  0  0  0
    6.6015    6.1874   20.5230 O   0  0  0  0  0  0  0  0  0  0  0  0
    3.4699    7.0025   20.3646 H   0  0  0  0  0  0  0  0  0  0  0  0
    4.9000    8.2382   21.4179 C   0  0  0  0  0  0  0  0  0  0  0  0
    4.9490    9.5027   20.6094 C   0  0  0  0  0  0  0  0  0  0  0  0
    6.3923    9.4979   18.6705 C   0  0  0  0  0  0  0  0  0  0  0  0
    6.2264    9.7129   20.0543 N   0  0  0  0  0  0  0  0  0  0  0  0
    7.3643    9.6619   20.8754 C   0  0  0  0  0  0  0  0  0  0  0  0
    2.9016    1.6152   14.8567 C   0  0  0  0  0  0  0  0  0  0  0  0
    2.9121    2.2992   13.7432 C   0  0  0  0  0  0  0  0  0  0  0  0
 23 24  1  0  0  0
 24 25  1  0  0  0
 24 22  1  0  0  0
 22 21  1  0  0  0
 21 17  1  0  0  0
 17 18  1  0  0  0
 18 19  2  0  0  0
 18  1  1  0  0  0
  1  2  1  0  0  0
  2  3  2  0  0  0
  3  4  1  0  0  0
  4  5  2  0  0  0
  5 26  1  0  0  0
 26 27  2  0  0  0
  5  6  1  0  0  0
  6  7  2  0  0  0
  7  8  1  0  0  0
  8  9  1  0  0  0
  9 10  1  0  0  0
 10 11  2  0  0  0
 11 12  1  0  0  0
 12 13  2  0  0  0
 13 14  1  0  0  0
 13 15  1  0  0  0
 15 16  2  0  0  0
  9  1  2  0  0  0
 16 10  1  0  0  0
  8  3  1  0  0  0
 17 20  1  0  0  0
M  END
> <minimizedAffinity>
-7.98916

> <CNNscore>
0.4859043956

> <CNNaffinity>
6.0075149536

> <CNN_VS>
2.9190778732

> <CNNaffinity_variance>
0.1037914902

$$$$
[H]C([H])=C([H])c1c([H])c([H])n2c(-c3c([H])c([H])c(Cl)c([H])c3[H])c(C(=O)N([H])C([H])([H])C([H])([H])N(C([H])([H])[H])C([H])([H])[H])c([H])c2c1[H]


 27 29  0  0  0  0  0  0  0  0999 V2000
    3.2453    2.4525    9.8533 C   0  0  0  0  0  0  0  0  0  0  0  0
    3.6049    1.1892    9.3658 C   0  0  0  0  0  0  0  0  0  0  0  0
    2.5376    0.3315    9.4364 C   0  0  0  0  0  0  0  0  0  0  0  0
    2.4435   -1.0103    9.0457 C   0  0  0  0  0  0  0  0  0  0  0  0
    1.2613   -1.6920    9.1782 C   0  0  0  0  0  0  0  0  0  0  0  0
    0.2031   -0.9831    9.7045 C   0  0  0  0  0  0  0  0  0  0  0  0
    0.3578    0.3437   10.0747 C   0  0  0  0  0  0  0  0  0  0  0  0
    1.5108    1.0255    9.9569 N   0  0  0  0  0  0  0  0  0  0  0  0
    1.9155    2.3108   10.2223 C   0  0  0  0  0  0  0  0  0  0  0  0
    1.0620    3.3681   10.8126 C   0  0  0  0  0  0  0  0  0  0  0  0
    0.5318    4.3909   10.0862 C   0  0  0  0  0  0  0  0  0  0  0  0
   -0.1212    5.4617   10.6811 C   0  0  0  0  0  0  0  0  0  0  0  0
   -0.2743    5.5533   12.0359 C   0  0  0  0  0  0  0  0  0  0  0  0
   -1.0952    6.9217   12.7786 Cl  0  0  0  0  0  0  0  0  0  0  0  0
    0.2515    4.5318   12.7817 C   0  0  0  0  0  0  0  0  0  0  0  0
    0.9120    3.4525   12.1873 C   0  0  0  0  0  0  0  0  0  0  0  0
    4.6208    4.1213   11.0876 N   0  0  0  0  0  0  0  0  0  0  0  0
    4.1339    3.5965    9.8740 C   0  0  0  0  0  0  0  0  0  0  0  0
    4.4620    4.1238    8.7886 O   0  0  0  0  0  0  0  0  0  0  0  0
    4.3368    3.6839   11.9959 H   0  0  0  0  0  0  0  0  0  0  0  0
    5.5246    5.2692   11.1254 C   0  0  0  0  0  0  0  0  0  0  0  0
    4.8329    6.5338   11.5465 C   0  0  0  0  0  0  0  0  0  0  0  0
    3.0736    7.3757   10.1187 C   0  0  0  0  0  0  0  0  0  0  0  0
    4.4463    7.3071   10.4344 N   0  0  0  0  0  0  0  0  0  0  0  0
    5.3758    7.5910    9.4210 C   0  0  0  0  0  0  0  0  0  0  0  0
    1.1168   -3.0962    8.8311 C   0  0  0  0  0  0  0  0  0  0  0  0
    1.5029   -4.1137    9.5544 C   0  0  0  0  0  0  0  0  0  0  0  0
 23 24  1  0  0  0
 24 25  1  0  0  0
 24 22  1  0  0  0
 22 21  1  0  0  0
 21 17  1  0  0  0
 17 18  1  0  0  0
 18 19  2  0  0  0
 18  1  1  0  0  0
  1  2  1  0  0  0
  2  3  2  0  0  0
  3  4  1  0  0  0
  4  5  2  0  0  0
  5 26  1  0  0  0
 26 27  2  0  0  0
  5  6  1  0  0  0
  6  7  2  0  0  0
  7  8  1  0  0  0
  8  9  1  0  0  0
  9 10  1  0  0  0
 10 11  2  0  0  0
 11 12  1  0  0  0
 12 13  2  0  0  0
 13 14  1  0  0  0
 13 15  1  0  0  0
 15 16  2  0  0  0
  9  1  2  0  0  0
 16 10  1  0  0  0
  8  3  1  0  0  0
 17 20  1  0  0  0
M  END
> <minimizedAffinity>
-4.29045

> <CNNscore>
0.4391767085

> <CNNaffinity>
4.9517679214

> <CNN_VS>
2.1747012138

> <CNNaffinity_variance>
0.0995622948

$$$$
[H]C([H])=C([H])c1c([H])c([H])n2c(-c3c([H])c([H])c(Cl)c([H])c3[H])c(C(=O)N([H])C([H])([H])C([H])([H])N(C([H])([H])[H])C([H])([H])[H])c([H])c2c1[H]


 27 29  0  0  0  0  0  0  0  0999 V2000
    3.3231    4.2184   12.1995 C   0  0  0  0  0  0  0  0  0  0  0  0
    3.7398    4.7405   13.4310 C   0  0  0  0  0  0  0  0  0  0  0  0
    3.6283    3.7893   14.4122 C   0  0  0  0  0  0  0  0  0  0  0  0
    3.9465    3.8701   15.7738 C   0  0  0  0  0  0  0  0  0  0  0  0
    3.7834    2.7820   16.5919 C   0  0  0  0  0  0  0  0  0  0  0  0
    3.3016    1.6365   15.9960 C   0  0  0  0  0  0  0  0  0  0  0  0
    3.0028    1.6180   14.6426 C   0  0  0  0  0  0  0  0  0  0  0  0
    3.1514    2.6769   13.8273 N   0  0  0  0  0  0  0  0  0  0  0  0
    2.9538    2.9129   12.4889 C   0  0  0  0  0  0  0  0  0  0  0  0
    2.4259    1.9257   11.5185 C   0  0  0  0  0  0  0  0  0  0  0  0
    3.1967    1.3286   10.5676 C   0  0  0  0  0  0  0  0  0  0  0  0
    2.6549    0.5389    9.5628 C   0  0  0  0  0  0  0  0  0  0  0  0
    1.3111    0.3100    9.4681 C   0  0  0  0  0  0  0  0  0  0  0  0
    0.6355   -0.6848    8.1828 Cl  0  0  0  0  0  0  0  0  0  0  0  0
    0.5210    0.9016   10.4179 C   0  0  0  0  0  0  0  0  0  0  0  0
    1.0618    1.6996   11.4304 C   0  0  0  0  0  0  0  0  0  0  0  0
    2.3132    5.8248   10.5870 N   0  0  0  0  0  0  0  0  0  0  0  0
    3.3597    4.9550   10.9525 C   0  0  0  0  0  0  0  0  0  0  0  0
    4.3402    4.8023   10.1915 O   0  0  0  0  0  0  0  0  0  0  0  0
    1.4884    5.9436   11.2215 H   0  0  0  0  0  0  0  0  0  0  0  0
    2.3389    6.5816    9.3369 C   0  0  0  0  0  0  0  0  0  0  0  0
    2.6693    8.0312    9.5475 C   0  0  0  0  0  0  0  0  0  0  0  0
    4.4762    8.6813    8.0796 C   0  0  0  0  0  0  0  0  0  0  0  0
    3.0931    8.6443    8.3523 N   0  0  0  0  0  0  0  0  0  0  0  0
    2.2649    9.5809    7.7132 C   0  0  0  0  0  0  0  0  0  0  0  0
    4.0548    2.8202   18.0194 C   0  0  0  0  0  0  0  0  0  0  0  0
    4.4535    1.8174   18.7564 C   0  0  0  0  0  0  0  0  0  0  0  0
 23 24  1  0  0  0
 24 25  1  0  0  0
 24 22  1  0  0  0
 22 21  1  0  0  0
 21 17  1  0  0  0
 17 18  1  0  0  0
 18 19  2  0  0  0
 18  1  1  0  0  0
  1  2  1  0  0  0
  2  3  2  0  0  0
  3  4  1  0  0  0
  4  5  2  0  0  0
  5 26  1  0  0  0
 26 27  2  0  0  0
  5  6  1  0  0  0
  6  7  2  0  0  0
  7  8  1  0  0  0
  8  9  1  0  0  0
  9 10  1  0  0  0
 10 11  2  0  0  0
 11 12  1  0  0  0
 12 13  2  0  0  0
 13 14  1  0  0  0
 13 15  1  0  0  0
 15 16  2  0  0  0
  9  1  2  0  0  0
 16 10  1  0  0  0
  8  3  1  0  0  0
 17 20  1  0  0  0
M  END
> <minimizedAffinity>
-5.54118

> <CNNscore>
0.4244310558

> <CNNaffinity>
5.5483875275

> <CNN_VS>
2.3549079895

> <CNNaffinity_variance>
0.0813390687

$$$$
[H]C([H])=C([H])c1c([H])c([H])n2c(-c3c([H])c([H])c(Cl)c([H])c3[H])c(C(=O)N([H])C([H])([H])C([H])([H])N(C([H])([H])[H])C([H])([H])[H])c([H])c2c1[H]


 27 29  0  0  0  0  0  0  0  0999 V2000
    3.7026    5.1125   16.2058 C   0  0  0  0  0  0  0  0  0  0  0  0
    4.1633    5.2376   17.5229 C   0  0  0  0  0  0  0  0  0  0  0  0
    4.2979    4.0004   18.0984 C   0  0  0  0  0  0  0  0  0  0  0  0
    4.7410    3.6565   19.3818 C   0  0  0  0  0  0  0  0  0  0  0  0
    4.8282    2.3410   19.7583 C   0  0  0  0  0  0  0  0  0  0  0  0
    4.4626    1.4090   18.8110 C   0  0  0  0  0  0  0  0  0  0  0  0
    4.0301    1.8109   17.5568 C   0  0  0  0  0  0  0  0  0  0  0  0
    3.9333    3.0959   17.1731 N   0  0  0  0  0  0  0  0  0  0  0  0
    3.5640    3.7447   16.0204 C   0  0  0  0  0  0  0  0  0  0  0  0
    3.0904    3.0808   14.7834 C   0  0  0  0  0  0  0  0  0  0  0  0
    3.6028    3.3481   13.5502 C   0  0  0  0  0  0  0  0  0  0  0  0
    3.0354    2.8459   12.3872 C   0  0  0  0  0  0  0  0  0  0  0  0
    1.9260    2.0483   12.4095 C   0  0  0  0  0  0  0  0  0  0  0  0
    1.2099    1.4266   10.9268 Cl  0  0  0  0  0  0  0  0  0  0  0  0
    1.3986    1.7678   13.6421 C   0  0  0  0  0  0  0  0  0  0  0  0
    1.9652    2.2731   14.8161 C   0  0  0  0  0  0  0  0  0  0  0  0
    4.5730    7.0471   14.9018 N   0  0  0  0  0  0  0  0  0  0  0  0
    3.4985    6.2315   15.3085 C   0  0  0  0  0  0  0  0  0  0  0  0
    2.3414    6.4722   14.8997 O   0  0  0  0  0  0  0  0  0  0  0  0
    5.5396    6.8494   15.2532 H   0  0  0  0  0  0  0  0  0  0  0  0
    4.3855    8.1742   13.9905 C   0  0  0  0  0  0  0  0  0  0  0  0
    4.8450    7.8687   12.5939 C   0  0  0  0  0  0  0  0  0  0  0  0
    4.1106    6.5490   10.7066 C   0  0  0  0  0  0  0  0  0  0  0  0
    3.7897    7.3850   11.7961 N   0  0  0  0  0  0  0  0  0  0  0  0
    2.5608    8.0639   11.7727 C   0  0  0  0  0  0  0  0  0  0  0  0
    5.2386    1.9266   21.0897 C   0  0  0  0  0  0  0  0  0  0  0  0
    6.3920    1.4052   21.4145 C   0  0  0  0  0  0  0  0  0  0  0  0
 23 24  1  0  0  0
 24 25  1  0  0  0
 24 22  1  0  0  0
 22 21  1  0  0  0
 21 17  1  0  0  0
 17 18  1  0  0  0
 18 19  2  0  0  0
 18  1  1  0  0  0
  1  2  1  0  0  0
  2  3  2  0  0  0
  3  4  1  0  0  0
  4  5  2  0  0  0
  5 26  1  0  0  0
 26 27  2  0  0  0
  5  6  1  0  0  0
  6  7  2  0  0  0
  7  8  1  0  0  0
  8  9  1  0  0  0
  9 10  1  0  0  0
 10 11  2  0  0  0
 11 12  1  0  0  0
 12 13  2  0  0  0
 13 14  1  0  0  0
 13 15  1  0  0  0
 15 16  2  0  0  0
  9  1  2  0  0  0
 16 10  1  0  0  0
  8  3  1  0  0  0
 17 20  1  0  0  0
M  END
> <minimizedAffinity>
-6.72393

> <CNNscore>
0.4189626575

> <CNNaffinity>
5.7532229424

> <CNN_VS>
2.4103856087

> <CNNaffinity_variance>
0.1929451972

$$$$
[H]C([H])=C([H])c1c([H])c([H])n2c(-c3c([H])c([H])c(Cl)c([H])c3[H])c(C(=O)N([H])C([H])([H])C([H])([H])N(C([H])([H])[H])C([H])([H])[H])c([H])c2c1[H]


 27 29  0  0  0  0  0  0  0  0999 V2000
    3.0858    4.4329   11.1797 C   0  0  0  0  0  0  0  0  0  0  0  0
    3.8027    4.7507   12.3406 C   0  0  0  0  0  0  0  0  0  0  0  0
    3.5390    3.8357   13.3270 C   0  0  0  0  0  0  0  0  0  0  0  0
    4.0460    3.7573   14.6304 C   0  0  0  0  0  0  0  0  0  0  0  0
    3.6699    2.7346   15.4626 C   0  0  0  0  0  0  0  0  0  0  0  0
    2.7865    1.8150   14.9397 C   0  0  0  0  0  0  0  0  0  0  0  0
    2.3179    1.9465   13.6418 C   0  0  0  0  0  0  0  0  0  0  0  0
    2.6718    2.9457   12.8144 N   0  0  0  0  0  0  0  0  0  0  0  0
    2.3782    3.2884   11.5173 C   0  0  0  0  0  0  0  0  0  0  0  0
    1.4494    2.5498   10.6302 C   0  0  0  0  0  0  0  0  0  0  0  0
    0.2684    3.0664   10.1907 C   0  0  0  0  0  0  0  0  0  0  0  0
   -0.6644    2.3024    9.5029 C   0  0  0  0  0  0  0  0  0  0  0  0
   -0.4523    0.9820    9.2222 C   0  0  0  0  0  0  0  0  0  0  0  0
   -1.6478    0.0214    8.3586 Cl  0  0  0  0  0  0  0  0  0  0  0  0
    0.7317    0.4467    9.6555 C   0  0  0  0  0  0  0  0  0  0  0  0
    1.6733    1.2115   10.3505 C   0  0  0  0  0  0  0  0  0  0  0  0
    2.3094    6.2533    9.6685 N   0  0  0  0  0  0  0  0  0  0  0  0
    3.1779    5.1777    9.9405 C   0  0  0  0  0  0  0  0  0  0  0  0
    4.0438    4.8459    9.1015 O   0  0  0  0  0  0  0  0  0  0  0  0
    1.5786    6.5232   10.3686 H   0  0  0  0  0  0  0  0  0  0  0  0
    2.3948    7.0203    8.4273 C   0  0  0  0  0  0  0  0  0  0  0  0
    2.6962    8.4718    8.6663 C   0  0  0  0  0  0  0  0  0  0  0  0
    3.8307    9.3604    6.7257 C   0  0  0  0  0  0  0  0  0  0  0  0
    3.8980    8.8603    8.0426 N   0  0  0  0  0  0  0  0  0  0  0  0
    5.1217    8.3402    8.4937 C   0  0  0  0  0  0  0  0  0  0  0  0
    4.1287    2.6268   16.8377 C   0  0  0  0  0  0  0  0  0  0  0  0
    3.9492    3.5113   17.7828 C   0  0  0  0  0  0  0  0  0  0  0  0
 23 24  1  0  0  0
 24 25  1  0  0  0
 24 22  1  0  0  0
 22 21  1  0  0  0
 21 17  1  0  0  0
 17 18  1  0  0  0
 18 19  2  0  0  0
 18  1  1  0  0  0
  1  2  1  0  0  0
  2  3  2  0  0  0
  3  4  1  0  0  0
  4  5  2  0  0  0
  5 26  1  0  0  0
 26 27  2  0  0  0
  5  6  1  0  0  0
  6  7  2  0  0  0
  7  8  1  0  0  0
  8  9  1  0  0  0
  9 10  1  0  0  0
 10 11  2  0  0  0
 11 12  1  0  0  0
 12 13  2  0  0  0
 13 14  1  0  0  0
 13 15  1  0  0  0
 15 16  2  0  0  0
  9  1  2  0  0  0
 16 10  1  0  0  0
  8  3  1  0  0  0
 17 20  1  0  0  0
M  END
> <minimizedAffinity>
-4.86372

> <CNNscore>
0.4096732736

> <CNNaffinity>
5.3919410706

> <CNN_VS>
2.2089340687

> <CNNaffinity_variance>
0.1610099822

$$$$
[H]C([H])=C([H])c1c([H])c([H])n2c(-c3c([H])c([H])c(Cl)c([H])c3[H])c(C(=O)N([H])C([H])([H])C([H])([H])N(C([H])([H])[H])C([H])([H])[H])c([H])c2c1[H]


 27 29  0  0  0  0  0  0  0  0999 V2000
    3.1473    5.1236   16.1138 C   0  0  0  0  0  0  0  0  0  0  0  0
    3.5508    5.2376   17.4506 C   0  0  0  0  0  0  0  0  0  0  0  0
    3.8407    4.0007   17.9663 C   0  0  0  0  0  0  0  0  0  0  0  0
    4.2929    3.6503   19.2448 C   0  0  0  0  0  0  0  0  0  0  0  0
    4.5520    2.3404   19.5561 C   0  0  0  0  0  0  0  0  0  0  0  0
    4.3449    1.4211   18.5505 C   0  0  0  0  0  0  0  0  0  0  0  0
    3.8944    1.8285   17.3046 C   0  0  0  0  0  0  0  0  0  0  0  0
    3.6302    3.1074   16.9841 N   0  0  0  0  0  0  0  0  0  0  0  0
    3.2052    3.7621   15.8540 C   0  0  0  0  0  0  0  0  0  0  0  0
    2.8616    3.1090   14.5693 C   0  0  0  0  0  0  0  0  0  0  0  0
    3.4673    3.4189   13.3895 C   0  0  0  0  0  0  0  0  0  0  0  0
    3.0185    2.9227   12.1733 C   0  0  0  0  0  0  0  0  0  0  0  0
    1.9396    2.0886   12.0862 C   0  0  0  0  0  0  0  0  0  0  0  0
    1.3740    1.4748   10.5367 Cl  0  0  0  0  0  0  0  0  0  0  0  0
    1.3195    1.7650   13.2639 C   0  0  0  0  0  0  0  0  0  0  0  0
    1.7665    2.2640   14.4910 C   0  0  0  0  0  0  0  0  0  0  0  0
    1.5713    6.3279   14.6083 N   0  0  0  0  0  0  0  0  0  0  0  0
    2.8137    6.2520   15.2686 C   0  0  0  0  0  0  0  0  0  0  0  0
    3.6550    7.1659   15.1246 O   0  0  0  0  0  0  0  0  0  0  0  0
    0.8722    5.5565   14.7228 H   0  0  0  0  0  0  0  0  0  0  0  0
    1.2159    7.4632   13.7593 C   0  0  0  0  0  0  0  0  0  0  0  0
    0.2760    7.0827   12.6518 C   0  0  0  0  0  0  0  0  0  0  0  0
   -0.9194    4.9858   12.5216 C   0  0  0  0  0  0  0  0  0  0  0  0
   -0.7641    6.2546   13.1174 N   0  0  0  0  0  0  0  0  0  0  0  0
   -1.8690    6.8196   13.7742 C   0  0  0  0  0  0  0  0  0  0  0  0
    4.9803    1.9133   20.8779 C   0  0  0  0  0  0  0  0  0  0  0  0
    4.2541    1.2721   21.7549 C   0  0  0  0  0  0  0  0  0  0  0  0
 23 24  1  0  0  0
 24 25  1  0  0  0
 24 22  1  0  0  0
 22 21  1  0  0  0
 21 17  1  0  0  0
 17 18  1  0  0  0
 18 19  2  0  0  0
 18  1  1  0  0  0
  1  2  1  0  0  0
  2  3  2  0  0  0
  3  4  1  0  0  0
  4  5  2  0  0  0
  5 26  1  0  0  0
 26 27  2  0  0  0
  5  6  1  0  0  0
  6  7  2  0  0  0
  7  8  1  0  0  0
  8  9  1  0  0  0
  9 10  1  0  0  0
 10 11  2  0  0  0
 11 12  1  0  0  0
 12 13  2  0  0  0
 13 14  1  0  0  0
 13 15  1  0  0  0
 15 16  2  0  0  0
  9  1  2  0  0  0
 16 10  1  0  0  0
  8  3  1  0  0  0
 17 20  1  0  0  0
M  END
> <minimizedAffinity>
-6.95303

> <CNNscore>
0.3888747096

> <CNNaffinity>
5.6886901855

> <CNN_VS>
2.2121877670

> <CNNaffinity_variance>
0.1622084081

$$$$
[H]OC(=O)C([H])([H])C([H])([H])C([H])([H])[C@]([H])(N([H])[H])[C@]1([H])C(=O)N([H])[C@@]([H])(C([H])([H])c2c([H])c([H])c([H])c([H])c2[H])C(=O)N([H])[C@@]([H])(C([H])([H])c2c([H])nc([H])n2[H])C(=O)N([H])[C@@]([H])(C([H])([H])c2c([H])c([H])c(O[H])c([H])c2[H])C(=O)N1[H]


 54 57  0  0  0  0  0  0  0  0999 V2000
    4.7199    7.9079   19.4371 C   0  0  0  0  0  0  0  0  0  0  0  0
    3.6244    7.0806   19.8894 N   0  0  0  0  0  0  0  0  0  0  0  0
    3.2244    5.8190   19.4339 C   0  0  0  0  0  0  0  0  0  0  0  0
    2.0162    5.7298   18.9938 O   0  0  0  0  0  0  0  0  0  0  0  0
    3.9856    4.5574   19.3807 C   0  0  0  0  0  0  0  0  0  0  0  0
    5.2133    4.6124   18.6391 N   0  0  0  0  0  0  0  0  0  0  0  0
    5.4320    4.5451   17.2439 C   0  0  0  0  0  0  0  0  0  0  0  0
    6.2347    3.6672   16.7743 O   0  0  0  0  0  0  0  0  0  0  0  0
    4.8034    5.4239   16.2432 C   0  0  0  0  0  0  0  0  0  0  0  0
    5.6343    6.5920   15.9569 N   0  0  0  0  0  0  0  0  0  0  0  0
    5.1147    7.8707   15.6469 C   0  0  0  0  0  0  0  0  0  0  0  0
    5.7104    8.6055   14.7828 O   0  0  0  0  0  0  0  0  0  0  0  0
    3.8927    8.4614   16.2521 C   0  0  0  0  0  0  0  0  0  0  0  0
    4.1631    9.3243   17.3516 N   0  0  0  0  0  0  0  0  0  0  0  0
    4.0685    9.0656   18.7252 C   0  0  0  0  0  0  0  0  0  0  0  0
    3.3876    9.8374   19.4996 O   0  0  0  0  0  0  0  0  0  0  0  0
    3.0612    7.5288   20.6799 H   0  0  0  0  0  0  0  0  0  0  0  0
    6.1035    4.7164   19.2211 H   0  0  0  0  0  0  0  0  0  0  0  0
    6.6701    6.4822   15.9843 H   0  0  0  0  0  0  0  0  0  0  0  0
    4.4805   10.3155   17.1089 H   0  0  0  0  0  0  0  0  0  0  0  0
    4.5806    8.5444   21.8262 N   0  0  0  0  0  0  0  0  0  0  0  0
    5.3926    8.5782   20.6529 C   0  0  0  0  0  0  0  0  0  0  0  0
    4.1329    7.6054   21.9097 H   0  0  0  0  0  0  0  0  0  0  0  0
    3.8646    9.3033   21.7868 H   0  0  0  0  0  0  0  0  0  0  0  0
    6.6812    7.8416   21.0123 C   0  0  0  0  0  0  0  0  0  0  0  0
    6.4261    7.2712   22.4145 C   0  0  0  0  0  0  0  0  0  0  0  0
    7.5960    7.6498   23.2965 C   0  0  0  0  0  0  0  0  0  0  0  0
    7.1849    8.6586   24.3130 C   0  0  0  0  0  0  0  0  0  0  0  0
    7.5770    8.4931   25.6328 O   0  0  0  0  0  0  0  0  0  0  0  0
    6.4930    9.6708   24.0522 O   0  0  0  0  0  0  0  0  0  0  0  0
    6.9599    8.4519   26.4176 H   0  0  0  0  0  0  0  0  0  0  0  0
    4.3449    4.0489   20.7774 C   0  0  0  0  0  0  0  0  0  0  0  0
    4.0524    2.6096   20.9692 C   0  0  0  0  0  0  0  0  0  0  0  0
    4.0032    1.7356   19.9005 C   0  0  0  0  0  0  0  0  0  0  0  0
    3.7384    0.3898   20.0575 C   0  0  0  0  0  0  0  0  0  0  0  0
    3.5119   -0.1246   21.3127 C   0  0  0  0  0  0  0  0  0  0  0  0
    3.2507   -1.4826   21.4167 O   0  0  0  0  0  0  0  0  0  0  0  0
    3.5514    0.7105   22.4002 C   0  0  0  0  0  0  0  0  0  0  0  0
    3.8197    2.0641   22.2221 C   0  0  0  0  0  0  0  0  0  0  0  0
    4.0239   -2.1482   21.5516 H   0  0  0  0  0  0  0  0  0  0  0  0
    4.4080    4.8548   14.9453 C   0  0  0  0  0  0  0  0  0  0  0  0
    3.6364    3.6245   14.9054 C   0  0  0  0  0  0  0  0  0  0  0  0
    3.0271    3.0629   13.7783 C   0  0  0  0  0  0  0  0  0  0  0  0
    2.3802    1.9462   14.1422 N   0  0  0  0  0  0  0  0  0  0  0  0
    2.5483    1.7677   15.4555 C   0  0  0  0  0  0  0  0  0  0  0  0
    3.3097    2.7899   15.9024 N   0  0  0  0  0  0  0  0  0  0  0  0
    3.5790    2.8777   16.9032 H   0  0  0  0  0  0  0  0  0  0  0  0
    3.1518    9.2140   15.1289 C   0  0  0  0  0  0  0  0  0  0  0  0
    2.5595    8.2917   14.1569 C   0  0  0  0  0  0  0  0  0  0  0  0
    1.7355    7.2272   14.5434 C   0  0  0  0  0  0  0  0  0  0  0  0
    1.1772    6.3539   13.6575 C   0  0  0  0  0  0  0  0  0  0  0  0
    1.4277    6.5144   12.3078 C   0  0  0  0  0  0  0  0  0  0  0  0
    2.2259    7.5413   11.8977 C   0  0  0  0  0  0  0  0  0  0  0  0
    2.7895    8.4233   12.8069 C   0  0  0  0  0  0  0  0  0  0  0  0
 21 22  1  0  0  0
 22 25  1  0  0  0
 25 26  1  0  0  0
 26 27  1  0  0  0
 27 28  1  0  0  0
 28 29  1  0  0  0
 28 30  2  0  0  0
 22  1  1  0  0  0
  1  2  1  0  0  0
  2  3  1  0  0  0
  3  4  2  0  0  0
  3  5  1  0  0  0
  5 32  1  0  0  0
 32 33  1  0  0  0
 33 34  2  0  0  0
 34 35  1  0  0  0
 35 36  2  0  0  0
 36 37  1  0  0  0
 36 38  1  0  0  0
 38 39  2  0  0  0
  5  6  1  0  0  0
  6  7  1  0  0  0
  7  8  2  0  0  0
  7  9  1  0  0  0
  9 41  1  0  0  0
 41 42  1  0  0  0
 42 43  2  0  0  0
 43 44  1  0  0  0
 44 45  2  0  0  0
 45 46  1  0  0  0
  9 10  1  0  0  0
 10 11  1  0  0  0
 11 12  2  0  0  0
 11 13  1  0  0  0
 13 48  1  0  0  0
 48 49  1  0  0  0
 49 50  2  0  0  0
 50 51  1  0  0  0
 51 52  2  0  0  0
 52 53  1  0  0  0
 53 54  2  0  0  0
 13 14  1  0  0  0
 14 15  1  0  0  0
 15 16  2  0  0  0
 15  1  1  0  0  0
 39 33  1  0  0  0
 46 42  1  0  0  0
 54 49  1  0  0  0
 21 23  1  0  0  0
 21 24  1  0  0  0
 29 31  1  0  0  0
  2 17  1  0  0  0
 37 40  1  0  0  0
  6 18  1  0  0  0
 46 47  1  0  0  0
 10 19  1  0  0  0
 14 20  1  0  0  0
M  END
> <minimizedAffinity>
-8.71134

> <CNNscore>
0.4106365740

> <CNNaffinity>
6.8533630371

> <CNN_VS>
2.8142414093

> <CNNaffinity_variance>
0.4713160992

$$$$
[H]OC(=O)C([H])([H])C([H])([H])C([H])([H])[C@]([H])(N([H])[H])[C@]1([H])C(=O)N([H])[C@@]([H])(C([H])([H])c2c([H])c([H])c([H])c([H])c2[H])C(=O)N([H])[C@@]([H])(C([H])([H])c2c([H])nc([H])n2[H])C(=O)N([H])[C@@]([H])(C([H])([H])c2c([H])c([H])c(O[H])c([H])c2[H])C(=O)N1[H]


 54 57  0  0  0  0  0  0  0  0999 V2000
    2.0767    6.8001   12.6664 C   0  0  0  0  0  0  0  0  0  0  0  0
    3.2943    6.7414   11.8899 N   0  0  0  0  0  0  0  0  0  0  0  0
    4.1938    5.6799   11.7375 C   0  0  0  0  0  0  0  0  0  0  0  0
    5.4124    5.9120   12.0876 O   0  0  0  0  0  0  0  0  0  0  0  0
    3.9565    4.3164   11.2291 C   0  0  0  0  0  0  0  0  0  0  0  0
    2.9457    3.5701   11.9232 N   0  0  0  0  0  0  0  0  0  0  0  0
    3.0215    2.8626   13.1450 C   0  0  0  0  0  0  0  0  0  0  0  0
    2.6843    1.6295   13.1801 O   0  0  0  0  0  0  0  0  0  0  0  0
    3.4645    3.4318   14.4289 C   0  0  0  0  0  0  0  0  0  0  0  0
    2.3376    3.9438   15.2066 N   0  0  0  0  0  0  0  0  0  0  0  0
    2.4131    5.0776   16.0491 C   0  0  0  0  0  0  0  0  0  0  0  0
    1.7609    5.0937   17.1517 O   0  0  0  0  0  0  0  0  0  0  0  0
    3.2125    6.2974   15.7635 C   0  0  0  0  0  0  0  0  0  0  0  0
    2.4579    7.3436   15.1614 N   0  0  0  0  0  0  0  0  0  0  0  0
    2.3888    7.7246   13.8150 C   0  0  0  0  0  0  0  0  0  0  0  0
    2.5972    8.9452   13.4601 O   0  0  0  0  0  0  0  0  0  0  0  0
    3.5076    7.6552   11.3776 H   0  0  0  0  0  0  0  0  0  0  0  0
    1.9877    3.5349   11.4511 H   0  0  0  0  0  0  0  0  0  0  0  0
    1.4226    3.4500   15.1376 H   0  0  0  0  0  0  0  0  0  0  0  0
    1.8569    7.9334   15.8194 H   0  0  0  0  0  0  0  0  0  0  0  0
    1.5539    8.4319   10.8785 N   0  0  0  0  0  0  0  0  0  0  0  0
    1.0011    7.5741   11.8762 C   0  0  0  0  0  0  0  0  0  0  0  0
    2.3289    7.9352   10.3865 H   0  0  0  0  0  0  0  0  0  0  0  0
    1.8898    9.3184   11.3161 H   0  0  0  0  0  0  0  0  0  0  0  0
    0.0910    6.5980   11.1339 C   0  0  0  0  0  0  0  0  0  0  0  0
   -1.3090    6.8568   11.7081 C   0  0  0  0  0  0  0  0  0  0  0  0
   -1.5290    5.9008   12.8604 C   0  0  0  0  0  0  0  0  0  0  0  0
   -1.6595    6.6446   14.1448 C   0  0  0  0  0  0  0  0  0  0  0  0
   -2.8995    7.1372   14.5226 O   0  0  0  0  0  0  0  0  0  0  0  0
   -0.7038    6.8612   14.9265 O   0  0  0  0  0  0  0  0  0  0  0  0
   -3.1010    8.0925   14.7351 H   0  0  0  0  0  0  0  0  0  0  0  0
    3.5564    4.3197    9.7531 C   0  0  0  0  0  0  0  0  0  0  0  0
    4.5067    5.0598    8.8910 C   0  0  0  0  0  0  0  0  0  0  0  0
    5.8252    4.6661    8.7683 C   0  0  0  0  0  0  0  0  0  0  0  0
    6.7257    5.3377    7.9658 C   0  0  0  0  0  0  0  0  0  0  0  0
    6.3210    6.4415    7.2524 C   0  0  0  0  0  0  0  0  0  0  0  0
    7.2637    7.0804    6.4610 O   0  0  0  0  0  0  0  0  0  0  0  0
    5.0198    6.8652    7.3474 C   0  0  0  0  0  0  0  0  0  0  0  0
    4.1267    6.1755    8.1615 C   0  0  0  0  0  0  0  0  0  0  0  0
    7.3910    6.7977    5.4797 H   0  0  0  0  0  0  0  0  0  0  0  0
    4.2646    2.5969   15.3386 C   0  0  0  0  0  0  0  0  0  0  0  0
    3.5971    1.7739   16.3324 C   0  0  0  0  0  0  0  0  0  0  0  0
    2.6777    0.7501   16.0806 C   0  0  0  0  0  0  0  0  0  0  0  0
    2.2567    0.2439   17.2487 N   0  0  0  0  0  0  0  0  0  0  0  0
    2.8669    0.9000   18.2396 C   0  0  0  0  0  0  0  0  0  0  0  0
    3.6738    1.8213   17.6700 N   0  0  0  0  0  0  0  0  0  0  0  0
    4.2586    2.4664   18.2390 H   0  0  0  0  0  0  0  0  0  0  0  0
    3.8257    6.7581   17.1009 C   0  0  0  0  0  0  0  0  0  0  0  0
    5.0333    7.5619   16.8959 C   0  0  0  0  0  0  0  0  0  0  0  0
    5.9311    7.8390   17.9345 C   0  0  0  0  0  0  0  0  0  0  0  0
    7.0583    8.5881   17.7685 C   0  0  0  0  0  0  0  0  0  0  0  0
    7.3423    9.1063   16.5191 C   0  0  0  0  0  0  0  0  0  0  0  0
    6.4885    8.8549   15.4858 C   0  0  0  0  0  0  0  0  0  0  0  0
    5.3445    8.0927   15.6654 C   0  0  0  0  0  0  0  0  0  0  0  0
 21 22  1  0  0  0
 22 25  1  0  0  0
 25 26  1  0  0  0
 26 27  1  0  0  0
 27 28  1  0  0  0
 28 29  1  0  0  0
 28 30  2  0  0  0
 22  1  1  0  0  0
  1  2  1  0  0  0
  2  3  1  0  0  0
  3  4  2  0  0  0
  3  5  1  0  0  0
  5 32  1  0  0  0
 32 33  1  0  0  0
 33 34  2  0  0  0
 34 35  1  0  0  0
 35 36  2  0  0  0
 36 37  1  0  0  0
 36 38  1  0  0  0
 38 39  2  0  0  0
  5  6  1  0  0  0
  6  7  1  0  0  0
  7  8  2  0  0  0
  7  9  1  0  0  0
  9 41  1  0  0  0
 41 42  1  0  0  0
 42 43  2  0  0  0
 43 44  1  0  0  0
 44 45  2  0  0  0
 45 46  1  0  0  0
  9 10  1  0  0  0
 10 11  1  0  0  0
 11 12  2  0  0  0
 11 13  1  0  0  0
 13 48  1  0  0  0
 48 49  1  0  0  0
 49 50  2  0  0  0
 50 51  1  0  0  0
 51 52  2  0  0  0
 52 53  1  0  0  0
 53 54  2  0  0  0
 13 14  1  0  0  0
 14 15  1  0  0  0
 15 16  2  0  0  0
 15  1  1  0  0  0
 39 33  1  0  0  0
 46 42  1  0  0  0
 54 49  1  0  0  0
 21 23  1  0  0  0
 21 24  1  0  0  0
 29 31  1  0  0  0
  2 17  1  0  0  0
 37 40  1  0  0  0
  6 18  1  0  0  0
 46 47  1  0  0  0
 10 19  1  0  0  0
 14 20  1  0  0  0
M  END
> <minimizedAffinity>
-6.96092

> <CNNscore>
0.2807327509

> <CNNaffinity>
6.3030037880

> <CNN_VS>
1.7694596052

> <CNNaffinity_variance>
0.4991938472

$$$$
[H]OC(=O)C([H])([H])C([H])([H])C([H])([H])[C@]([H])(N([H])[H])[C@]1([H])C(=O)N([H])[C@@]([H])(C([H])([H])c2c([H])c([H])c([H])c([H])c2[H])C(=O)N([H])[C@@]([H])(C([H])([H])c2c([H])nc([H])n2[H])C(=O)N([H])[C@@]([H])(C([H])([H])c2c([H])c([H])c(O[H])c([H])c2[H])C(=O)N1[H]


 54 57  0  0  0  0  0  0  0  0999 V2000
    3.0810    3.7215   14.9098 C   0  0  0  0  0  0  0  0  0  0  0  0
    1.7964    4.3493   14.6977 N   0  0  0  0  0  0  0  0  0  0  0  0
    1.4861    5.7097   14.5875 C   0  0  0  0  0  0  0  0  0  0  0  0
    0.6375    6.1706   15.4412 O   0  0  0  0  0  0  0  0  0  0  0  0
    1.9890    6.7107   13.6289 C   0  0  0  0  0  0  0  0  0  0  0  0
    3.4152    6.8699   13.5996 N   0  0  0  0  0  0  0  0  0  0  0  0
    4.2627    7.5986   14.4654 C   0  0  0  0  0  0  0  0  0  0  0  0
    5.0561    8.4755   13.9785 O   0  0  0  0  0  0  0  0  0  0  0  0
    4.3240    7.4360   15.9278 C   0  0  0  0  0  0  0  0  0  0  0  0
    5.3490    6.4696   16.3180 N   0  0  0  0  0  0  0  0  0  0  0  0
    5.2318    5.6038   17.4306 C   0  0  0  0  0  0  0  0  0  0  0  0
    6.2672    5.3296   18.1335 O   0  0  0  0  0  0  0  0  0  0  0  0
    3.9689    4.9608   17.8781 C   0  0  0  0  0  0  0  0  0  0  0  0
    3.8012    3.6350   17.3876 N   0  0  0  0  0  0  0  0  0  0  0  0
    3.0244    3.1788   16.3146 C   0  0  0  0  0  0  0  0  0  0  0  0
    2.1753    2.2228   16.4704 O   0  0  0  0  0  0  0  0  0  0  0  0
    0.9948    3.6458   14.6235 H   0  0  0  0  0  0  0  0  0  0  0  0
    3.9225    6.3682   12.8041 H   0  0  0  0  0  0  0  0  0  0  0  0
    6.2172    6.4093   15.7450 H   0  0  0  0  0  0  0  0  0  0  0  0
    4.3351    2.8674   17.9051 H   0  0  0  0  0  0  0  0  0  0  0  0
    2.0541    1.5820   14.2026 N   0  0  0  0  0  0  0  0  0  0  0  0
    3.1782    2.4472   14.0456 C   0  0  0  0  0  0  0  0  0  0  0  0
    1.1798    2.1516   14.2237 H   0  0  0  0  0  0  0  0  0  0  0  0
    2.1583    1.0157   15.0736 H   0  0  0  0  0  0  0  0  0  0  0  0
    3.2190    2.8188   12.5650 C   0  0  0  0  0  0  0  0  0  0  0  0
    2.1615    1.9204   11.9083 C   0  0  0  0  0  0  0  0  0  0  0  0
    2.0934    2.2714   10.4378 C   0  0  0  0  0  0  0  0  0  0  0  0
    0.8723    1.6896    9.8132 C   0  0  0  0  0  0  0  0  0  0  0  0
    0.2609    2.3582    8.7634 O   0  0  0  0  0  0  0  0  0  0  0  0
    0.3465    0.6120   10.1789 O   0  0  0  0  0  0  0  0  0  0  0  0
   -0.6946    2.6499    8.7429 H   0  0  0  0  0  0  0  0  0  0  0  0
    1.5583    6.3947   12.1960 C   0  0  0  0  0  0  0  0  0  0  0  0
    0.1363    5.9946   12.0872 C   0  0  0  0  0  0  0  0  0  0  0  0
   -0.2380    4.8329   11.4400 C   0  0  0  0  0  0  0  0  0  0  0  0
   -1.5566    4.4384   11.3324 C   0  0  0  0  0  0  0  0  0  0  0  0
   -2.5528    5.2119   11.8808 C   0  0  0  0  0  0  0  0  0  0  0  0
   -3.8608    4.7716   11.7457 O   0  0  0  0  0  0  0  0  0  0  0  0
   -2.2226    6.3735   12.5315 C   0  0  0  0  0  0  0  0  0  0  0  0
   -0.8881    6.7548   12.6295 C   0  0  0  0  0  0  0  0  0  0  0  0
   -4.2771    4.1621   12.4629 H   0  0  0  0  0  0  0  0  0  0  0  0
    4.5208    8.6275   16.7682 C   0  0  0  0  0  0  0  0  0  0  0  0
    5.8644    9.0151   17.1618 C   0  0  0  0  0  0  0  0  0  0  0  0
    6.3570    9.0917   18.4688 C   0  0  0  0  0  0  0  0  0  0  0  0
    7.6286    9.5158   18.4323 N   0  0  0  0  0  0  0  0  0  0  0  0
    7.9726    9.7150   17.1569 C   0  0  0  0  0  0  0  0  0  0  0  0
    6.8961    9.4080   16.4011 N   0  0  0  0  0  0  0  0  0  0  0  0
    6.9124    9.4864   15.3641 H   0  0  0  0  0  0  0  0  0  0  0  0
    3.9734    4.9827   19.4196 C   0  0  0  0  0  0  0  0  0  0  0  0
    4.5416    3.7534   19.9782 C   0  0  0  0  0  0  0  0  0  0  0  0
    5.5919    3.7699   20.9047 C   0  0  0  0  0  0  0  0  0  0  0  0
    6.1396    2.6391   21.4344 C   0  0  0  0  0  0  0  0  0  0  0  0
    5.6442    1.4082   21.0474 C   0  0  0  0  0  0  0  0  0  0  0  0
    4.6214    1.3569   20.1468 C   0  0  0  0  0  0  0  0  0  0  0  0
    4.0721    2.5127   19.6136 C   0  0  0  0  0  0  0  0  0  0  0  0
 21 22  1  0  0  0
 22 25  1  0  0  0
 25 26  1  0  0  0
 26 27  1  0  0  0
 27 28  1  0  0  0
 28 29  1  0  0  0
 28 30  2  0  0  0
 22  1  1  0  0  0
  1  2  1  0  0  0
  2  3  1  0  0  0
  3  4  2  0  0  0
  3  5  1  0  0  0
  5 32  1  0  0  0
 32 33  1  0  0  0
 33 34  2  0  0  0
 34 35  1  0  0  0
 35 36  2  0  0  0
 36 37  1  0  0  0
 36 38  1  0  0  0
 38 39  2  0  0  0
  5  6  1  0  0  0
  6  7  1  0  0  0
  7  8  2  0  0  0
  7  9  1  0  0  0
  9 41  1  0  0  0
 41 42  1  0  0  0
 42 43  2  0  0  0
 43 44  1  0  0  0
 44 45  2  0  0  0
 45 46  1  0  0  0
  9 10  1  0  0  0
 10 11  1  0  0  0
 11 12  2  0  0  0
 11 13  1  0  0  0
 13 48  1  0  0  0
 48 49  1  0  0  0
 49 50  2  0  0  0
 50 51  1  0  0  0
 51 52  2  0  0  0
 52 53  1  0  0  0
 53 54  2  0  0  0
 13 14  1  0  0  0
 14 15  1  0  0  0
 15 16  2  0  0  0
 15  1  1  0  0  0
 39 33  1  0  0  0
 46 42  1  0  0  0
 54 49  1  0  0  0
 21 23  1  0  0  0
 21 24  1  0  0  0
 29 31  1  0  0  0
  2 17  1  0  0  0
 37 40  1  0  0  0
  6 18  1  0  0  0
 46 47  1  0  0  0
 10 19  1  0  0  0
 14 20  1  0  0  0
M  END
> <minimizedAffinity>
-7.81003

> <CNNscore>
0.2722344398

> <CNNaffinity>
6.5623130798

> <CNN_VS>
1.7864875793

> <CNNaffinity_variance>
0.5525662899

$$$$
[H]OC(=O)C([H])([H])C([H])([H])C([H])([H])[C@]([H])(N([H])[H])[C@]1([H])C(=O)N([H])[C@@]([H])(C([H])([H])c2c([H])c([H])c([H])c([H])c2[H])C(=O)N([H])[C@@]([H])(C([H])([H])c2c([H])nc([H])n2[H])C(=O)N([H])[C@@]([H])(C([H])([H])c2c([H])c([H])c(O[H])c([H])c2[H])C(=O)N1[H]


 54 57  0  0  0  0  0  0  0  0999 V2000
    6.5985    3.1338    7.6530 C   0  0  0  0  0  0  0  0  0  0  0  0
    6.8474    4.1544    8.6457 N   0  0  0  0  0  0  0  0  0  0  0  0
    6.0779    5.2782    8.9686 C   0  0  0  0  0  0  0  0  0  0  0  0
    6.6636    6.4207    8.8544 O   0  0  0  0  0  0  0  0  0  0  0  0
    4.6788    5.3553    9.4272 C   0  0  0  0  0  0  0  0  0  0  0  0
    3.7134    4.7462    8.5569 N   0  0  0  0  0  0  0  0  0  0  0  0
    3.1204    5.2433    7.3736 C   0  0  0  0  0  0  0  0  0  0  0  0
    1.8458    5.2879    7.2792 O   0  0  0  0  0  0  0  0  0  0  0  0
    3.8571    5.7294    6.1948 C   0  0  0  0  0  0  0  0  0  0  0  0
    4.0682    4.6637    5.2166 N   0  0  0  0  0  0  0  0  0  0  0  0
    5.2187    4.5613    4.4000 C   0  0  0  0  0  0  0  0  0  0  0  0
    5.1061    4.1440    3.1940 O   0  0  0  0  0  0  0  0  0  0  0  0
    6.5986    4.9097    4.8278 C   0  0  0  0  0  0  0  0  0  0  0  0
    7.3556    3.7894    5.2733 N   0  0  0  0  0  0  0  0  0  0  0  0
    7.6315    3.3699    6.5812 C   0  0  0  0  0  0  0  0  0  0  0  0
    8.8410    3.1496    6.9653 O   0  0  0  0  0  0  0  0  0  0  0  0
    7.7565    3.9985    9.1863 H   0  0  0  0  0  0  0  0  0  0  0  0
    3.3838    3.7698    8.8395 H   0  0  0  0  0  0  0  0  0  0  0  0
    3.3324    3.9332    5.1130 H   0  0  0  0  0  0  0  0  0  0  0  0
    7.7839    3.1741    4.5117 H   0  0  0  0  0  0  0  0  0  0  0  0
    7.4967    1.8299    9.5570 N   0  0  0  0  0  0  0  0  0  0  0  0
    6.9941    1.7560    8.2232 C   0  0  0  0  0  0  0  0  0  0  0  0
    6.9109    2.4927   10.1108 H   0  0  0  0  0  0  0  0  0  0  0  0
    8.4974    2.1276    9.5454 H   0  0  0  0  0  0  0  0  0  0  0  0
    5.7718    0.8426    8.2847 C   0  0  0  0  0  0  0  0  0  0  0  0
    6.1789   -0.2898    9.2379 C   0  0  0  0  0  0  0  0  0  0  0  0
    4.9300   -0.7991    9.9241 C   0  0  0  0  0  0  0  0  0  0  0  0
    4.1260   -1.6434    8.9964 C   0  0  0  0  0  0  0  0  0  0  0  0
    4.7632   -2.6053    8.2271 O   0  0  0  0  0  0  0  0  0  0  0  0
    2.8840   -1.5428    8.8596 O   0  0  0  0  0  0  0  0  0  0  0  0
    4.7225   -2.6678    7.2307 H   0  0  0  0  0  0  0  0  0  0  0  0
    4.4925    4.7099   10.8009 C   0  0  0  0  0  0  0  0  0  0  0  0
    3.8758    5.6181   11.7953 C   0  0  0  0  0  0  0  0  0  0  0  0
    3.7178    6.9664   11.5393 C   0  0  0  0  0  0  0  0  0  0  0  0
    3.1402    7.8291   12.4492 C   0  0  0  0  0  0  0  0  0  0  0  0
    2.6977    7.3544   13.6618 C   0  0  0  0  0  0  0  0  0  0  0  0
    2.1248    8.2614   14.5404 O   0  0  0  0  0  0  0  0  0  0  0  0
    2.8368    6.0215   13.9547 C   0  0  0  0  0  0  0  0  0  0  0  0
    3.4216    5.1674   13.0249 C   0  0  0  0  0  0  0  0  0  0  0  0
    1.1106    8.4343   14.5155 H   0  0  0  0  0  0  0  0  0  0  0  0
    3.3312    6.8875    5.4553 C   0  0  0  0  0  0  0  0  0  0  0  0
    2.8112    8.0305    6.1857 C   0  0  0  0  0  0  0  0  0  0  0  0
    3.5551    8.9353    6.9506 C   0  0  0  0  0  0  0  0  0  0  0  0
    2.7226    9.8335    7.4967 N   0  0  0  0  0  0  0  0  0  0  0  0
    1.4758    9.5430    7.1149 C   0  0  0  0  0  0  0  0  0  0  0  0
    1.5457    8.4511    6.3229 N   0  0  0  0  0  0  0  0  0  0  0  0
    0.6969    8.0244    5.8994 H   0  0  0  0  0  0  0  0  0  0  0  0
    7.2825    5.5967    3.6290 C   0  0  0  0  0  0  0  0  0  0  0  0
    7.3285    7.0519    3.7912 C   0  0  0  0  0  0  0  0  0  0  0  0
    7.5998    7.9144    2.7216 C   0  0  0  0  0  0  0  0  0  0  0  0
    7.6522    9.2709    2.8496 C   0  0  0  0  0  0  0  0  0  0  0  0
    7.4286    9.8375    4.0902 C   0  0  0  0  0  0  0  0  0  0  0  0
    7.1615    9.0257    5.1530 C   0  0  0  0  0  0  0  0  0  0  0  0
    7.1113    7.6474    5.0123 C   0  0  0  0  0  0  0  0  0  0  0  0
 21 22  1  0  0  0
 22 25  1  0  0  0
 25 26  1  0  0  0
 26 27  1  0  0  0
 27 28  1  0  0  0
 28 29  1  0  0  0
 28 30  2  0  0  0
 22  1  1  0  0  0
  1  2  1  0  0  0
  2  3  1  0  0  0
  3  4  2  0  0  0
  3  5  1  0  0  0
  5 32  1  0  0  0
 32 33  1  0  0  0
 33 34  2  0  0  0
 34 35  1  0  0  0
 35 36  2  0  0  0
 36 37  1  0  0  0
 36 38  1  0  0  0
 38 39  2  0  0  0
  5  6  1  0  0  0
  6  7  1  0  0  0
  7  8  2  0  0  0
  7  9  1  0  0  0
  9 41  1  0  0  0
 41 42  1  0  0  0
 42 43  2  0  0  0
 43 44  1  0  0  0
 44 45  2  0  0  0
 45 46  1  0  0  0
  9 10  1  0  0  0
 10 11  1  0  0  0
 11 12  2  0  0  0
 11 13  1  0  0  0
 13 48  1  0  0  0
 48 49  1  0  0  0
 49 50  2  0  0  0
 50 51  1  0  0  0
 51 52  2  0  0  0
 52 53  1  0  0  0
 53 54  2  0  0  0
 13 14  1  0  0  0
 14 15  1  0  0  0
 15 16  2  0  0  0
 15  1  1  0  0  0
 39 33  1  0  0  0
 46 42  1  0  0  0
 54 49  1  0  0  0
 21 23  1  0  0  0
 21 24  1  0  0  0
 29 31  1  0  0  0
  2 17  1  0  0  0
 37 40  1  0  0  0
  6 18  1  0  0  0
 46 47  1  0  0  0
 10 19  1  0  0  0
 14 20  1  0  0  0
M  END
> <minimizedAffinity>
-5.85298

> <CNNscore>
0.2274134308

> <CNNaffinity>
5.6772818565

> <CNN_VS>
1.2910901308

> <CNNaffinity_variance>
0.8670682907

$$$$
[H]OC(=O)C([H])([H])C([H])([H])C([H])([H])[C@]([H])(N([H])[H])[C@]1([H])C(=O)N([H])[C@@]([H])(C([H])([H])c2c([H])c([H])c([H])c([H])c2[H])C(=O)N([H])[C@@]([H])(C([H])([H])c2c([H])nc([H])n2[H])C(=O)N([H])[C@@]([H])(C([H])([H])c2c([H])c([H])c(O[H])c([H])c2[H])C(=O)N1[H]


 54 57  0  0  0  0  0  0  0  0999 V2000
    3.2830    5.1917   16.9868 C   0  0  0  0  0  0  0  0  0  0  0  0
    4.5206    4.4451   16.9896 N   0  0  0  0  0  0  0  0  0  0  0  0
    5.5383    4.4269   17.9504 C   0  0  0  0  0  0  0  0  0  0  0  0
    6.7126    4.7669   17.5418 O   0  0  0  0  0  0  0  0  0  0  0  0
    5.4711    4.0719   19.3798 C   0  0  0  0  0  0  0  0  0  0  0  0
    4.5324    4.8305   20.1568 N   0  0  0  0  0  0  0  0  0  0  0  0
    4.6537    6.1252   20.7118 C   0  0  0  0  0  0  0  0  0  0  0  0
    4.4574    6.2940   21.9642 O   0  0  0  0  0  0  0  0  0  0  0  0
    4.9935    7.3433   19.9572 C   0  0  0  0  0  0  0  0  0  0  0  0
    3.7946    8.0413   19.4963 N   0  0  0  0  0  0  0  0  0  0  0  0
    3.7178    8.7517   18.2754 C   0  0  0  0  0  0  0  0  0  0  0  0
    3.0375    9.8355   18.2134 O   0  0  0  0  0  0  0  0  0  0  0  0
    4.3817    8.3424   17.0104 C   0  0  0  0  0  0  0  0  0  0  0  0
    3.5306    7.6150   16.1312 N   0  0  0  0  0  0  0  0  0  0  0  0
    3.4564    6.2333   15.9115 C   0  0  0  0  0  0  0  0  0  0  0  0
    3.5350    5.7463   14.7217 O   0  0  0  0  0  0  0  0  0  0  0  0
    4.6432    3.8364   16.1194 H   0  0  0  0  0  0  0  0  0  0  0  0
    3.5980    4.3510   20.3544 H   0  0  0  0  0  0  0  0  0  0  0  0
    2.9437    8.0147   20.0971 H   0  0  0  0  0  0  0  0  0  0  0  0
    2.8486    8.1933   15.5460 H   0  0  0  0  0  0  0  0  0  0  0  0
    1.4452    4.9100   15.3510 N   0  0  0  0  0  0  0  0  0  0  0  0
    2.1492    4.3033   16.4343 C   0  0  0  0  0  0  0  0  0  0  0  0
    2.1280    5.3707   14.7100 H   0  0  0  0  0  0  0  0  0  0  0  0
    0.7480    5.5954   15.7176 H   0  0  0  0  0  0  0  0  0  0  0  0
    2.7241    2.9998   15.8843 C   0  0  0  0  0  0  0  0  0  0  0  0
    1.8870    2.7021   14.6324 C   0  0  0  0  0  0  0  0  0  0  0  0
    2.8218    2.2169   13.5457 C   0  0  0  0  0  0  0  0  0  0  0  0
    2.7539    3.1095   12.3547 C   0  0  0  0  0  0  0  0  0  0  0  0
    2.2516    4.3944   12.4955 O   0  0  0  0  0  0  0  0  0  0  0  0
    3.1283    2.7722   11.2070 O   0  0  0  0  0  0  0  0  0  0  0  0
    1.4873    4.7756   11.9768 H   0  0  0  0  0  0  0  0  0  0  0  0
    5.1145    2.5991   19.5855 C   0  0  0  0  0  0  0  0  0  0  0  0
    4.9441    2.2319   21.0103 C   0  0  0  0  0  0  0  0  0  0  0  0
    5.9161    2.5178   21.9494 C   0  0  0  0  0  0  0  0  0  0  0  0
    5.7749    2.1900   23.2830 C   0  0  0  0  0  0  0  0  0  0  0  0
    4.6350    1.5554   23.7182 C   0  0  0  0  0  0  0  0  0  0  0  0
    4.5420    1.2480   25.0673 O   0  0  0  0  0  0  0  0  0  0  0  0
    3.6462    1.2533   22.8167 C   0  0  0  0  0  0  0  0  0  0  0  0
    3.8066    1.5916   21.4766 C   0  0  0  0  0  0  0  0  0  0  0  0
    4.1219    1.9214   25.7224 H   0  0  0  0  0  0  0  0  0  0  0  0
    5.8573    8.3532   20.5886 C   0  0  0  0  0  0  0  0  0  0  0  0
    7.2865    8.1134   20.6911 C   0  0  0  0  0  0  0  0  0  0  0  0
    8.0737    7.3901   19.7888 C   0  0  0  0  0  0  0  0  0  0  0  0
    9.3368    7.3601   20.2376 N   0  0  0  0  0  0  0  0  0  0  0  0
    9.3934    8.0332   21.3902 C   0  0  0  0  0  0  0  0  0  0  0  0
    8.1466    8.4825   21.6509 N   0  0  0  0  0  0  0  0  0  0  0  0
    7.9296    9.0372   22.5036 H   0  0  0  0  0  0  0  0  0  0  0  0
    4.9013    9.6284   16.3373 C   0  0  0  0  0  0  0  0  0  0  0  0
    5.6439    9.3360   15.1088 C   0  0  0  0  0  0  0  0  0  0  0  0
    7.0071    9.0144   15.1188 C   0  0  0  0  0  0  0  0  0  0  0  0
    7.7197    8.7431   13.9884 C   0  0  0  0  0  0  0  0  0  0  0  0
    7.0787    8.7836   12.7646 C   0  0  0  0  0  0  0  0  0  0  0  0
    5.7513    9.0933   12.7197 C   0  0  0  0  0  0  0  0  0  0  0  0
    5.0361    9.3684   13.8751 C   0  0  0  0  0  0  0  0  0  0  0  0
 21 22  1  0  0  0
 22 25  1  0  0  0
 25 26  1  0  0  0
 26 27  1  0  0  0
 27 28  1  0  0  0
 28 29  1  0  0  0
 28 30  2  0  0  0
 22  1  1  0  0  0
  1  2  1  0  0  0
  2  3  1  0  0  0
  3  4  2  0  0  0
  3  5  1  0  0  0
  5 32  1  0  0  0
 32 33  1  0  0  0
 33 34  2  0  0  0
 34 35  1  0  0  0
 35 36  2  0  0  0
 36 37  1  0  0  0
 36 38  1  0  0  0
 38 39  2  0  0  0
  5  6  1  0  0  0
  6  7  1  0  0  0
  7  8  2  0  0  0
  7  9  1  0  0  0
  9 41  1  0  0  0
 41 42  1  0  0  0
 42 43  2  0  0  0
 43 44  1  0  0  0
 44 45  2  0  0  0
 45 46  1  0  0  0
  9 10  1  0  0  0
 10 11  1  0  0  0
 11 12  2  0  0  0
 11 13  1  0  0  0
 13 48  1  0  0  0
 48 49  1  0  0  0
 49 50  2  0  0  0
 50 51  1  0  0  0
 51 52  2  0  0  0
 52 53  1  0  0  0
 53 54  2  0  0  0
 13 14  1  0  0  0
 14 15  1  0  0  0
 15 16  2  0  0  0
 15  1  1  0  0  0
 39 33  1  0  0  0
 46 42  1  0  0  0
 54 49  1  0  0  0
 21 23  1  0  0  0
 21 24  1  0  0  0
 29 31  1  0  0  0
  2 17  1  0  0  0
 37 40  1  0  0  0
  6 18  1  0  0  0
 46 47  1  0  0  0
 10 19  1  0  0  0
 14 20  1  0  0  0
M  END
> <minimizedAffinity>
-8.52218

> <CNNscore>
0.2158552557

> <CNNaffinity>
6.4050188065

> <CNN_VS>
1.3825569153

> <CNNaffinity_variance>
0.3642747402

$$$$
[H]OC(=O)C([H])([H])C([H])([H])C([H])([H])[C@]([H])(N([H])[H])[C@]1([H])C(=O)N([H])[C@@]([H])(C([H])([H])c2c([H])c([H])c([H])c([H])c2[H])C(=O)N([H])[C@@]([H])(C([H])([H])c2c([H])nc([H])n2[H])C(=O)N([H])[C@@]([H])(C([H])([H])c2c([H])c([H])c(O[H])c([H])c2[H])C(=O)N1[H]


 54 57  0  0  0  0  0  0  0  0999 V2000
    4.6446    7.6261   14.5688 C   0  0  0  0  0  0  0  0  0  0  0  0
    3.2194    7.6971   14.7990 N   0  0  0  0  0  0  0  0  0  0  0  0
    2.2305    6.7491   14.5116 C   0  0  0  0  0  0  0  0  0  0  0  0
    1.2824    7.1355   13.7285 O   0  0  0  0  0  0  0  0  0  0  0  0
    2.1057    5.3553   14.9757 C   0  0  0  0  0  0  0  0  0  0  0  0
    3.2274    4.5086   14.6836 N   0  0  0  0  0  0  0  0  0  0  0  0
    3.5724    3.8447   13.4840 C   0  0  0  0  0  0  0  0  0  0  0  0
    3.7681    2.5810   13.4979 O   0  0  0  0  0  0  0  0  0  0  0  0
    3.7373    4.4936   12.1724 C   0  0  0  0  0  0  0  0  0  0  0  0
    5.1264    4.8836   11.9372 N   0  0  0  0  0  0  0  0  0  0  0  0
    5.5084    6.0378   11.2141 C   0  0  0  0  0  0  0  0  0  0  0  0
    6.5434    6.0008   10.4600 O   0  0  0  0  0  0  0  0  0  0  0  0
    4.7901    7.3384   11.2475 C   0  0  0  0  0  0  0  0  0  0  0  0
    5.3451    8.2708   12.1690 N   0  0  0  0  0  0  0  0  0  0  0  0
    4.9112    8.6086   13.4575 C   0  0  0  0  0  0  0  0  0  0  0  0
    4.7044    9.8366   13.7865 O   0  0  0  0  0  0  0  0  0  0  0  0
    2.9143    8.6176   15.2490 H   0  0  0  0  0  0  0  0  0  0  0  0
    3.9094    4.3463   15.4901 H   0  0  0  0  0  0  0  0  0  0  0  0
    5.8829    4.2810   12.3251 H   0  0  0  0  0  0  0  0  0  0  0  0
    6.2151    8.7988   11.8425 H   0  0  0  0  0  0  0  0  0  0  0  0
    4.5798    9.1492   16.5204 N   0  0  0  0  0  0  0  0  0  0  0  0
    5.3897    8.2449   15.7697 C   0  0  0  0  0  0  0  0  0  0  0  0
    3.6234    8.7463   16.6309 H   0  0  0  0  0  0  0  0  0  0  0  0
    4.5469   10.0781   16.0447 H   0  0  0  0  0  0  0  0  0  0  0  0
    5.8126    7.1497   16.7462 C   0  0  0  0  0  0  0  0  0  0  0  0
    6.2588    7.9029   18.0073 C   0  0  0  0  0  0  0  0  0  0  0  0
    6.5378    6.8833   19.0903 C   0  0  0  0  0  0  0  0  0  0  0  0
    7.8354    7.1713   19.7635 C   0  0  0  0  0  0  0  0  0  0  0  0
    8.8139    7.8778   19.0806 O   0  0  0  0  0  0  0  0  0  0  0  0
    8.1108    6.8111   20.9321 O   0  0  0  0  0  0  0  0  0  0  0  0
    9.7473    7.5606   18.9173 H   0  0  0  0  0  0  0  0  0  0  0  0
    1.8834    5.2751   16.4866 C   0  0  0  0  0  0  0  0  0  0  0  0
    2.6992    4.2275   17.1432 C   0  0  0  0  0  0  0  0  0  0  0  0
    2.5760    2.8958   16.7971 C   0  0  0  0  0  0  0  0  0  0  0  0
    3.3306    1.9044   17.3919 C   0  0  0  0  0  0  0  0  0  0  0  0
    4.2451    2.2277   18.3668 C   0  0  0  0  0  0  0  0  0  0  0  0
    4.9781    1.1955   18.9326 O   0  0  0  0  0  0  0  0  0  0  0  0
    4.3972    3.5391   18.7395 C   0  0  0  0  0  0  0  0  0  0  0  0
    3.6276    4.5243   18.1287 C   0  0  0  0  0  0  0  0  0  0  0  0
    5.8807    0.9184   18.5231 H   0  0  0  0  0  0  0  0  0  0  0  0
    3.2847    3.7837   10.9658 C   0  0  0  0  0  0  0  0  0  0  0  0
    1.9043    3.9126   10.5317 C   0  0  0  0  0  0  0  0  0  0  0  0
    0.9003    4.6522   11.1656 C   0  0  0  0  0  0  0  0  0  0  0  0
   -0.2467    4.5026   10.4876 N   0  0  0  0  0  0  0  0  0  0  0  0
   -0.0213    3.6977    9.4454 C   0  0  0  0  0  0  0  0  0  0  0  0
    1.2831    3.3496    9.4855 N   0  0  0  0  0  0  0  0  0  0  0  0
    1.7055    2.7185    8.7747 H   0  0  0  0  0  0  0  0  0  0  0  0
    4.8102    7.9016    9.8126 C   0  0  0  0  0  0  0  0  0  0  0  0
    3.6885    7.3980    9.0162 C   0  0  0  0  0  0  0  0  0  0  0  0
    2.3575    7.7126    9.3181 C   0  0  0  0  0  0  0  0  0  0  0  0
    1.2976    7.2520    8.5944 C   0  0  0  0  0  0  0  0  0  0  0  0
    1.5326    6.4331    7.5061 C   0  0  0  0  0  0  0  0  0  0  0  0
    2.8174    6.1076    7.1847 C   0  0  0  0  0  0  0  0  0  0  0  0
    3.8880    6.5806    7.9277 C   0  0  0  0  0  0  0  0  0  0  0  0
 21 22  1  0  0  0
 22 25  1  0  0  0
 25 26  1  0  0  0
 26 27  1  0  0  0
 27 28  1  0  0  0
 28 29  1  0  0  0
 28 30  2  0  0  0
 22  1  1  0  0  0
  1  2  1  0  0  0
  2  3  1  0  0  0
  3  4  2  0  0  0
  3  5  1  0  0  0
  5 32  1  0  0  0
 32 33  1  0  0  0
 33 34  2  0  0  0
 34 35  1  0  0  0
 35 36  2  0  0  0
 36 37  1  0  0  0
 36 38  1  0  0  0
 38 39  2  0  0  0
  5  6  1  0  0  0
  6  7  1  0  0  0
  7  8  2  0  0  0
  7  9  1  0  0  0
  9 41  1  0  0  0
 41 42  1  0  0  0
 42 43  2  0  0  0
 43 44  1  0  0  0
 44 45  2  0  0  0
 45 46  1  0  0  0
  9 10  1  0  0  0
 10 11  1  0  0  0
 11 12  2  0  0  0
 11 13  1  0  0  0
 13 48  1  0  0  0
 48 49  1  0  0  0
 49 50  2  0  0  0
 50 51  1  0  0  0
 51 52  2  0  0  0
 52 53  1  0  0  0
 53 54  2  0  0  0
 13 14  1  0  0  0
 14 15  1  0  0  0
 15 16  2  0  0  0
 15  1  1  0  0  0
 39 33  1  0  0  0
 46 42  1  0  0  0
 54 49  1  0  0  0
 21 23  1  0  0  0
 21 24  1  0  0  0
 29 31  1  0  0  0
  2 17  1  0  0  0
 37 40  1  0  0  0
  6 18  1  0  0  0
 46 47  1  0  0  0
 10 19  1  0  0  0
 14 20  1  0  0  0
M  END
> <minimizedAffinity>
-6.25054

> <CNNscore>
0.2135731727

> <CNNaffinity>
6.1703748703

> <CNN_VS>
1.3178265095

> <CNNaffinity_variance>
0.7579849362

$$$$
[H]OC(=O)C([H])([H])C([H])([H])C([H])([H])[C@]([H])(N([H])[H])[C@]1([H])C(=O)N([H])[C@@]([H])(C([H])([H])c2c([H])c([H])c([H])c([H])c2[H])C(=O)N([H])[C@@]([H])(C([H])([H])c2c([H])nc([H])n2[H])C(=O)N([H])[C@@]([H])(C([H])([H])c2c([H])c([H])c(O[H])c([H])c2[H])C(=O)N1[H]


 54 57  0  0  0  0  0  0  0  0999 V2000
    3.6169    4.9946   15.8463 C   0  0  0  0  0  0  0  0  0  0  0  0
    4.8003    4.2299   16.1687 N   0  0  0  0  0  0  0  0  0  0  0  0
    5.6451    4.3373   17.2795 C   0  0  0  0  0  0  0  0  0  0  0  0
    6.8853    4.5839   17.0293 O   0  0  0  0  0  0  0  0  0  0  0  0
    5.3281    4.2084   18.7136 C   0  0  0  0  0  0  0  0  0  0  0  0
    4.3123    5.0983   19.1998 N   0  0  0  0  0  0  0  0  0  0  0  0
    4.4028    6.4600   19.5692 C   0  0  0  0  0  0  0  0  0  0  0  0
    4.0127    6.8242   20.7314 O   0  0  0  0  0  0  0  0  0  0  0  0
    4.9193    7.5395   18.7108 C   0  0  0  0  0  0  0  0  0  0  0  0
    3.8467    8.1846   17.9557 N   0  0  0  0  0  0  0  0  0  0  0  0
    4.0046    8.7000   16.6479 C   0  0  0  0  0  0  0  0  0  0  0  0
    3.3962    9.7762   16.3119 O   0  0  0  0  0  0  0  0  0  0  0  0
    4.8461    8.0860   15.5880 C   0  0  0  0  0  0  0  0  0  0  0  0
    4.1166    7.2510   14.6953 N   0  0  0  0  0  0  0  0  0  0  0  0
    4.0134    5.8540   14.6734 C   0  0  0  0  0  0  0  0  0  0  0  0
    4.2622    5.1878   13.5995 O   0  0  0  0  0  0  0  0  0  0  0  0
    5.0344    3.4918   15.4316 H   0  0  0  0  0  0  0  0  0  0  0  0
    3.3364    4.6760   19.3055 H   0  0  0  0  0  0  0  0  0  0  0  0
    2.9087    8.2699   18.4014 H   0  0  0  0  0  0  0  0  0  0  0  0
    3.5679    7.7472   13.9241 H   0  0  0  0  0  0  0  0  0  0  0  0
    2.1850    2.9939   16.1284 N   0  0  0  0  0  0  0  0  0  0  0  0
    2.5476    4.0571   15.2480 C   0  0  0  0  0  0  0  0  0  0  0  0
    2.0914    3.3657   17.0991 H   0  0  0  0  0  0  0  0  0  0  0  0
    2.8982    2.2327   16.0815 H   0  0  0  0  0  0  0  0  0  0  0  0
    1.2615    4.8341   14.9753 C   0  0  0  0  0  0  0  0  0  0  0  0
    0.9575    4.5768   13.4928 C   0  0  0  0  0  0  0  0  0  0  0  0
    0.3816    5.8461   12.9033 C   0  0  0  0  0  0  0  0  0  0  0  0
    0.0692    6.8311   13.9766 C   0  0  0  0  0  0  0  0  0  0  0  0
    1.0024    7.8048   14.2989 O   0  0  0  0  0  0  0  0  0  0  0  0
   -1.0042    6.8415   14.6240 O   0  0  0  0  0  0  0  0  0  0  0  0
    1.3846    7.9596   15.2091 H   0  0  0  0  0  0  0  0  0  0  0  0
    4.8728    2.7932   19.0721 C   0  0  0  0  0  0  0  0  0  0  0  0
    4.8647    2.5328   20.5302 C   0  0  0  0  0  0  0  0  0  0  0  0
    3.8279    1.8483   21.1343 C   0  0  0  0  0  0  0  0  0  0  0  0
    3.8034    1.5897   22.4902 C   0  0  0  0  0  0  0  0  0  0  0  0
    4.8364    2.0181   23.2907 C   0  0  0  0  0  0  0  0  0  0  0  0
    4.7644    1.7329   24.6458 O   0  0  0  0  0  0  0  0  0  0  0  0
    5.8847    2.7019   22.7293 C   0  0  0  0  0  0  0  0  0  0  0  0
    5.8916    2.9533   21.3608 C   0  0  0  0  0  0  0  0  0  0  0  0
    5.1685    0.8600   25.0119 H   0  0  0  0  0  0  0  0  0  0  0  0
    5.7154    8.6151   19.3224 C   0  0  0  0  0  0  0  0  0  0  0  0
    6.8734    8.2798   20.1330 C   0  0  0  0  0  0  0  0  0  0  0  0
    8.1245    7.8669   19.6627 C   0  0  0  0  0  0  0  0  0  0  0  0
    8.9248    7.6192   20.7097 N   0  0  0  0  0  0  0  0  0  0  0  0
    8.2398    7.8553   21.8321 C   0  0  0  0  0  0  0  0  0  0  0  0
    7.0020    8.2538   21.4672 N   0  0  0  0  0  0  0  0  0  0  0  0
    6.2733    8.4954   22.1691 H   0  0  0  0  0  0  0  0  0  0  0  0
    5.5297    9.2410   14.8293 C   0  0  0  0  0  0  0  0  0  0  0  0
    6.2227    8.7668   13.6289 C   0  0  0  0  0  0  0  0  0  0  0  0
    5.5324    8.3390   12.4879 C   0  0  0  0  0  0  0  0  0  0  0  0
    6.1556    7.8894   11.3615 C   0  0  0  0  0  0  0  0  0  0  0  0
    7.5367    7.8481   11.3293 C   0  0  0  0  0  0  0  0  0  0  0  0
    8.2394    8.2579   12.4239 C   0  0  0  0  0  0  0  0  0  0  0  0
    7.5959    8.7125   13.5646 C   0  0  0  0  0  0  0  0  0  0  0  0
 21 22  1  0  0  0
 22 25  1  0  0  0
 25 26  1  0  0  0
 26 27  1  0  0  0
 27 28  1  0  0  0
 28 29  1  0  0  0
 28 30  2  0  0  0
 22  1  1  0  0  0
  1  2  1  0  0  0
  2  3  1  0  0  0
  3  4  2  0  0  0
  3  5  1  0  0  0
  5 32  1  0  0  0
 32 33  1  0  0  0
 33 34  2  0  0  0
 34 35  1  0  0  0
 35 36  2  0  0  0
 36 37  1  0  0  0
 36 38  1  0  0  0
 38 39  2  0  0  0
  5  6  1  0  0  0
  6  7  1  0  0  0
  7  8  2  0  0  0
  7  9  1  0  0  0
  9 41  1  0  0  0
 41 42  1  0  0  0
 42 43  2  0  0  0
 43 44  1  0  0  0
 44 45  2  0  0  0
 45 46  1  0  0  0
  9 10  1  0  0  0
 10 11  1  0  0  0
 11 12  2  0  0  0
 11 13  1  0  0  0
 13 48  1  0  0  0
 48 49  1  0  0  0
 49 50  2  0  0  0
 50 51  1  0  0  0
 51 52  2  0  0  0
 52 53  1  0  0  0
 53 54  2  0  0  0
 13 14  1  0  0  0
 14 15  1  0  0  0
 15 16  2  0  0  0
 15  1  1  0  0  0
 39 33  1  0  0  0
 46 42  1  0  0  0
 54 49  1  0  0  0
 21 23  1  0  0  0
 21 24  1  0  0  0
 29 31  1  0  0  0
  2 17  1  0  0  0
 37 40  1  0  0  0
  6 18  1  0  0  0
 46 47  1  0  0  0
 10 19  1  0  0  0
 14 20  1  0  0  0
M  END
> <minimizedAffinity>
-8.42608

> <CNNscore>
0.2064918727

> <CNNaffinity>
6.2214040756

> <CNN_VS>
1.2846693993

> <CNNaffinity_variance>
0.5456696153

$$$$
[H]OC(=O)C([H])([H])C([H])([H])C([H])([H])[C@]([H])(N([H])[H])[C@]1([H])C(=O)N([H])[C@@]([H])(C([H])([H])c2c([H])c([H])c([H])c([H])c2[H])C(=O)N([H])[C@@]([H])(C([H])([H])c2c([H])nc([H])n2[H])C(=O)N([H])[C@@]([H])(C([H])([H])c2c([H])c([H])c(O[H])c([H])c2[H])C(=O)N1[H]


 54 57  0  0  0  0  0  0  0  0999 V2000
    2.0321    6.7073   12.5331 C   0  0  0  0  0  0  0  0  0  0  0  0
    3.2509    6.6280   11.7601 N   0  0  0  0  0  0  0  0  0  0  0  0
    4.1716    5.5777   11.6691 C   0  0  0  0  0  0  0  0  0  0  0  0
    5.3852    5.8545   12.0038 O   0  0  0  0  0  0  0  0  0  0  0  0
    3.9620    4.1824   11.2413 C   0  0  0  0  0  0  0  0  0  0  0  0
    2.9664    3.4577   11.9788 N   0  0  0  0  0  0  0  0  0  0  0  0
    3.0561    2.8243   13.2397 C   0  0  0  0  0  0  0  0  0  0  0  0
    2.7440    1.5888   13.3470 O   0  0  0  0  0  0  0  0  0  0  0  0
    3.4873    3.4763   14.4878 C   0  0  0  0  0  0  0  0  0  0  0  0
    2.3501    4.0100   15.2353 N   0  0  0  0  0  0  0  0  0  0  0  0
    2.4025    5.1923   16.0102 C   0  0  0  0  0  0  0  0  0  0  0  0
    1.7499    5.2596   17.1106 O   0  0  0  0  0  0  0  0  0  0  0  0
    3.1772    6.4092   15.6531 C   0  0  0  0  0  0  0  0  0  0  0  0
    2.4018    7.4030   14.9917 N   0  0  0  0  0  0  0  0  0  0  0  0
    2.3253    7.7034   13.6255 C   0  0  0  0  0  0  0  0  0  0  0  0
    2.5090    8.9051   13.1998 O   0  0  0  0  0  0  0  0  0  0  0  0
    3.4457    7.5145   11.1952 H   0  0  0  0  0  0  0  0  0  0  0  0
    2.0093    3.3756   11.5105 H   0  0  0  0  0  0  0  0  0  0  0  0
    1.4453    3.4946   15.1962 H   0  0  0  0  0  0  0  0  0  0  0  0
    1.7888    8.0180   15.6148 H   0  0  0  0  0  0  0  0  0  0  0  0
    1.4748    8.1842   10.6250 N   0  0  0  0  0  0  0  0  0  0  0  0
    0.9413    7.4120   11.7002 C   0  0  0  0  0  0  0  0  0  0  0  0
    2.2422    7.6489   10.1626 H   0  0  0  0  0  0  0  0  0  0  0  0
    1.8163    9.1043   10.9813 H   0  0  0  0  0  0  0  0  0  0  0  0
    0.0206    6.3768   11.0577 C   0  0  0  0  0  0  0  0  0  0  0  0
   -1.3619    6.6548   11.6643 C   0  0  0  0  0  0  0  0  0  0  0  0
   -1.5207    5.7847   12.8922 C   0  0  0  0  0  0  0  0  0  0  0  0
   -1.6561    6.6216   14.1173 C   0  0  0  0  0  0  0  0  0  0  0  0
   -2.8915    7.1640   14.4374 O   0  0  0  0  0  0  0  0  0  0  0  0
   -0.7086    6.8756   14.8978 O   0  0  0  0  0  0  0  0  0  0  0  0
   -3.0767    8.1359   14.5772 H   0  0  0  0  0  0  0  0  0  0  0  0
    3.5622    4.0915    9.7681 C   0  0  0  0  0  0  0  0  0  0  0  0
    4.0987    2.8892    9.0894 C   0  0  0  0  0  0  0  0  0  0  0  0
    5.4561    2.7126    8.9025 C   0  0  0  0  0  0  0  0  0  0  0  0
    5.9775    1.5971    8.2782 C   0  0  0  0  0  0  0  0  0  0  0  0
    5.1369    0.6115    7.8165 C   0  0  0  0  0  0  0  0  0  0  0  0
    5.7104   -0.4886    7.1970 O   0  0  0  0  0  0  0  0  0  0  0  0
    3.7822    0.7494    7.9820 C   0  0  0  0  0  0  0  0  0  0  0  0
    3.2753    1.8809    8.6136 C   0  0  0  0  0  0  0  0  0  0  0  0
    5.9737   -1.3145    7.7517 H   0  0  0  0  0  0  0  0  0  0  0  0
    4.3040    2.7122   15.4438 C   0  0  0  0  0  0  0  0  0  0  0  0
    3.6566    1.8153   16.3857 C   0  0  0  0  0  0  0  0  0  0  0  0
    3.8684    1.7689   17.7676 C   0  0  0  0  0  0  0  0  0  0  0  0
    3.1153    0.7915   18.2925 N   0  0  0  0  0  0  0  0  0  0  0  0
    2.4294    0.2084   17.3055 C   0  0  0  0  0  0  0  0  0  0  0  0
    2.7671    0.8382   16.1593 N   0  0  0  0  0  0  0  0  0  0  0  0
    2.3643    0.5614   15.2411 H   0  0  0  0  0  0  0  0  0  0  0  0
    3.7807    6.9595   16.9607 C   0  0  0  0  0  0  0  0  0  0  0  0
    5.0188    7.7034   16.7161 C   0  0  0  0  0  0  0  0  0  0  0  0
    5.9276    7.9984   17.7402 C   0  0  0  0  0  0  0  0  0  0  0  0
    7.0833    8.6929   17.5372 C   0  0  0  0  0  0  0  0  0  0  0  0
    7.3867    9.1341   16.2630 C   0  0  0  0  0  0  0  0  0  0  0  0
    6.5229    8.8634   15.2430 C   0  0  0  0  0  0  0  0  0  0  0  0
    5.3499    8.1572   15.4603 C   0  0  0  0  0  0  0  0  0  0  0  0
 21 22  1  0  0  0
 22 25  1  0  0  0
 25 26  1  0  0  0
 26 27  1  0  0  0
 27 28  1  0  0  0
 28 29  1  0  0  0
 28 30  2  0  0  0
 22  1  1  0  0  0
  1  2  1  0  0  0
  2  3  1  0  0  0
  3  4  2  0  0  0
  3  5  1  0  0  0
  5 32  1  0  0  0
 32 33  1  0  0  0
 33 34  2  0  0  0
 34 35  1  0  0  0
 35 36  2  0  0  0
 36 37  1  0  0  0
 36 38  1  0  0  0
 38 39  2  0  0  0
  5  6  1  0  0  0
  6  7  1  0  0  0
  7  8  2  0  0  0
  7  9  1  0  0  0
  9 41  1  0  0  0
 41 42  1  0  0  0
 42 43  2  0  0  0
 43 44  1  0  0  0
 44 45  2  0  0  0
 45 46  1  0  0  0
  9 10  1  0  0  0
 10 11  1  0  0  0
 11 12  2  0  0  0
 11 13  1  0  0  0
 13 48  1  0  0  0
 48 49  1  0  0  0
 49 50  2  0  0  0
 50 51  1  0  0  0
 51 52  2  0  0  0
 52 53  1  0  0  0
 53 54  2  0  0  0
 13 14  1  0  0  0
 14 15  1  0  0  0
 15 16  2  0  0  0
 15  1  1  0  0  0
 39 33  1  0  0  0
 46 42  1  0  0  0
 54 49  1  0  0  0
 21 23  1  0  0  0
 21 24  1  0  0  0
 29 31  1  0  0  0
  2 17  1  0  0  0
 37 40  1  0  0  0
  6 18  1  0  0  0
 46 47  1  0  0  0
 10 19  1  0  0  0
 14 20  1  0  0  0
M  END
> <minimizedAffinity>
-7.10299

> <CNNscore>
0.2052118182

> <CNNaffinity>
6.1357793808

> <CNN_VS>
1.2591344118

> <CNNaffinity_variance>
0.4547394812

$$$$
[H]OC(=O)C([H])([H])C([H])([H])C([H])([H])[C@]([H])(N([H])[H])[C@]1([H])C(=O)N([H])[C@@]([H])(C([H])([H])c2c([H])c([H])c([H])c([H])c2[H])C(=O)N([H])[C@@]([H])(C([H])([H])c2c([H])nc([H])n2[H])C(=O)N([H])[C@@]([H])(C([H])([H])c2c([H])c([H])c(O[H])c([H])c2[H])C(=O)N1[H]


 54 57  0  0  0  0  0  0  0  0999 V2000
    2.6995    3.9303   14.7489 C   0  0  0  0  0  0  0  0  0  0  0  0
    1.4354    4.5789   14.4834 N   0  0  0  0  0  0  0  0  0  0  0  0
    1.1808    5.9154   14.1547 C   0  0  0  0  0  0  0  0  0  0  0  0
    0.3950    6.5571   14.9498 O   0  0  0  0  0  0  0  0  0  0  0  0
    1.6814    6.7129   13.0202 C   0  0  0  0  0  0  0  0  0  0  0  0
    3.1103    6.7909   12.9081 N   0  0  0  0  0  0  0  0  0  0  0  0
    4.0295    7.6104   13.6027 C   0  0  0  0  0  0  0  0  0  0  0  0
    4.8369    8.3503   12.9423 O   0  0  0  0  0  0  0  0  0  0  0  0
    4.1529    7.6939   15.0678 C   0  0  0  0  0  0  0  0  0  0  0  0
    5.1515    6.7554   15.5768 N   0  0  0  0  0  0  0  0  0  0  0  0
    5.0490    6.0970   16.8245 C   0  0  0  0  0  0  0  0  0  0  0  0
    6.1035    5.8921   17.5227 O   0  0  0  0  0  0  0  0  0  0  0  0
    3.7816    5.6049   17.4246 C   0  0  0  0  0  0  0  0  0  0  0  0
    3.5322    4.2259   17.1748 N   0  0  0  0  0  0  0  0  0  0  0  0
    2.6858    3.6360   16.2269 C   0  0  0  0  0  0  0  0  0  0  0  0
    1.8036    2.7653   16.5770 O   0  0  0  0  0  0  0  0  0  0  0  0
    0.6008    3.9154   14.5620 H   0  0  0  0  0  0  0  0  0  0  0  0
    3.5565    6.1366   12.1906 H   0  0  0  0  0  0  0  0  0  0  0  0
    5.9880    6.5545   14.9888 H   0  0  0  0  0  0  0  0  0  0  0  0
    4.0555    3.5300   17.7944 H   0  0  0  0  0  0  0  0  0  0  0  0
    1.3929    1.9570   14.0198 N   0  0  0  0  0  0  0  0  0  0  0  0
    2.6990    2.5252   14.1119 C   0  0  0  0  0  0  0  0  0  0  0  0
    0.7188    2.6895   13.7063 H   0  0  0  0  0  0  0  0  0  0  0  0
    1.1130    1.5542   14.9415 H   0  0  0  0  0  0  0  0  0  0  0  0
    3.2279    2.5970   12.6811 C   0  0  0  0  0  0  0  0  0  0  0  0
    2.0373    2.1848   11.8042 C   0  0  0  0  0  0  0  0  0  0  0  0
    2.5760    1.4608   10.5894 C   0  0  0  0  0  0  0  0  0  0  0  0
    1.4845    0.7344    9.8818 C   0  0  0  0  0  0  0  0  0  0  0  0
    1.6603    0.3663    8.5564 O   0  0  0  0  0  0  0  0  0  0  0  0
    0.3924    0.4250   10.4136 O   0  0  0  0  0  0  0  0  0  0  0  0
    1.0560    0.6191    7.8019 H   0  0  0  0  0  0  0  0  0  0  0  0
    1.1695    6.1824   11.6803 C   0  0  0  0  0  0  0  0  0  0  0  0
    2.1086    6.4197   10.5598 C   0  0  0  0  0  0  0  0  0  0  0  0
    2.8975    5.4049   10.0535 C   0  0  0  0  0  0  0  0  0  0  0  0
    3.7747    5.6028    9.0060 C   0  0  0  0  0  0  0  0  0  0  0  0
    3.8862    6.8457    8.4278 C   0  0  0  0  0  0  0  0  0  0  0  0
    4.7812    6.9922    7.3788 O   0  0  0  0  0  0  0  0  0  0  0  0
    3.1204    7.8804    8.9020 C   0  0  0  0  0  0  0  0  0  0  0  0
    2.2421    7.6616    9.9587 C   0  0  0  0  0  0  0  0  0  0  0  0
    4.4702    6.8401    6.4097 H   0  0  0  0  0  0  0  0  0  0  0  0
    4.4420    8.9983   15.6839 C   0  0  0  0  0  0  0  0  0  0  0  0
    4.3099    9.1588   17.1217 C   0  0  0  0  0  0  0  0  0  0  0  0
    5.3556    9.2546   18.0459 C   0  0  0  0  0  0  0  0  0  0  0  0
    4.8402    9.3620   19.2791 N   0  0  0  0  0  0  0  0  0  0  0  0
    3.5078    9.3387   19.1853 C   0  0  0  0  0  0  0  0  0  0  0  0
    3.2026    9.2156   17.8753 N   0  0  0  0  0  0  0  0  0  0  0  0
    2.2182    9.1707   17.5424 H   0  0  0  0  0  0  0  0  0  0  0  0
    3.8603    5.8864   18.9384 C   0  0  0  0  0  0  0  0  0  0  0  0
    4.4400    4.7578   19.6708 C   0  0  0  0  0  0  0  0  0  0  0  0
    5.4064    4.9327   20.6693 C   0  0  0  0  0  0  0  0  0  0  0  0
    5.9631    3.8977   21.3607 C   0  0  0  0  0  0  0  0  0  0  0  0
    5.5639    2.6061   21.0730 C   0  0  0  0  0  0  0  0  0  0  0  0
    4.6243    2.4009   20.1060 C   0  0  0  0  0  0  0  0  0  0  0  0
    4.0651    3.4604   19.4083 C   0  0  0  0  0  0  0  0  0  0  0  0
 21 22  1  0  0  0
 22 25  1  0  0  0
 25 26  1  0  0  0
 26 27  1  0  0  0
 27 28  1  0  0  0
 28 29  1  0  0  0
 28 30  2  0  0  0
 22  1  1  0  0  0
  1  2  1  0  0  0
  2  3  1  0  0  0
  3  4  2  0  0  0
  3  5  1  0  0  0
  5 32  1  0  0  0
 32 33  1  0  0  0
 33 34  2  0  0  0
 34 35  1  0  0  0
 35 36  2  0  0  0
 36 37  1  0  0  0
 36 38  1  0  0  0
 38 39  2  0  0  0
  5  6  1  0  0  0
  6  7  1  0  0  0
  7  8  2  0  0  0
  7  9  1  0  0  0
  9 41  1  0  0  0
 41 42  1  0  0  0
 42 43  2  0  0  0
 43 44  1  0  0  0
 44 45  2  0  0  0
 45 46  1  0  0  0
  9 10  1  0  0  0
 10 11  1  0  0  0
 11 12  2  0  0  0
 11 13  1  0  0  0
 13 48  1  0  0  0
 48 49  1  0  0  0
 49 50  2  0  0  0
 50 51  1  0  0  0
 51 52  2  0  0  0
 52 53  1  0  0  0
 53 54  2  0  0  0
 13 14  1  0  0  0
 14 15  1  0  0  0
 15 16  2  0  0  0
 15  1  1  0  0  0
 39 33  1  0  0  0
 46 42  1  0  0  0
 54 49  1  0  0  0
 21 23  1  0  0  0
 21 24  1  0  0  0
 29 31  1  0  0  0
  2 17  1  0  0  0
 37 40  1  0  0  0
  6 18  1  0  0  0
 46 47  1  0  0  0
 10 19  1  0  0  0
 14 20  1  0  0  0
M  END
> <minimizedAffinity>
-7.34787

> <CNNscore>
0.1904023588

> <CNNaffinity>
6.3929886818

> <CNN_VS>
1.2172400951

> <CNNaffinity_variance>
0.9139030576

$$$$
[H]c1c([H])c(S(=O)(=O)N([H])[H])c([H])c([H])c1N([H])c1nc([H])c2c(n1)c(C([H])([H])[H])nn2C([H])(C([H])([H])[H])C([H])([H])[H]


 27 29  0  0  0  0  0  0  0  0999 V2000
    4.4427    2.0875   16.4843 N   0  0  0  0  0  0  0  0  0  0  0  0
    5.1716    1.4253   16.0702 H   0  0  0  0  0  0  0  0  0  0  0  0
    4.3580    2.3260   21.9225 N   0  0  0  0  0  0  0  0  0  0  0  0
    3.7522    1.1757   22.1573 N   0  0  0  0  0  0  0  0  0  0  0  0
    3.4739    0.5558   21.0233 C   0  0  0  0  0  0  0  0  0  0  0  0
    2.7974   -0.7647   20.7954 C   0  0  0  0  0  0  0  0  0  0  0  0
    3.9339    1.3667   19.9971 C   0  0  0  0  0  0  0  0  0  0  0  0
    3.9251    1.2519   18.6746 N   0  0  0  0  0  0  0  0  0  0  0  0
    4.4384    2.1822   17.8776 C   0  0  0  0  0  0  0  0  0  0  0  0
    4.9931    3.2947   18.4706 N   0  0  0  0  0  0  0  0  0  0  0  0
    5.0298    3.4633   19.7940 C   0  0  0  0  0  0  0  0  0  0  0  0
    4.4920    2.4856   20.5852 C   0  0  0  0  0  0  0  0  0  0  0  0
    3.6596    4.0774   23.5056 C   0  0  0  0  0  0  0  0  0  0  0  0
    4.7962    3.2465   22.9628 C   0  0  0  0  0  0  0  0  0  0  0  0
    5.3542    2.4519   24.1249 C   0  0  0  0  0  0  0  0  0  0  0  0
    3.6100    2.7445   15.5719 C   0  0  0  0  0  0  0  0  0  0  0  0
    3.6435    4.0731   15.2490 C   0  0  0  0  0  0  0  0  0  0  0  0
    2.7632    4.5958   14.2923 C   0  0  0  0  0  0  0  0  0  0  0  0
    1.8350    3.8199   13.6381 C   0  0  0  0  0  0  0  0  0  0  0  0
    1.8044    2.4945   13.9639 C   0  0  0  0  0  0  0  0  0  0  0  0
    2.6583    1.9825   14.8929 C   0  0  0  0  0  0  0  0  0  0  0  0
    0.7951    4.5733   12.4716 S   0  0  0  0  0  0  0  0  0  0  0  0
   -0.8039    3.9091   12.5109 N   0  0  0  0  0  0  0  0  0  0  0  0
    0.6559    6.0528   12.7034 O   0  0  0  0  0  0  0  0  0  0  0  0
    1.3405    4.3763   11.1006 O   0  0  0  0  0  0  0  0  0  0  0  0
   -0.9660    3.3887   13.4228 H   0  0  0  0  0  0  0  0  0  0  0  0
   -0.9581    3.2720   11.7045 H   0  0  0  0  0  0  0  0  0  0  0  0
 13 14  1  0  0  0
 14 15  1  0  0  0
 14  3  1  0  0  0
  3  4  1  0  0  0
  4  5  2  0  0  0
  5  6  1  0  0  0
  5  7  1  0  0  0
  7  8  2  0  0  0
  8  9  1  0  0  0
  9  1  1  0  0  0
  1 16  1  0  0  0
 16 17  2  0  0  0
 17 18  1  0  0  0
 18 19  2  0  0  0
 19 20  1  0  0  0
 20 21  2  0  0  0
 19 22  1  0  0  0
 22 23  1  0  0  0
 22 24  2  0  0  0
 22 25  2  0  0  0
  9 10  2  0  0  0
 10 11  1  0  0  0
 11 12  2  0  0  0
 12  3  1  0  0  0
 12  7  1  0  0  0
 21 16  1  0  0  0
  1  2  1  0  0  0
 23 26  1  0  0  0
 23 27  1  0  0  0
M  END
> <minimizedAffinity>
-7.65675

> <CNNscore>
0.4617782235

> <CNNaffinity>
6.4087839127

> <CNN_VS>
2.9594368935

> <CNNaffinity_variance>
0.2131297141

$$$$
[H]c1c([H])c(S(=O)(=O)N([H])[H])c([H])c([H])c1N([H])c1nc([H])c2c(n1)c(C([H])([H])[H])nn2C([H])(C([H])([H])[H])C([H])([H])[H]


 27 29  0  0  0  0  0  0  0  0999 V2000
    2.9632    2.0269   14.8934 N   0  0  0  0  0  0  0  0  0  0  0  0
    2.9672    1.0468   14.4684 H   0  0  0  0  0  0  0  0  0  0  0  0
    4.8504    2.5059   19.9774 N   0  0  0  0  0  0  0  0  0  0  0  0
    5.4051    3.6998   19.8663 N   0  0  0  0  0  0  0  0  0  0  0  0
    5.2442    4.1763   18.6436 C   0  0  0  0  0  0  0  0  0  0  0  0
    5.6995    5.4810   18.0573 C   0  0  0  0  0  0  0  0  0  0  0  0
    4.5392    3.2207   17.9281 C   0  0  0  0  0  0  0  0  0  0  0  0
    4.1033    3.1616   16.6756 N   0  0  0  0  0  0  0  0  0  0  0  0
    3.4331    2.1157   16.2055 C   0  0  0  0  0  0  0  0  0  0  0  0
    3.1957    1.0696   17.0694 N   0  0  0  0  0  0  0  0  0  0  0  0
    3.6099    1.0745   18.3382 C   0  0  0  0  0  0  0  0  0  0  0  0
    4.2975    2.1676   18.7894 C   0  0  0  0  0  0  0  0  0  0  0  0
    3.5411    1.0049   21.4244 C   0  0  0  0  0  0  0  0  0  0  0  0
    4.8543    1.7132   21.1993 C   0  0  0  0  0  0  0  0  0  0  0  0
    5.9191    0.6417   21.0916 C   0  0  0  0  0  0  0  0  0  0  0  0
    2.4851    3.0570   14.0762 C   0  0  0  0  0  0  0  0  0  0  0  0
    2.0030    4.2681   14.4902 C   0  0  0  0  0  0  0  0  0  0  0  0
    1.5797    5.2231   13.5564 C   0  0  0  0  0  0  0  0  0  0  0  0
    1.6230    5.0018   12.1997 C   0  0  0  0  0  0  0  0  0  0  0  0
    2.1041    3.7914   11.7906 C   0  0  0  0  0  0  0  0  0  0  0  0
    2.5168    2.8607   12.6949 C   0  0  0  0  0  0  0  0  0  0  0  0
    1.0727    6.2557   11.1344 S   0  0  0  0  0  0  0  0  0  0  0  0
    0.0316    5.6373    9.8962 N   0  0  0  0  0  0  0  0  0  0  0  0
    0.2980    7.3210   11.8603 O   0  0  0  0  0  0  0  0  0  0  0  0
    2.2353    6.9088   10.4729 O   0  0  0  0  0  0  0  0  0  0  0  0
   -0.3386    4.6795   10.1684 H   0  0  0  0  0  0  0  0  0  0  0  0
    0.5329    5.5808    8.9876 H   0  0  0  0  0  0  0  0  0  0  0  0
 13 14  1  0  0  0
 14 15  1  0  0  0
 14  3  1  0  0  0
  3  4  1  0  0  0
  4  5  2  0  0  0
  5  6  1  0  0  0
  5  7  1  0  0  0
  7  8  2  0  0  0
  8  9  1  0  0  0
  9  1  1  0  0  0
  1 16  1  0  0  0
 16 17  2  0  0  0
 17 18  1  0  0  0
 18 19  2  0  0  0
 19 20  1  0  0  0
 20 21  2  0  0  0
 19 22  1  0  0  0
 22 23  1  0  0  0
 22 24  2  0  0  0
 22 25  2  0  0  0
  9 10  2  0  0  0
 10 11  1  0  0  0
 11 12  2  0  0  0
 12  3  1  0  0  0
 12  7  1  0  0  0
 21 16  1  0  0  0
  1  2  1  0  0  0
 23 26  1  0  0  0
 23 27  1  0  0  0
M  END
> <minimizedAffinity>
-6.39564

> <CNNscore>
0.4367110133

> <CNNaffinity>
6.1504521370

> <CNN_VS>
2.6859700680

> <CNNaffinity_variance>
0.4936603606

$$$$
[H]c1c([H])c(S(=O)(=O)N([H])[H])c([H])c([H])c1N([H])c1nc([H])c2c(n1)c(C([H])([H])[H])nn2C([H])(C([H])([H])[H])C([H])([H])[H]


 27 29  0  0  0  0  0  0  0  0999 V2000
    3.1205    3.3266   10.1356 N   0  0  0  0  0  0  0  0  0  0  0  0
    2.8218    2.4618    9.5842 H   0  0  0  0  0  0  0  0  0  0  0  0
    4.2528    7.7263    7.1358 N   0  0  0  0  0  0  0  0  0  0  0  0
    3.0203    8.1750    6.9773 N   0  0  0  0  0  0  0  0  0  0  0  0
    2.1546    7.3845    7.5884 C   0  0  0  0  0  0  0  0  0  0  0  0
    0.6602    7.4921    7.6814 C   0  0  0  0  0  0  0  0  0  0  0  0
    2.8859    6.3635    8.1758 C   0  0  0  0  0  0  0  0  0  0  0  0
    2.5479    5.3063    8.9040 N   0  0  0  0  0  0  0  0  0  0  0  0
    3.4477    4.4464    9.3679 C   0  0  0  0  0  0  0  0  0  0  0  0
    4.7708    4.6841    9.0681 N   0  0  0  0  0  0  0  0  0  0  0  0
    5.1684    5.7301    8.3408 C   0  0  0  0  0  0  0  0  0  0  0  0
    4.2152    6.5958    7.8788 C   0  0  0  0  0  0  0  0  0  0  0  0
    5.4622    8.3238    5.0763 C   0  0  0  0  0  0  0  0  0  0  0  0
    5.4355    8.3731    6.5842 C   0  0  0  0  0  0  0  0  0  0  0  0
    5.4289    9.8358    6.9763 C   0  0  0  0  0  0  0  0  0  0  0  0
    3.1428    3.1988   11.5287 C   0  0  0  0  0  0  0  0  0  0  0  0
    3.8233    3.9942   12.4089 C   0  0  0  0  0  0  0  0  0  0  0  0
    3.7344    3.7677   13.7888 C   0  0  0  0  0  0  0  0  0  0  0  0
    2.9751    2.7542   14.3253 C   0  0  0  0  0  0  0  0  0  0  0  0
    2.2980    1.9621   13.4432 C   0  0  0  0  0  0  0  0  0  0  0  0
    2.3815    2.1791   12.1015 C   0  0  0  0  0  0  0  0  0  0  0  0
    2.9382    2.5658   16.0495 S   0  0  0  0  0  0  0  0  0  0  0  0
    2.1253    1.1110   16.5208 N   0  0  0  0  0  0  0  0  0  0  0  0
    4.3176    2.5044   16.6458 O   0  0  0  0  0  0  0  0  0  0  0  0
    2.2235    3.7135   16.6722 O   0  0  0  0  0  0  0  0  0  0  0  0
    2.0618    0.4401   15.6996 H   0  0  0  0  0  0  0  0  0  0  0  0
    1.1745    1.3213   16.8836 H   0  0  0  0  0  0  0  0  0  0  0  0
 13 14  1  0  0  0
 14 15  1  0  0  0
 14  3  1  0  0  0
  3  4  1  0  0  0
  4  5  2  0  0  0
  5  6  1  0  0  0
  5  7  1  0  0  0
  7  8  2  0  0  0
  8  9  1  0  0  0
  9  1  1  0  0  0
  1 16  1  0  0  0
 16 17  2  0  0  0
 17 18  1  0  0  0
 18 19  2  0  0  0
 19 20  1  0  0  0
 20 21  2  0  0  0
 19 22  1  0  0  0
 22 23  1  0  0  0
 22 24  2  0  0  0
 22 25  2  0  0  0
  9 10  2  0  0  0
 10 11  1  0  0  0
 11 12  2  0  0  0
 12  3  1  0  0  0
 12  7  1  0  0  0
 21 16  1  0  0  0
  1  2  1  0  0  0
 23 26  1  0  0  0
 23 27  1  0  0  0
M  END
> <minimizedAffinity>
-4.98717

> <CNNscore>
0.3934183419

> <CNNaffinity>
5.2950239182

> <CNN_VS>
2.0831594467

> <CNNaffinity_variance>
0.3465210199

$$$$
[H]c1c([H])c(S(=O)(=O)N([H])[H])c([H])c([H])c1N([H])c1nc([H])c2c(n1)c(C([H])([H])[H])nn2C([H])(C([H])([H])[H])C([H])([H])[H]


 27 29  0  0  0  0  0  0  0  0999 V2000
    4.2543    1.7006   16.3379 N   0  0  0  0  0  0  0  0  0  0  0  0
    4.9491    0.9424   16.0487 H   0  0  0  0  0  0  0  0  0  0  0  0
    4.5822    3.3897   21.5030 N   0  0  0  0  0  0  0  0  0  0  0  0
    5.1352    4.5698   21.2860 N   0  0  0  0  0  0  0  0  0  0  0  0
    5.3317    4.7614   19.9928 C   0  0  0  0  0  0  0  0  0  0  0  0
    5.9265    5.9407   19.2795 C   0  0  0  0  0  0  0  0  0  0  0  0
    4.8725    3.6262   19.3426 C   0  0  0  0  0  0  0  0  0  0  0  0
    4.8190    3.2696   18.0651 N   0  0  0  0  0  0  0  0  0  0  0  0
    4.3227    2.1013   17.6740 C   0  0  0  0  0  0  0  0  0  0  0  0
    3.8538    1.2491   18.6491 N   0  0  0  0  0  0  0  0  0  0  0  0
    3.8823    1.5547   19.9480 C   0  0  0  0  0  0  0  0  0  0  0  0
    4.4003    2.7662   20.3156 C   0  0  0  0  0  0  0  0  0  0  0  0
    5.4464    2.3703   23.5707 C   0  0  0  0  0  0  0  0  0  0  0  0
    4.2383    2.8783   22.8227 C   0  0  0  0  0  0  0  0  0  0  0  0
    3.6481    4.0004   23.6508 C   0  0  0  0  0  0  0  0  0  0  0  0
    3.3880    2.1631   15.3414 C   0  0  0  0  0  0  0  0  0  0  0  0
    2.2651    1.5325   14.8811 C   0  0  0  0  0  0  0  0  0  0  0  0
    1.4697    2.1262   13.8920 C   0  0  0  0  0  0  0  0  0  0  0  0
    1.7668    3.3499   13.3389 C   0  0  0  0  0  0  0  0  0  0  0  0
    2.8889    3.9757   13.8006 C   0  0  0  0  0  0  0  0  0  0  0  0
    3.6643    3.4023   14.7619 C   0  0  0  0  0  0  0  0  0  0  0  0
    0.7110    3.9901   12.1202 S   0  0  0  0  0  0  0  0  0  0  0  0
    0.1749    2.7619   11.0232 N   0  0  0  0  0  0  0  0  0  0  0  0
   -0.5241    4.6160   12.7076 O   0  0  0  0  0  0  0  0  0  0  0  0
    1.4190    5.0343   11.3301 O   0  0  0  0  0  0  0  0  0  0  0  0
    0.3218    1.7985   11.4460 H   0  0  0  0  0  0  0  0  0  0  0  0
    0.6770    2.8335   10.1161 H   0  0  0  0  0  0  0  0  0  0  0  0
 13 14  1  0  0  0
 14 15  1  0  0  0
 14  3  1  0  0  0
  3  4  1  0  0  0
  4  5  2  0  0  0
  5  6  1  0  0  0
  5  7  1  0  0  0
  7  8  2  0  0  0
  8  9  1  0  0  0
  9  1  1  0  0  0
  1 16  1  0  0  0
 16 17  2  0  0  0
 17 18  1  0  0  0
 18 19  2  0  0  0
 19 20  1  0  0  0
 20 21  2  0  0  0
 19 22  1  0  0  0
 22 23  1  0  0  0
 22 24  2  0  0  0
 22 25  2  0  0  0
  9 10  2  0  0  0
 10 11  1  0  0  0
 11 12  2  0  0  0
 12  3  1  0  0  0
 12  7  1  0  0  0
 21 16  1  0  0  0
  1  2  1  0  0  0
 23 26  1  0  0  0
 23 27  1  0  0  0
M  END
> <minimizedAffinity>
-7.38832

> <CNNscore>
0.3357328773

> <CNNaffinity>
5.9959936142

> <CNN_VS>
2.0130522251

> <CNNaffinity_variance>
0.1800225526

$$$$
[H]c1c([H])c(S(=O)(=O)N([H])[H])c([H])c([H])c1N([H])c1nc([H])c2c(n1)c(C([H])([H])[H])nn2C([H])(C([H])([H])[H])C([H])([H])[H]


 27 29  0  0  0  0  0  0  0  0999 V2000
    3.7866    1.5875   17.1162 N   0  0  0  0  0  0  0  0  0  0  0  0
    3.7719    0.5318   16.9530 H   0  0  0  0  0  0  0  0  0  0  0  0
    4.4223    3.2926   22.2471 N   0  0  0  0  0  0  0  0  0  0  0  0
    4.4186    4.5942   22.0205 N   0  0  0  0  0  0  0  0  0  0  0  0
    4.2708    4.8419   20.7303 C   0  0  0  0  0  0  0  0  0  0  0  0
    4.2090    6.1570   20.0092 C   0  0  0  0  0  0  0  0  0  0  0  0
    4.1739    3.6146   20.0927 C   0  0  0  0  0  0  0  0  0  0  0  0
    4.0177    3.2600   18.8230 N   0  0  0  0  0  0  0  0  0  0  0  0
    3.9503    1.9889   18.4438 C   0  0  0  0  0  0  0  0  0  0  0  0
    4.0487    1.0252   19.4229 N   0  0  0  0  0  0  0  0  0  0  0  0
    4.2064    1.3232   20.7142 C   0  0  0  0  0  0  0  0  0  0  0  0
    4.2719    2.6425   21.0697 C   0  0  0  0  0  0  0  0  0  0  0  0
    3.7203    1.4544   23.7268 C   0  0  0  0  0  0  0  0  0  0  0  0
    4.5670    2.6930   23.5667 C   0  0  0  0  0  0  0  0  0  0  0  0
    6.0076    2.2694   23.7633 C   0  0  0  0  0  0  0  0  0  0  0  0
    3.6336    2.3940   15.9832 C   0  0  0  0  0  0  0  0  0  0  0  0
    3.9966    3.7071   15.8631 C   0  0  0  0  0  0  0  0  0  0  0  0
    3.8092    4.3901   14.6540 C   0  0  0  0  0  0  0  0  0  0  0  0
    3.2607    3.7922   13.5434 C   0  0  0  0  0  0  0  0  0  0  0  0
    2.8990    2.4816   13.6678 C   0  0  0  0  0  0  0  0  0  0  0  0
    3.0798    1.8143   14.8409 C   0  0  0  0  0  0  0  0  0  0  0  0
    3.0751    4.7338   12.0982 S   0  0  0  0  0  0  0  0  0  0  0  0
    2.1130    6.1479   12.3704 N   0  0  0  0  0  0  0  0  0  0  0  0
    4.3947    5.2057   11.5520 O   0  0  0  0  0  0  0  0  0  0  0  0
    2.4096    3.9218   11.0430 O   0  0  0  0  0  0  0  0  0  0  0  0
    2.0592    6.3645   13.4090 H   0  0  0  0  0  0  0  0  0  0  0  0
    1.1571    6.0234   11.9822 H   0  0  0  0  0  0  0  0  0  0  0  0
 13 14  1  0  0  0
 14 15  1  0  0  0
 14  3  1  0  0  0
  3  4  1  0  0  0
  4  5  2  0  0  0
  5  6  1  0  0  0
  5  7  1  0  0  0
  7  8  2  0  0  0
  8  9  1  0  0  0
  9  1  1  0  0  0
  1 16  1  0  0  0
 16 17  2  0  0  0
 17 18  1  0  0  0
 18 19  2  0  0  0
 19 20  1  0  0  0
 20 21  2  0  0  0
 19 22  1  0  0  0
 22 23  1  0  0  0
 22 24  2  0  0  0
 22 25  2  0  0  0
  9 10  2  0  0  0
 10 11  1  0  0  0
 11 12  2  0  0  0
 12  3  1  0  0  0
 12  7  1  0  0  0
 21 16  1  0  0  0
  1  2  1  0  0  0
 23 26  1  0  0  0
 23 27  1  0  0  0
M  END
> <minimizedAffinity>
-6.97866

> <CNNscore>
0.2718062103

> <CNNaffinity>
5.9169216156

> <CNN_VS>
1.6082559824

> <CNNaffinity_variance>
0.4543436468

$$$$
[H]c1c([H])c(S(=O)(=O)N([H])[H])c([H])c([H])c1N([H])c1nc([H])c2c(n1)c(C([H])([H])[H])nn2C([H])(C([H])([H])[H])C([H])([H])[H]


 27 29  0  0  0  0  0  0  0  0999 V2000
    4.3176    4.1970   15.3675 N   0  0  0  0  0  0  0  0  0  0  0  0
    4.7123    5.1826   15.2486 H   0  0  0  0  0  0  0  0  0  0  0  0
    4.6980    1.9578   20.3152 N   0  0  0  0  0  0  0  0  0  0  0  0
    3.9621    0.8823   20.0981 N   0  0  0  0  0  0  0  0  0  0  0  0
    3.5130    0.8685   18.8547 C   0  0  0  0  0  0  0  0  0  0  0  0
    2.6475   -0.1429   18.1609 C   0  0  0  0  0  0  0  0  0  0  0  0
    3.9960    2.0128   18.2388 C   0  0  0  0  0  0  0  0  0  0  0  0
    3.8668    2.5095   17.0145 N   0  0  0  0  0  0  0  0  0  0  0  0
    4.4368    3.6516   16.6476 C   0  0  0  0  0  0  0  0  0  0  0  0
    5.1828    4.3238   17.5904 N   0  0  0  0  0  0  0  0  0  0  0  0
    5.3470    3.8721   18.8355 C   0  0  0  0  0  0  0  0  0  0  0  0
    4.7458    2.6925   19.1796 C   0  0  0  0  0  0  0  0  0  0  0  0
    4.4649    1.9167   22.7657 C   0  0  0  0  0  0  0  0  0  0  0  0
    5.3383    2.2673   21.5863 C   0  0  0  0  0  0  0  0  0  0  0  0
    6.6039    1.4460   21.7167 C   0  0  0  0  0  0  0  0  0  0  0  0
    3.7544    3.6111   14.2287 C   0  0  0  0  0  0  0  0  0  0  0  0
    2.9691    2.4920   14.1921 C   0  0  0  0  0  0  0  0  0  0  0  0
    2.4465    2.0281   12.9776 C   0  0  0  0  0  0  0  0  0  0  0  0
    2.6889    2.6573   11.7789 C   0  0  0  0  0  0  0  0  0  0  0  0
    3.4739    3.7736   11.8197 C   0  0  0  0  0  0  0  0  0  0  0  0
    3.9833    4.2279   12.9979 C   0  0  0  0  0  0  0  0  0  0  0  0
    1.9904    1.9948   10.3356 S   0  0  0  0  0  0  0  0  0  0  0  0
    0.4505    1.2642   10.6426 N   0  0  0  0  0  0  0  0  0  0  0  0
    1.7710    3.0402    9.2768 O   0  0  0  0  0  0  0  0  0  0  0  0
    2.8882    0.9523    9.7673 O   0  0  0  0  0  0  0  0  0  0  0  0
    0.0567    1.6062   11.5680 H   0  0  0  0  0  0  0  0  0  0  0  0
    0.5292    0.2280   10.6497 H   0  0  0  0  0  0  0  0  0  0  0  0
 13 14  1  0  0  0
 14 15  1  0  0  0
 14  3  1  0  0  0
  3  4  1  0  0  0
  4  5  2  0  0  0
  5  6  1  0  0  0
  5  7  1  0  0  0
  7  8  2  0  0  0
  8  9  1  0  0  0
  9  1  1  0  0  0
  1 16  1  0  0  0
 16 17  2  0  0  0
 17 18  1  0  0  0
 18 19  2  0  0  0
 19 20  1  0  0  0
 20 21  2  0  0  0
 19 22  1  0  0  0
 22 23  1  0  0  0
 22 24  2  0  0  0
 22 25  2  0  0  0
  9 10  2  0  0  0
 10 11  1  0  0  0
 11 12  2  0  0  0
 12  3  1  0  0  0
 12  7  1  0  0  0
 21 16  1  0  0  0
  1  2  1  0  0  0
 23 26  1  0  0  0
 23 27  1  0  0  0
M  END
> <minimizedAffinity>
-7.20799

> <CNNscore>
0.2352197617

> <CNNaffinity>
5.8758225441

> <CNN_VS>
1.3821095228

> <CNNaffinity_variance>
0.1123059988

$$$$
[H]c1c([H])c(S(=O)(=O)N([H])[H])c([H])c([H])c1N([H])c1nc([H])c2c(n1)c(C([H])([H])[H])nn2C([H])(C([H])([H])[H])C([H])([H])[H]


 27 29  0  0  0  0  0  0  0  0999 V2000
    3.2966    2.8567   15.3941 N   0  0  0  0  0  0  0  0  0  0  0  0
    3.3491    1.9476   14.8355 H   0  0  0  0  0  0  0  0  0  0  0  0
    4.5669    2.5924   20.6814 N   0  0  0  0  0  0  0  0  0  0  0  0
    4.4192    3.8708   20.9801 N   0  0  0  0  0  0  0  0  0  0  0  0
    4.0550    4.5596   19.9121 C   0  0  0  0  0  0  0  0  0  0  0  0
    3.7731    6.0272   19.7701 C   0  0  0  0  0  0  0  0  0  0  0  0
    3.9646    3.6584   18.8625 C   0  0  0  0  0  0  0  0  0  0  0  0
    3.6458    3.7857   17.5802 N   0  0  0  0  0  0  0  0  0  0  0  0
    3.6279    2.7517   16.7468 C   0  0  0  0  0  0  0  0  0  0  0  0
    3.9558    1.5153   17.2574 N   0  0  0  0  0  0  0  0  0  0  0  0
    4.2843    1.3281   18.5373 C   0  0  0  0  0  0  0  0  0  0  0  0
    4.2927    2.4149   19.3680 C   0  0  0  0  0  0  0  0  0  0  0  0
    6.4375    1.6197   21.9526 C   0  0  0  0  0  0  0  0  0  0  0  0
    4.9622    1.5693   21.6397 C   0  0  0  0  0  0  0  0  0  0  0  0
    4.2279    1.8013   22.9437 C   0  0  0  0  0  0  0  0  0  0  0  0
    2.9004    3.9981   14.6886 C   0  0  0  0  0  0  0  0  0  0  0  0
    1.7400    4.1575   13.9826 C   0  0  0  0  0  0  0  0  0  0  0  0
    1.4569    5.3712   13.3422 C   0  0  0  0  0  0  0  0  0  0  0  0
    2.3115    6.4479   13.3855 C   0  0  0  0  0  0  0  0  0  0  0  0
    3.4691    6.2845   14.0907 C   0  0  0  0  0  0  0  0  0  0  0  0
    3.7477    5.1067   14.7147 C   0  0  0  0  0  0  0  0  0  0  0  0
    1.8591    7.9027   12.5554 S   0  0  0  0  0  0  0  0  0  0  0  0
    2.9418    8.2636   11.2527 N   0  0  0  0  0  0  0  0  0  0  0  0
    0.4801    7.8147   11.9616 O   0  0  0  0  0  0  0  0  0  0  0  0
    1.8761    9.0539   13.4990 O   0  0  0  0  0  0  0  0  0  0  0  0
    3.5004    7.4003   10.9860 H   0  0  0  0  0  0  0  0  0  0  0  0
    3.5844    9.0381   11.5116 H   0  0  0  0  0  0  0  0  0  0  0  0
 13 14  1  0  0  0
 14 15  1  0  0  0
 14  3  1  0  0  0
  3  4  1  0  0  0
  4  5  2  0  0  0
  5  6  1  0  0  0
  5  7  1  0  0  0
  7  8  2  0  0  0
  8  9  1  0  0  0
  9  1  1  0  0  0
  1 16  1  0  0  0
 16 17  2  0  0  0
 17 18  1  0  0  0
 18 19  2  0  0  0
 19 20  1  0  0  0
 20 21  2  0  0  0
 19 22  1  0  0  0
 22 23  1  0  0  0
 22 24  2  0  0  0
 22 25  2  0  0  0
  9 10  2  0  0  0
 10 11  1  0  0  0
 11 12  2  0  0  0
 12  3  1  0  0  0
 12  7  1  0  0  0
 21 16  1  0  0  0
  1  2  1  0  0  0
 23 26  1  0  0  0
 23 27  1  0  0  0
M  END
> <minimizedAffinity>
-7.11765

> <CNNscore>
0.2274421006

> <CNNaffinity>
5.8562607765

> <CNN_VS>
1.3319602013

> <CNNaffinity_variance>
0.5770784616

$$$$
[H]c1c([H])c(S(=O)(=O)N([H])[H])c([H])c([H])c1N([H])c1nc([H])c2c(n1)c(C([H])([H])[H])nn2C([H])(C([H])([H])[H])C([H])([H])[H]


 27 29  0  0  0  0  0  0  0  0999 V2000
    4.4724    1.9407   17.3283 N   0  0  0  0  0  0  0  0  0  0  0  0
    5.1694    1.1727   17.0720 H   0  0  0  0  0  0  0  0  0  0  0  0
    1.6058    4.0583   13.2130 N   0  0  0  0  0  0  0  0  0  0  0  0
    2.0603    5.2971   13.2777 N   0  0  0  0  0  0  0  0  0  0  0  0
    2.9421    5.4193   14.2551 C   0  0  0  0  0  0  0  0  0  0  0  0
    3.7153    6.6261   14.7013 C   0  0  0  0  0  0  0  0  0  0  0  0
    3.0565    4.1736   14.8528 C   0  0  0  0  0  0  0  0  0  0  0  0
    3.7820    3.7147   15.8654 N   0  0  0  0  0  0  0  0  0  0  0  0
    3.7212    2.4501   16.2669 C   0  0  0  0  0  0  0  0  0  0  0  0
    2.8673    1.6067   15.5911 N   0  0  0  0  0  0  0  0  0  0  0  0
    2.1146    2.0128   14.5665 C   0  0  0  0  0  0  0  0  0  0  0  0
    2.2019    3.3219   14.1794 C   0  0  0  0  0  0  0  0  0  0  0  0
   -0.6054    4.4760   12.2141 C   0  0  0  0  0  0  0  0  0  0  0  0
    0.6216    3.5983   12.2427 C   0  0  0  0  0  0  0  0  0  0  0  0
    1.2307    3.6484   10.8571 C   0  0  0  0  0  0  0  0  0  0  0  0
    4.4282    2.3160   18.6754 C   0  0  0  0  0  0  0  0  0  0  0  0
    4.0498    1.5293   19.7282 C   0  0  0  0  0  0  0  0  0  0  0  0
    4.0791    2.0287   21.0370 C   0  0  0  0  0  0  0  0  0  0  0  0
    4.4807    3.3107   21.3314 C   0  0  0  0  0  0  0  0  0  0  0  0
    4.8570    4.0929   20.2776 C   0  0  0  0  0  0  0  0  0  0  0  0
    4.8302    3.6113   19.0042 C   0  0  0  0  0  0  0  0  0  0  0  0
    4.4774    3.8234   22.9888 S   0  0  0  0  0  0  0  0  0  0  0  0
    5.2363    5.3677   23.1863 N   0  0  0  0  0  0  0  0  0  0  0  0
    3.0852    3.9503   23.5434 O   0  0  0  0  0  0  0  0  0  0  0  0
    5.2141    2.8391   23.8280 O   0  0  0  0  0  0  0  0  0  0  0  0
    5.2957    5.8726   22.2535 H   0  0  0  0  0  0  0  0  0  0  0  0
    6.1856    5.2619   23.5956 H   0  0  0  0  0  0  0  0  0  0  0  0
 13 14  1  0  0  0
 14 15  1  0  0  0
 14  3  1  0  0  0
  3  4  1  0  0  0
  4  5  2  0  0  0
  5  6  1  0  0  0
  5  7  1  0  0  0
  7  8  2  0  0  0
  8  9  1  0  0  0
  9  1  1  0  0  0
  1 16  1  0  0  0
 16 17  2  0  0  0
 17 18  1  0  0  0
 18 19  2  0  0  0
 19 20  1  0  0  0
 20 21  2  0  0  0
 19 22  1  0  0  0
 22 23  1  0  0  0
 22 24  2  0  0  0
 22 25  2  0  0  0
  9 10  2  0  0  0
 10 11  1  0  0  0
 11 12  2  0  0  0
 12  3  1  0  0  0
 12  7  1  0  0  0
 21 16  1  0  0  0
  1  2  1  0  0  0
 23 26  1  0  0  0
 23 27  1  0  0  0
M  END
> <minimizedAffinity>
-7.23283

> <CNNscore>
0.2025148720

> <CNNaffinity>
5.8441987038

> <CNN_VS>
1.1835371256

> <CNNaffinity_variance>
0.1517694741

$$$$
[H]c1c([H])c(S(=O)(=O)N([H])[H])c([H])c([H])c1N([H])c1nc([H])c2c(n1)c(C([H])([H])[H])nn2C([H])(C([H])([H])[H])C([H])([H])[H]


 27 29  0  0  0  0  0  0  0  0999 V2000
    4.2594    4.5133   15.1355 N   0  0  0  0  0  0  0  0  0  0  0  0
    5.1738    4.8294   14.6825 H   0  0  0  0  0  0  0  0  0  0  0  0
    4.6753    2.0113   19.9527 N   0  0  0  0  0  0  0  0  0  0  0  0
    3.9715    0.9294   19.6703 N   0  0  0  0  0  0  0  0  0  0  0  0
    3.5301    0.9728   18.4249 C   0  0  0  0  0  0  0  0  0  0  0  0
    2.6977   -0.0220   17.6693 C   0  0  0  0  0  0  0  0  0  0  0  0
    3.9838    2.1630   17.8776 C   0  0  0  0  0  0  0  0  0  0  0  0
    3.8474    2.7239   16.6822 N   0  0  0  0  0  0  0  0  0  0  0  0
    4.3868    3.9004   16.3839 C   0  0  0  0  0  0  0  0  0  0  0  0
    5.1080    4.5392   17.3682 N   0  0  0  0  0  0  0  0  0  0  0  0
    5.2779    4.0231   18.5873 C   0  0  0  0  0  0  0  0  0  0  0  0
    4.7086    2.8096   18.8604 C   0  0  0  0  0  0  0  0  0  0  0  0
    4.3434    2.0544   22.3918 C   0  0  0  0  0  0  0  0  0  0  0  0
    5.2993    2.2667   21.2438 C   0  0  0  0  0  0  0  0  0  0  0  0
    6.4456    1.2969   21.4409 C   0  0  0  0  0  0  0  0  0  0  0  0
    3.0889    4.7556   14.4084 C   0  0  0  0  0  0  0  0  0  0  0  0
    2.6640    4.0779   13.2991 C   0  0  0  0  0  0  0  0  0  0  0  0
    1.4504    4.4105   12.6827 C   0  0  0  0  0  0  0  0  0  0  0  0
    0.6353    5.4160   13.1474 C   0  0  0  0  0  0  0  0  0  0  0  0
    1.0634    6.0905   14.2545 C   0  0  0  0  0  0  0  0  0  0  0  0
    2.2419    5.7702   14.8566 C   0  0  0  0  0  0  0  0  0  0  0  0
   -0.8460    5.7420   12.3051 S   0  0  0  0  0  0  0  0  0  0  0  0
   -1.6816    4.2844   11.8848 N   0  0  0  0  0  0  0  0  0  0  0  0
   -1.7989    6.5667   13.1261 O   0  0  0  0  0  0  0  0  0  0  0  0
   -0.5640    6.4883   11.0484 O   0  0  0  0  0  0  0  0  0  0  0  0
   -1.3221    3.4711   12.4661 H   0  0  0  0  0  0  0  0  0  0  0  0
   -1.5715    4.0754   10.8728 H   0  0  0  0  0  0  0  0  0  0  0  0
 13 14  1  0  0  0
 14 15  1  0  0  0
 14  3  1  0  0  0
  3  4  1  0  0  0
  4  5  2  0  0  0
  5  6  1  0  0  0
  5  7  1  0  0  0
  7  8  2  0  0  0
  8  9  1  0  0  0
  9  1  1  0  0  0
  1 16  1  0  0  0
 16 17  2  0  0  0
 17 18  1  0  0  0
 18 19  2  0  0  0
 19 20  1  0  0  0
 20 21  2  0  0  0
 19 22  1  0  0  0
 22 23  1  0  0  0
 22 24  2  0  0  0
 22 25  2  0  0  0
  9 10  2  0  0  0
 10 11  1  0  0  0
 11 12  2  0  0  0
 12  3  1  0  0  0
 12  7  1  0  0  0
 21 16  1  0  0  0
  1  2  1  0  0  0
 23 26  1  0  0  0
 23 27  1  0  0  0
M  END
> <minimizedAffinity>
-7.35393

> <CNNscore>
0.1987500936

> <CNNaffinity>
5.8449292183

> <CNN_VS>
1.1616802216

> <CNNaffinity_variance>
0.3114945889

$$$$
[H]C([H])=C([H])C(=O)N1C([H])([H])C([H])([H])C([H])([H])[C@@]([H])(n2nc(C#Cc3c([H])c([H])c4nc([H])n(C([H])([H])c5c([H])c([H])c([H])c([H])c5OC([H])([H])[H])c4c3[H])c3c(N([H])[H])nc([H])nc32)C1([H])[H]


 42 47  0  0  0  0  0  0  0  0999 V2000
    3.7270    2.6126   16.9537 C   0  0  0  0  0  0  0  0  0  0  0  0
    4.4155    3.4620   17.7272 N   0  0  0  0  0  0  0  0  0  0  0  0
    4.5020    2.9858   18.9704 N   0  0  0  0  0  0  0  0  0  0  0  0
    3.8751    1.8068   19.0633 C   0  0  0  0  0  0  0  0  0  0  0  0
    3.6513    0.9037   20.0428 N   0  0  0  0  0  0  0  0  0  0  0  0
    2.9537   -0.2143   19.7633 C   0  0  0  0  0  0  0  0  0  0  0  0
    2.4700   -0.4574   18.5250 N   0  0  0  0  0  0  0  0  0  0  0  0
    2.6695    0.4134   17.5219 C   0  0  0  0  0  0  0  0  0  0  0  0
    2.1713    0.1861   16.2007 N   0  0  0  0  0  0  0  0  0  0  0  0
    3.3795    1.5568   17.7953 C   0  0  0  0  0  0  0  0  0  0  0  0
    1.2130    0.4575   15.9313 H   0  0  0  0  0  0  0  0  0  0  0  0
    2.8119   -0.2678   15.5100 H   0  0  0  0  0  0  0  0  0  0  0  0
    5.1672    3.6207   20.0827 C   0  0  0  0  0  0  0  0  0  0  0  0
    4.2795    3.6513   21.3023 C   0  0  0  0  0  0  0  0  0  0  0  0
    4.9907    4.3560   22.4271 C   0  0  0  0  0  0  0  0  0  0  0  0
    6.3957    4.7810   22.0601 C   0  0  0  0  0  0  0  0  0  0  0  0
    6.4130    5.5038   20.8110 N   0  0  0  0  0  0  0  0  0  0  0  0
    5.5231    5.0776   19.7562 C   0  0  0  0  0  0  0  0  0  0  0  0
    7.2713    6.5962   20.6148 C   0  0  0  0  0  0  0  0  0  0  0  0
    8.0643    6.9902   21.5214 O   0  0  0  0  0  0  0  0  0  0  0  0
    7.2700    7.3121   19.3483 C   0  0  0  0  0  0  0  0  0  0  0  0
    8.0577    8.3499   19.1803 C   0  0  0  0  0  0  0  0  0  0  0  0
    3.1177    2.7919   14.3891 C   0  0  0  0  0  0  0  0  0  0  0  0
    3.3940    2.7200   15.5607 C   0  0  0  0  0  0  0  0  0  0  0  0
    1.5503    5.1631   10.3842 N   0  0  0  0  0  0  0  0  0  0  0  0
    1.4564    4.6602    9.1104 C   0  0  0  0  0  0  0  0  0  0  0  0
    1.8377    3.3809    9.0806 N   0  0  0  0  0  0  0  0  0  0  0  0
    2.1922    3.0055   10.3202 C   0  0  0  0  0  0  0  0  0  0  0  0
    2.6708    1.8255   10.8424 C   0  0  0  0  0  0  0  0  0  0  0  0
    2.9714    1.7636   12.1764 C   0  0  0  0  0  0  0  0  0  0  0  0
    2.7963    2.8626   12.9734 C   0  0  0  0  0  0  0  0  0  0  0  0
    2.3222    4.0326   12.4625 C   0  0  0  0  0  0  0  0  0  0  0  0
    2.0018    4.1454   11.1174 C   0  0  0  0  0  0  0  0  0  0  0  0
    1.1608    6.5024   10.7378 C   0  0  0  0  0  0  0  0  0  0  0  0
   -1.1832    6.1533   11.5444 C   0  0  0  0  0  0  0  0  0  0  0  0
   -2.0821    6.2352   12.6091 C   0  0  0  0  0  0  0  0  0  0  0  0
   -1.7142    6.6430   13.8578 C   0  0  0  0  0  0  0  0  0  0  0  0
   -0.4047    6.9900   14.0864 C   0  0  0  0  0  0  0  0  0  0  0  0
    0.4766    6.9132   13.0535 C   0  0  0  0  0  0  0  0  0  0  0  0
    0.1082    6.4948   11.7620 C   0  0  0  0  0  0  0  0  0  0  0  0
   -2.1231    4.4205   10.1470 C   0  0  0  0  0  0  0  0  0  0  0  0
   -1.6885    5.7233   10.3490 O   0  0  0  0  0  0  0  0  0  0  0  0
 41 42  1  0  0  0
 42 35  1  0  0  0
 35 36  2  0  0  0
 36 37  1  0  0  0
 37 38  2  0  0  0
 38 39  1  0  0  0
 39 40  2  0  0  0
 40 34  1  0  0  0
 34 25  1  0  0  0
 25 26  1  0  0  0
 26 27  2  0  0  0
 27 28  1  0  0  0
 28 29  2  0  0  0
 29 30  1  0  0  0
 30 31  2  0  0  0
 31 32  1  0  0  0
 32 33  2  0  0  0
 31 23  1  0  0  0
 23 24  3  0  0  0
 24  1  1  0  0  0
  1  2  2  0  0  0
  2  3  1  0  0  0
  3 13  1  0  0  0
 13 14  1  0  0  0
 14 15  1  0  0  0
 15 16  1  0  0  0
 16 17  1  0  0  0
 17 18  1  0  0  0
 17 19  1  0  0  0
 19 20  2  0  0  0
 19 21  1  0  0  0
 21 22  2  0  0  0
  3  4  1  0  0  0
  4  5  2  0  0  0
  5  6  1  0  0  0
  6  7  2  0  0  0
  7  8  1  0  0  0
  8  9  1  0  0  0
  8 10  2  0  0  0
 40 35  1  0  0  0
 33 25  1  0  0  0
 10  1  1  0  0  0
 33 28  1  0  0  0
 18 13  1  0  0  0
 10  4  1  0  0  0
  9 11  1  0  0  0
  9 12  1  0  0  0
M  END
> <minimizedAffinity>
-9.26487

> <CNNscore>
0.6982864738

> <CNNaffinity>
7.7696709633

> <CNN_VS>
5.4254560471

> <CNNaffinity_variance>
0.2988408208

$$$$
[H]C([H])=C([H])C(=O)N1C([H])([H])C([H])([H])C([H])([H])[C@@]([H])(n2nc(C#Cc3c([H])c([H])c4nc([H])n(C([H])([H])c5c([H])c([H])c([H])c([H])c5OC([H])([H])[H])c4c3[H])c3c(N([H])[H])nc([H])nc32)C1([H])[H]


 42 47  0  0  0  0  0  0  0  0999 V2000
    3.9125    2.9090   16.7652 C   0  0  0  0  0  0  0  0  0  0  0  0
    4.6416    3.4943   17.7241 N   0  0  0  0  0  0  0  0  0  0  0  0
    4.6052    2.7646   18.8404 N   0  0  0  0  0  0  0  0  0  0  0  0
    3.8520    1.6728   18.6599 C   0  0  0  0  0  0  0  0  0  0  0  0
    3.4773    0.6190   19.4176 N   0  0  0  0  0  0  0  0  0  0  0  0
    2.6819   -0.3283   18.8839 C   0  0  0  0  0  0  0  0  0  0  0  0
    2.2474   -0.2523   17.6065 N   0  0  0  0  0  0  0  0  0  0  0  0
    2.5959    0.7778   16.8181 C   0  0  0  0  0  0  0  0  0  0  0  0
    2.1534    0.8881   15.4625 N   0  0  0  0  0  0  0  0  0  0  0  0
    3.4066    1.7496   17.3516 C   0  0  0  0  0  0  0  0  0  0  0  0
    1.2466    1.3187   15.2244 H   0  0  0  0  0  0  0  0  0  0  0  0
    2.7809    0.5155   14.7135 H   0  0  0  0  0  0  0  0  0  0  0  0
    5.2688    3.0741   20.0840 C   0  0  0  0  0  0  0  0  0  0  0  0
    4.6654    2.3005   21.2302 C   0  0  0  0  0  0  0  0  0  0  0  0
    5.3550    2.6798   22.5140 C   0  0  0  0  0  0  0  0  0  0  0  0
    6.4829    3.6669   22.3066 C   0  0  0  0  0  0  0  0  0  0  0  0
    6.0507    4.7953   21.5174 N   0  0  0  0  0  0  0  0  0  0  0  0
    5.1284    4.5627   20.4305 C   0  0  0  0  0  0  0  0  0  0  0  0
    6.5103    6.0924   21.7905 C   0  0  0  0  0  0  0  0  0  0  0  0
    7.3217    6.3253   22.7357 O   0  0  0  0  0  0  0  0  0  0  0  0
    6.0591    7.2158   20.9837 C   0  0  0  0  0  0  0  0  0  0  0  0
    5.2674    8.1239   21.5075 C   0  0  0  0  0  0  0  0  0  0  0  0
    3.4897    3.7107   14.2835 C   0  0  0  0  0  0  0  0  0  0  0  0
    3.6737    3.3400   15.4161 C   0  0  0  0  0  0  0  0  0  0  0  0
    5.0873    5.0715    9.8434 N   0  0  0  0  0  0  0  0  0  0  0  0
    4.3202    5.4515    8.7703 C   0  0  0  0  0  0  0  0  0  0  0  0
    3.0236    5.4304    9.0882 N   0  0  0  0  0  0  0  0  0  0  0  0
    2.8973    5.0389   10.3665 C   0  0  0  0  0  0  0  0  0  0  0  0
    1.8072    4.8306   11.1806 C   0  0  0  0  0  0  0  0  0  0  0  0
    2.0098    4.3957   12.4626 C   0  0  0  0  0  0  0  0  0  0  0  0
    3.2801    4.1732   12.9216 C   0  0  0  0  0  0  0  0  0  0  0  0
    4.3624    4.3784   12.1209 C   0  0  0  0  0  0  0  0  0  0  0  0
    4.2096    4.8201   10.8147 C   0  0  0  0  0  0  0  0  0  0  0  0
    6.5258    5.0446    9.8190 C   0  0  0  0  0  0  0  0  0  0  0  0
    7.6660    4.5466    7.6467 C   0  0  0  0  0  0  0  0  0  0  0  0
    8.0409    3.5789    6.7133 C   0  0  0  0  0  0  0  0  0  0  0  0
    7.7860    2.2496    6.8832 C   0  0  0  0  0  0  0  0  0  0  0  0
    7.1327    1.8364    8.0190 C   0  0  0  0  0  0  0  0  0  0  0  0
    6.7639    2.7738    8.9326 C   0  0  0  0  0  0  0  0  0  0  0  0
    7.0209    4.1469    8.7673 C   0  0  0  0  0  0  0  0  0  0  0  0
    8.9623    6.1721    6.4154 C   0  0  0  0  0  0  0  0  0  0  0  0
    7.9904    5.8410    7.3497 O   0  0  0  0  0  0  0  0  0  0  0  0
 41 42  1  0  0  0
 42 35  1  0  0  0
 35 36  2  0  0  0
 36 37  1  0  0  0
 37 38  2  0  0  0
 38 39  1  0  0  0
 39 40  2  0  0  0
 40 34  1  0  0  0
 34 25  1  0  0  0
 25 26  1  0  0  0
 26 27  2  0  0  0
 27 28  1  0  0  0
 28 29  2  0  0  0
 29 30  1  0  0  0
 30 31  2  0  0  0
 31 32  1  0  0  0
 32 33  2  0  0  0
 31 23  1  0  0  0
 23 24  3  0  0  0
 24  1  1  0  0  0
  1  2  2  0  0  0
  2  3  1  0  0  0
  3 13  1  0  0  0
 13 14  1  0  0  0
 14 15  1  0  0  0
 15 16  1  0  0  0
 16 17  1  0  0  0
 17 18  1  0  0  0
 17 19  1  0  0  0
 19 20  2  0  0  0
 19 21  1  0  0  0
 21 22  2  0  0  0
  3  4  1  0  0  0
  4  5  2  0  0  0
  5  6  1  0  0  0
  6  7  2  0  0  0
  7  8  1  0  0  0
  8  9  1  0  0  0
  8 10  2  0  0  0
 40 35  1  0  0  0
 33 25  1  0  0  0
 10  1  1  0  0  0
 33 28  1  0  0  0
 18 13  1  0  0  0
 10  4  1  0  0  0
  9 11  1  0  0  0
  9 12  1  0  0  0
M  END
> <minimizedAffinity>
-9.01992

> <CNNscore>
0.6936919093

> <CNNaffinity>
7.5144815445

> <CNN_VS>
5.2127351761

> <CNNaffinity_variance>
0.5298781991

$$$$
[H]C([H])=C([H])C(=O)N1C([H])([H])C([H])([H])C([H])([H])[C@@]([H])(n2nc(C#Cc3c([H])c([H])c4nc([H])n(C([H])([H])c5c([H])c([H])c([H])c([H])c5OC([H])([H])[H])c4c3[H])c3c(N([H])[H])nc([H])nc32)C1([H])[H]


 42 47  0  0  0  0  0  0  0  0999 V2000
    3.8284    2.6328   17.0110 C   0  0  0  0  0  0  0  0  0  0  0  0
    4.5225    3.4158   17.8470 N   0  0  0  0  0  0  0  0  0  0  0  0
    4.5448    2.8797   19.0684 N   0  0  0  0  0  0  0  0  0  0  0  0
    3.8676    1.7252   19.0838 C   0  0  0  0  0  0  0  0  0  0  0  0
    3.5722    0.7883   20.0111 N   0  0  0  0  0  0  0  0  0  0  0  0
    2.8402   -0.2852   19.6552 C   0  0  0  0  0  0  0  0  0  0  0  0
    2.3919   -0.4504   18.3910 N   0  0  0  0  0  0  0  0  0  0  0  0
    2.6626    0.4564   17.4378 C   0  0  0  0  0  0  0  0  0  0  0  0
    2.2034    0.3114   16.0910 N   0  0  0  0  0  0  0  0  0  0  0  0
    3.4082    1.5550   17.7892 C   0  0  0  0  0  0  0  0  0  0  0  0
    1.2673    0.6352   15.8024 H   0  0  0  0  0  0  0  0  0  0  0  0
    2.8495   -0.1369   15.4018 H   0  0  0  0  0  0  0  0  0  0  0  0
    5.1948    3.4340   20.2316 C   0  0  0  0  0  0  0  0  0  0  0  0
    4.3082    3.3368   21.4485 C   0  0  0  0  0  0  0  0  0  0  0  0
    5.0024    3.9609   22.6302 C   0  0  0  0  0  0  0  0  0  0  0  0
    6.3954    4.4522   22.3022 C   0  0  0  0  0  0  0  0  0  0  0  0
    6.3922    5.2796   21.1196 N   0  0  0  0  0  0  0  0  0  0  0  0
    5.5122    4.9222   20.0314 C   0  0  0  0  0  0  0  0  0  0  0  0
    7.2215    6.4067   21.0185 C   0  0  0  0  0  0  0  0  0  0  0  0
    8.0052    6.7420   21.9562 O   0  0  0  0  0  0  0  0  0  0  0  0
    7.1998    7.2282   19.8180 C   0  0  0  0  0  0  0  0  0  0  0  0
    8.3195    7.4937   19.1842 C   0  0  0  0  0  0  0  0  0  0  0  0
    3.3014    2.9635   14.4432 C   0  0  0  0  0  0  0  0  0  0  0  0
    3.5503    2.8182   15.6141 C   0  0  0  0  0  0  0  0  0  0  0  0
    2.6311    5.6687   10.3995 N   0  0  0  0  0  0  0  0  0  0  0  0
    2.3195    5.2125    9.1429 C   0  0  0  0  0  0  0  0  0  0  0  0
    2.1904    3.8835    9.1437 N   0  0  0  0  0  0  0  0  0  0  0  0
    2.4118    3.4275   10.3872 C   0  0  0  0  0  0  0  0  0  0  0  0
    2.4254    2.1649   10.9349 C   0  0  0  0  0  0  0  0  0  0  0  0
    2.7175    2.0214   12.2646 C   0  0  0  0  0  0  0  0  0  0  0  0
    2.9911    3.1213   13.0321 C   0  0  0  0  0  0  0  0  0  0  0  0
    2.9782    4.3731   12.4957 C   0  0  0  0  0  0  0  0  0  0  0  0
    2.6866    4.5710   11.1539 C   0  0  0  0  0  0  0  0  0  0  0  0
    2.7843    7.0629   10.7208 C   0  0  0  0  0  0  0  0  0  0  0  0
    4.6996    7.7816    9.2778 C   0  0  0  0  0  0  0  0  0  0  0  0
    5.1335    8.5701    8.2110 C   0  0  0  0  0  0  0  0  0  0  0  0
    4.2904    9.3572    7.4824 C   0  0  0  0  0  0  0  0  0  0  0  0
    2.9553    9.3809    7.8055 C   0  0  0  0  0  0  0  0  0  0  0  0
    2.5255    8.6155    8.8443 C   0  0  0  0  0  0  0  0  0  0  0  0
    3.3858    7.8010    9.6026 C   0  0  0  0  0  0  0  0  0  0  0  0
    6.5067    7.5766   10.8687 C   0  0  0  0  0  0  0  0  0  0  0  0
    5.6528    7.0379    9.9161 O   0  0  0  0  0  0  0  0  0  0  0  0
 41 42  1  0  0  0
 42 35  1  0  0  0
 35 36  2  0  0  0
 36 37  1  0  0  0
 37 38  2  0  0  0
 38 39  1  0  0  0
 39 40  2  0  0  0
 40 34  1  0  0  0
 34 25  1  0  0  0
 25 26  1  0  0  0
 26 27  2  0  0  0
 27 28  1  0  0  0
 28 29  2  0  0  0
 29 30  1  0  0  0
 30 31  2  0  0  0
 31 32  1  0  0  0
 32 33  2  0  0  0
 31 23  1  0  0  0
 23 24  3  0  0  0
 24  1  1  0  0  0
  1  2  2  0  0  0
  2  3  1  0  0  0
  3 13  1  0  0  0
 13 14  1  0  0  0
 14 15  1  0  0  0
 15 16  1  0  0  0
 16 17  1  0  0  0
 17 18  1  0  0  0
 17 19  1  0  0  0
 19 20  2  0  0  0
 19 21  1  0  0  0
 21 22  2  0  0  0
  3  4  1  0  0  0
  4  5  2  0  0  0
  5  6  1  0  0  0
  6  7  2  0  0  0
  7  8  1  0  0  0
  8  9  1  0  0  0
  8 10  2  0  0  0
 40 35  1  0  0  0
 33 25  1  0  0  0
 10  1  1  0  0  0
 33 28  1  0  0  0
 18 13  1  0  0  0
 10  4  1  0  0  0
  9 11  1  0  0  0
  9 12  1  0  0  0
M  END
> <minimizedAffinity>
-9.33853

> <CNNscore>
0.6727809310

> <CNNaffinity>
7.5660948753

> <CNN_VS>
5.0903244019

> <CNNaffinity_variance>
0.2922523618

$$$$
[H]C([H])=C([H])C(=O)N1C([H])([H])C([H])([H])C([H])([H])[C@@]([H])(n2nc(C#Cc3c([H])c([H])c4nc([H])n(C([H])([H])c5c([H])c([H])c([H])c([H])c5OC([H])([H])[H])c4c3[H])c3c(N([H])[H])nc([H])nc32)C1([H])[H]


 42 47  0  0  0  0  0  0  0  0999 V2000
    3.9820    2.5863   16.9432 C   0  0  0  0  0  0  0  0  0  0  0  0
    4.7494    3.2825   17.7920 N   0  0  0  0  0  0  0  0  0  0  0  0
    4.7293    2.7173   19.0003 N   0  0  0  0  0  0  0  0  0  0  0  0
    3.9495    1.6293   18.9938 C   0  0  0  0  0  0  0  0  0  0  0  0
    3.5747    0.7013   19.9011 N   0  0  0  0  0  0  0  0  0  0  0  0
    2.7458   -0.2921   19.5258 C   0  0  0  0  0  0  0  0  0  0  0  0
    2.2774   -0.3852   18.2615 N   0  0  0  0  0  0  0  0  0  0  0  0
    2.6245    0.5158   17.3278 C   0  0  0  0  0  0  0  0  0  0  0  0
    2.1467    0.4457   15.9815 N   0  0  0  0  0  0  0  0  0  0  0  0
    3.4694    1.5330   17.6992 C   0  0  0  0  0  0  0  0  0  0  0  0
    1.2425    0.8604   15.7078 H   0  0  0  0  0  0  0  0  0  0  0  0
    2.7453   -0.0430   15.2770 H   0  0  0  0  0  0  0  0  0  0  0  0
    5.4336    3.1818   20.1712 C   0  0  0  0  0  0  0  0  0  0  0  0
    5.2692    2.2205   21.3223 C   0  0  0  0  0  0  0  0  0  0  0  0
    5.9819    2.7581   22.5350 C   0  0  0  0  0  0  0  0  0  0  0  0
    6.7063    4.0585   22.2634 C   0  0  0  0  0  0  0  0  0  0  0  0
    5.8377    5.0157   21.6211 N   0  0  0  0  0  0  0  0  0  0  0  0
    4.8886    4.5368   20.6432 C   0  0  0  0  0  0  0  0  0  0  0  0
    5.9058    6.3822   21.9315 C   0  0  0  0  0  0  0  0  0  0  0  0
    6.7304    6.8305   22.7830 O   0  0  0  0  0  0  0  0  0  0  0  0
    5.0185    7.3291   21.2737 C   0  0  0  0  0  0  0  0  0  0  0  0
    5.0314    8.5945   21.6264 C   0  0  0  0  0  0  0  0  0  0  0  0
    3.4870    3.0160   14.3837 C   0  0  0  0  0  0  0  0  0  0  0  0
    3.7144    2.8299   15.5533 C   0  0  0  0  0  0  0  0  0  0  0  0
    1.4319    1.7572   10.1047 N   0  0  0  0  0  0  0  0  0  0  0  0
    1.5156    2.4388    8.9161 C   0  0  0  0  0  0  0  0  0  0  0  0
    2.2750    3.5287    9.0514 N   0  0  0  0  0  0  0  0  0  0  0  0
    2.7095    3.5991   10.3201 C   0  0  0  0  0  0  0  0  0  0  0  0
    3.4918    4.5086   10.9948 C   0  0  0  0  0  0  0  0  0  0  0  0
    3.7420    4.3102   12.3259 C   0  0  0  0  0  0  0  0  0  0  0  0
    3.2189    3.2216   12.9701 C   0  0  0  0  0  0  0  0  0  0  0  0
    2.4450    2.3180   12.3074 C   0  0  0  0  0  0  0  0  0  0  0  0
    2.1637    2.4738   10.9579 C   0  0  0  0  0  0  0  0  0  0  0  0
    0.7218    0.5150   10.2573 C   0  0  0  0  0  0  0  0  0  0  0  0
    2.4288   -0.9006    9.0959 C   0  0  0  0  0  0  0  0  0  0  0  0
    2.6986   -1.8103    8.0723 C   0  0  0  0  0  0  0  0  0  0  0  0
    1.7350   -2.2833    7.2304 C   0  0  0  0  0  0  0  0  0  0  0  0
    0.4406   -1.8510    7.3896 C   0  0  0  0  0  0  0  0  0  0  0  0
    0.1706   -0.9641    8.3846 C   0  0  0  0  0  0  0  0  0  0  0  0
    1.1562   -0.4695    9.2578 C   0  0  0  0  0  0  0  0  0  0  0  0
    4.7908   -0.9227    9.6051 C   0  0  0  0  0  0  0  0  0  0  0  0
    3.4898   -0.5159    9.8676 O   0  0  0  0  0  0  0  0  0  0  0  0
 41 42  1  0  0  0
 42 35  1  0  0  0
 35 36  2  0  0  0
 36 37  1  0  0  0
 37 38  2  0  0  0
 38 39  1  0  0  0
 39 40  2  0  0  0
 40 34  1  0  0  0
 34 25  1  0  0  0
 25 26  1  0  0  0
 26 27  2  0  0  0
 27 28  1  0  0  0
 28 29  2  0  0  0
 29 30  1  0  0  0
 30 31  2  0  0  0
 31 32  1  0  0  0
 32 33  2  0  0  0
 31 23  1  0  0  0
 23 24  3  0  0  0
 24  1  1  0  0  0
  1  2  2  0  0  0
  2  3  1  0  0  0
  3 13  1  0  0  0
 13 14  1  0  0  0
 14 15  1  0  0  0
 15 16  1  0  0  0
 16 17  1  0  0  0
 17 18  1  0  0  0
 17 19  1  0  0  0
 19 20  2  0  0  0
 19 21  1  0  0  0
 21 22  2  0  0  0
  3  4  1  0  0  0
  4  5  2  0  0  0
  5  6  1  0  0  0
  6  7  2  0  0  0
  7  8  1  0  0  0
  8  9  1  0  0  0
  8 10  2  0  0  0
 40 35  1  0  0  0
 33 25  1  0  0  0
 10  1  1  0  0  0
 33 28  1  0  0  0
 18 13  1  0  0  0
 10  4  1  0  0  0
  9 11  1  0  0  0
  9 12  1  0  0  0
M  END
> <minimizedAffinity>
-9.47035

> <CNNscore>
0.6666523814

> <CNNaffinity>
7.6093482971

> <CNN_VS>
5.0727901459

> <CNNaffinity_variance>
0.3799971938

$$$$
[H]C([H])=C([H])C(=O)N1C([H])([H])C([H])([H])C([H])([H])[C@@]([H])(n2nc(C#Cc3c([H])c([H])c4nc([H])n(C([H])([H])c5c([H])c([H])c([H])c([H])c5OC([H])([H])[H])c4c3[H])c3c(N([H])[H])nc([H])nc32)C1([H])[H]


 42 47  0  0  0  0  0  0  0  0999 V2000
    4.0168    2.9738   16.7107 C   0  0  0  0  0  0  0  0  0  0  0  0
    4.6943    3.5129   17.7326 N   0  0  0  0  0  0  0  0  0  0  0  0
    4.5746    2.7478   18.8189 N   0  0  0  0  0  0  0  0  0  0  0  0
    3.8152    1.6776   18.5549 C   0  0  0  0  0  0  0  0  0  0  0  0
    3.3750    0.6071   19.2514 N   0  0  0  0  0  0  0  0  0  0  0  0
    2.5983   -0.3063   18.6373 C   0  0  0  0  0  0  0  0  0  0  0  0
    2.2466   -0.1799   17.3386 N   0  0  0  0  0  0  0  0  0  0  0  0
    2.6622    0.8684   16.6089 C   0  0  0  0  0  0  0  0  0  0  0  0
    2.3081    1.0317   15.2328 N   0  0  0  0  0  0  0  0  0  0  0  0
    3.4547    1.8060   17.2247 C   0  0  0  0  0  0  0  0  0  0  0  0
    1.4258    1.4877   14.9533 H   0  0  0  0  0  0  0  0  0  0  0  0
    2.9749    0.6715   14.5123 H   0  0  0  0  0  0  0  0  0  0  0  0
    5.1639    3.0033   20.1113 C   0  0  0  0  0  0  0  0  0  0  0  0
    4.2396    2.5768   21.2249 C   0  0  0  0  0  0  0  0  0  0  0  0
    4.8699    2.8961   22.5547 C   0  0  0  0  0  0  0  0  0  0  0  0
    6.2553    3.4896   22.4217 C   0  0  0  0  0  0  0  0  0  0  0  0
    6.2642    4.5909   21.4889 N   0  0  0  0  0  0  0  0  0  0  0  0
    5.4356    4.5009   20.3092 C   0  0  0  0  0  0  0  0  0  0  0  0
    7.0564    5.7270   21.7126 C   0  0  0  0  0  0  0  0  0  0  0  0
    7.7948    5.8317   22.7371 O   0  0  0  0  0  0  0  0  0  0  0  0
    7.0476    6.8267   20.7601 C   0  0  0  0  0  0  0  0  0  0  0  0
    7.8670    7.8409   20.9211 C   0  0  0  0  0  0  0  0  0  0  0  0
    3.7606    3.8702   14.2386 C   0  0  0  0  0  0  0  0  0  0  0  0
    3.8712    3.4534   15.3647 C   0  0  0  0  0  0  0  0  0  0  0  0
    2.9661    3.3516    9.4200 N   0  0  0  0  0  0  0  0  0  0  0  0
    2.9423    4.3470    8.4750 C   0  0  0  0  0  0  0  0  0  0  0  0
    3.1934    5.5330    9.0348 N   0  0  0  0  0  0  0  0  0  0  0  0
    3.3870    5.3579   10.3520 C   0  0  0  0  0  0  0  0  0  0  0  0
    3.6543    6.2276   11.3847 C   0  0  0  0  0  0  0  0  0  0  0  0
    3.7755    5.7322   12.6551 C   0  0  0  0  0  0  0  0  0  0  0  0
    3.6317    4.3910   12.8878 C   0  0  0  0  0  0  0  0  0  0  0  0
    3.3680    3.5257   11.8697 C   0  0  0  0  0  0  0  0  0  0  0  0
    3.2376    3.9783   10.5648 C   0  0  0  0  0  0  0  0  0  0  0  0
    2.7792    1.9592    9.1088 C   0  0  0  0  0  0  0  0  0  0  0  0
    4.2213   -0.0728    9.3501 C   0  0  0  0  0  0  0  0  0  0  0  0
    5.5116   -0.6048    9.3312 C   0  0  0  0  0  0  0  0  0  0  0  0
    6.6171    0.1461    9.0570 C   0  0  0  0  0  0  0  0  0  0  0  0
    6.4632    1.4842    8.7864 C   0  0  0  0  0  0  0  0  0  0  0  0
    5.2089    2.0095    8.8036 C   0  0  0  0  0  0  0  0  0  0  0  0
    4.0623    1.2450    9.0857 C   0  0  0  0  0  0  0  0  0  0  0  0
    2.6550   -1.7863    8.6800 C   0  0  0  0  0  0  0  0  0  0  0  0
    3.2054   -0.9423    9.6347 O   0  0  0  0  0  0  0  0  0  0  0  0
 41 42  1  0  0  0
 42 35  1  0  0  0
 35 36  2  0  0  0
 36 37  1  0  0  0
 37 38  2  0  0  0
 38 39  1  0  0  0
 39 40  2  0  0  0
 40 34  1  0  0  0
 34 25  1  0  0  0
 25 26  1  0  0  0
 26 27  2  0  0  0
 27 28  1  0  0  0
 28 29  2  0  0  0
 29 30  1  0  0  0
 30 31  2  0  0  0
 31 32  1  0  0  0
 32 33  2  0  0  0
 31 23  1  0  0  0
 23 24  3  0  0  0
 24  1  1  0  0  0
  1  2  2  0  0  0
  2  3  1  0  0  0
  3 13  1  0  0  0
 13 14  1  0  0  0
 14 15  1  0  0  0
 15 16  1  0  0  0
 16 17  1  0  0  0
 17 18  1  0  0  0
 17 19  1  0  0  0
 19 20  2  0  0  0
 19 21  1  0  0  0
 21 22  2  0  0  0
  3  4  1  0  0  0
  4  5  2  0  0  0
  5  6  1  0  0  0
  6  7  2  0  0  0
  7  8  1  0  0  0
  8  9  1  0  0  0
  8 10  2  0  0  0
 40 35  1  0  0  0
 33 25  1  0  0  0
 10  1  1  0  0  0
 33 28  1  0  0  0
 18 13  1  0  0  0
 10  4  1  0  0  0
  9 11  1  0  0  0
  9 12  1  0  0  0
M  END
> <minimizedAffinity>
-9.07381

> <CNNscore>
0.6590144038

> <CNNaffinity>
7.7049188614

> <CNN_VS>
5.0776524544

> <CNNaffinity_variance>
0.3895936906

$$$$
[H]C([H])=C([H])C(=O)N1C([H])([H])C([H])([H])C([H])([H])[C@@]([H])(n2nc(C#Cc3c([H])c([H])c4nc([H])n(C([H])([H])c5c([H])c([H])c([H])c([H])c5OC([H])([H])[H])c4c3[H])c3c(N([H])[H])nc([H])nc32)C1([H])[H]


 42 47  0  0  0  0  0  0  0  0999 V2000
    3.9293    2.4356   17.0233 C   0  0  0  0  0  0  0  0  0  0  0  0
    4.7194    3.1936   17.7947 N   0  0  0  0  0  0  0  0  0  0  0  0
    4.7482    2.7116   19.0383 N   0  0  0  0  0  0  0  0  0  0  0  0
    3.9796    1.6198   19.1337 C   0  0  0  0  0  0  0  0  0  0  0  0
    3.6468    0.7527   20.1147 N   0  0  0  0  0  0  0  0  0  0  0  0
    2.8150   -0.2701   19.8377 C   0  0  0  0  0  0  0  0  0  0  0  0
    2.3027   -0.4525   18.6005 N   0  0  0  0  0  0  0  0  0  0  0  0
    2.6072    0.3856   17.5960 C   0  0  0  0  0  0  0  0  0  0  0  0
    2.0824    0.2207   16.2758 N   0  0  0  0  0  0  0  0  0  0  0  0
    3.4545    1.4321   17.8669 C   0  0  0  0  0  0  0  0  0  0  0  0
    1.1648    0.6089   16.0077 H   0  0  0  0  0  0  0  0  0  0  0  0
    2.6603   -0.3102   15.5847 H   0  0  0  0  0  0  0  0  0  0  0  0
    5.4891    3.2599   20.1488 C   0  0  0  0  0  0  0  0  0  0  0  0
    5.4303    2.3452   21.3472 C   0  0  0  0  0  0  0  0  0  0  0  0
    6.1783    2.9687   22.4957 C   0  0  0  0  0  0  0  0  0  0  0  0
    6.8251    4.2869   22.1303 C   0  0  0  0  0  0  0  0  0  0  0  0
    5.8800    5.1738   21.4952 N   0  0  0  0  0  0  0  0  0  0  0  0
    4.9056    4.6089   20.5911 C   0  0  0  0  0  0  0  0  0  0  0  0
    5.8991    6.5547   21.7427 C   0  0  0  0  0  0  0  0  0  0  0  0
    6.7443    7.0778   22.5288 O   0  0  0  0  0  0  0  0  0  0  0  0
    4.9351    7.4298   21.0937 C   0  0  0  0  0  0  0  0  0  0  0  0
    4.9188    8.7126   21.3765 C   0  0  0  0  0  0  0  0  0  0  0  0
    3.3239    2.7095   14.4662 C   0  0  0  0  0  0  0  0  0  0  0  0
    3.6098    2.5821   15.6307 C   0  0  0  0  0  0  0  0  0  0  0  0
    1.8112    5.3458   10.6087 N   0  0  0  0  0  0  0  0  0  0  0  0
    1.6337    4.9005    9.3225 C   0  0  0  0  0  0  0  0  0  0  0  0
    1.9113    3.5975    9.2334 N   0  0  0  0  0  0  0  0  0  0  0  0
    2.2777    3.1489   10.4449 C   0  0  0  0  0  0  0  0  0  0  0  0
    2.6792    1.9162   10.9070 C   0  0  0  0  0  0  0  0  0  0  0  0
    3.0200    1.7805   12.2258 C   0  0  0  0  0  0  0  0  0  0  0  0
    2.9602    2.8587   13.0669 C   0  0  0  0  0  0  0  0  0  0  0  0
    2.5628    4.0806   12.6155 C   0  0  0  0  0  0  0  0  0  0  0  0
    2.2059    4.2690   11.2882 C   0  0  0  0  0  0  0  0  0  0  0  0
    1.5414    6.6970   11.0236 C   0  0  0  0  0  0  0  0  0  0  0  0
    0.7481    7.0298   13.3745 C   0  0  0  0  0  0  0  0  0  0  0  0
   -0.3220    6.9830   14.2694 C   0  0  0  0  0  0  0  0  0  0  0  0
   -1.5899    6.6529   13.8894 C   0  0  0  0  0  0  0  0  0  0  0  0
   -1.8332    6.3523   12.5711 C   0  0  0  0  0  0  0  0  0  0  0  0
   -0.7951    6.3952   11.6936 C   0  0  0  0  0  0  0  0  0  0  0  0
    0.5161    6.7335   12.0745 C   0  0  0  0  0  0  0  0  0  0  0  0
    2.3908    8.7001   13.9666 C   0  0  0  0  0  0  0  0  0  0  0  0
    1.9636    7.3814   13.8924 O   0  0  0  0  0  0  0  0  0  0  0  0
 41 42  1  0  0  0
 42 35  1  0  0  0
 35 36  2  0  0  0
 36 37  1  0  0  0
 37 38  2  0  0  0
 38 39  1  0  0  0
 39 40  2  0  0  0
 40 34  1  0  0  0
 34 25  1  0  0  0
 25 26  1  0  0  0
 26 27  2  0  0  0
 27 28  1  0  0  0
 28 29  2  0  0  0
 29 30  1  0  0  0
 30 31  2  0  0  0
 31 32  1  0  0  0
 32 33  2  0  0  0
 31 23  1  0  0  0
 23 24  3  0  0  0
 24  1  1  0  0  0
  1  2  2  0  0  0
  2  3  1  0  0  0
  3 13  1  0  0  0
 13 14  1  0  0  0
 14 15  1  0  0  0
 15 16  1  0  0  0
 16 17  1  0  0  0
 17 18  1  0  0  0
 17 19  1  0  0  0
 19 20  2  0  0  0
 19 21  1  0  0  0
 21 22  2  0  0  0
  3  4  1  0  0  0
  4  5  2  0  0  0
  5  6  1  0  0  0
  6  7  2  0  0  0
  7  8  1  0  0  0
  8  9  1  0  0  0
  8 10  2  0  0  0
 40 35  1  0  0  0
 33 25  1  0  0  0
 10  1  1  0  0  0
 33 28  1  0  0  0
 18 13  1  0  0  0
 10  4  1  0  0  0
  9 11  1  0  0  0
  9 12  1  0  0  0
M  END
> <minimizedAffinity>
-10.26993

> <CNNscore>
0.6227156520

> <CNNaffinity>
7.6320810318

> <CNN_VS>
4.7526164055

> <CNNaffinity_variance>
0.3234855235

$$$$
[H]C([H])=C([H])C(=O)N1C([H])([H])C([H])([H])C([H])([H])[C@@]([H])(n2nc(C#Cc3c([H])c([H])c4nc([H])n(C([H])([H])c5c([H])c([H])c([H])c([H])c5OC([H])([H])[H])c4c3[H])c3c(N([H])[H])nc([H])nc32)C1([H])[H]


 42 47  0  0  0  0  0  0  0  0999 V2000
    3.3092    3.6047   16.6758 C   0  0  0  0  0  0  0  0  0  0  0  0
    4.0115    4.0884   17.7085 N   0  0  0  0  0  0  0  0  0  0  0  0
    4.2462    3.1226   18.5984 N   0  0  0  0  0  0  0  0  0  0  0  0
    3.7086    1.9679   18.1868 C   0  0  0  0  0  0  0  0  0  0  0  0
    3.6376    0.7073   18.6672 N   0  0  0  0  0  0  0  0  0  0  0  0
    2.9904   -0.2353   17.9549 C   0  0  0  0  0  0  0  0  0  0  0  0
    2.4082    0.0475   16.7685 N   0  0  0  0  0  0  0  0  0  0  0  0
    2.4549    1.2874   16.2539 C   0  0  0  0  0  0  0  0  0  0  0  0
    1.8494    1.6195   15.0015 N   0  0  0  0  0  0  0  0  0  0  0  0
    3.1122    2.2565   16.9715 C   0  0  0  0  0  0  0  0  0  0  0  0
    0.8544    1.8844   14.9367 H   0  0  0  0  0  0  0  0  0  0  0  0
    2.4497    1.5849   14.1459 H   0  0  0  0  0  0  0  0  0  0  0  0
    4.9714    3.2629   19.8383 C   0  0  0  0  0  0  0  0  0  0  0  0
    4.2101    2.6482   20.9867 C   0  0  0  0  0  0  0  0  0  0  0  0
    4.9771    2.8500   22.2667 C   0  0  0  0  0  0  0  0  0  0  0  0
    6.3039    3.5455   22.0542 C   0  0  0  0  0  0  0  0  0  0  0  0
    6.1440    4.7469   21.2705 N   0  0  0  0  0  0  0  0  0  0  0  0
    5.1864    4.7415   20.1892 C   0  0  0  0  0  0  0  0  0  0  0  0
    6.8969    5.8988   21.5436 C   0  0  0  0  0  0  0  0  0  0  0  0
    7.7459    5.9310   22.4839 O   0  0  0  0  0  0  0  0  0  0  0  0
    6.7173    7.0998   20.7424 C   0  0  0  0  0  0  0  0  0  0  0  0
    7.7037    7.5458   19.9982 C   0  0  0  0  0  0  0  0  0  0  0  0
    2.4563    4.8428   14.5032 C   0  0  0  0  0  0  0  0  0  0  0  0
    2.8393    4.2834   15.5004 C   0  0  0  0  0  0  0  0  0  0  0  0
   -0.6368    5.4506   10.7373 N   0  0  0  0  0  0  0  0  0  0  0  0
   -0.5627    6.4050    9.7534 C   0  0  0  0  0  0  0  0  0  0  0  0
    0.5114    7.1786    9.9285 N   0  0  0  0  0  0  0  0  0  0  0  0
    1.1706    6.7633   11.0223 C   0  0  0  0  0  0  0  0  0  0  0  0
    2.3082    7.2073   11.6571 C   0  0  0  0  0  0  0  0  0  0  0  0
    2.7229    6.5726   12.7968 C   0  0  0  0  0  0  0  0  0  0  0  0
    2.0122    5.5129   13.2923 C   0  0  0  0  0  0  0  0  0  0  0  0
    0.8863    5.0686   12.6679 C   0  0  0  0  0  0  0  0  0  0  0  0
    0.4260    5.6773   11.5094 C   0  0  0  0  0  0  0  0  0  0  0  0
   -1.6600    4.4400   10.7853 C   0  0  0  0  0  0  0  0  0  0  0  0
   -3.7507    5.1279    9.5926 C   0  0  0  0  0  0  0  0  0  0  0  0
   -4.9908    5.7638    9.6705 C   0  0  0  0  0  0  0  0  0  0  0  0
   -5.4770    6.2970   10.8282 C   0  0  0  0  0  0  0  0  0  0  0  0
   -4.7202    6.2090   11.9715 C   0  0  0  0  0  0  0  0  0  0  0  0
   -3.5105    5.5913   11.9028 C   0  0  0  0  0  0  0  0  0  0  0  0
   -2.9992    5.0387   10.7146 C   0  0  0  0  0  0  0  0  0  0  0  0
   -3.8458    3.4120    7.8940 C   0  0  0  0  0  0  0  0  0  0  0  0
   -3.3920    4.6348    8.3689 O   0  0  0  0  0  0  0  0  0  0  0  0
 41 42  1  0  0  0
 42 35  1  0  0  0
 35 36  2  0  0  0
 36 37  1  0  0  0
 37 38  2  0  0  0
 38 39  1  0  0  0
 39 40  2  0  0  0
 40 34  1  0  0  0
 34 25  1  0  0  0
 25 26  1  0  0  0
 26 27  2  0  0  0
 27 28  1  0  0  0
 28 29  2  0  0  0
 29 30  1  0  0  0
 30 31  2  0  0  0
 31 32  1  0  0  0
 32 33  2  0  0  0
 31 23  1  0  0  0
 23 24  3  0  0  0
 24  1  1  0  0  0
  1  2  2  0  0  0
  2  3  1  0  0  0
  3 13  1  0  0  0
 13 14  1  0  0  0
 14 15  1  0  0  0
 15 16  1  0  0  0
 16 17  1  0  0  0
 17 18  1  0  0  0
 17 19  1  0  0  0
 19 20  2  0  0  0
 19 21  1  0  0  0
 21 22  2  0  0  0
  3  4  1  0  0  0
  4  5  2  0  0  0
  5  6  1  0  0  0
  6  7  2  0  0  0
  7  8  1  0  0  0
  8  9  1  0  0  0
  8 10  2  0  0  0
 40 35  1  0  0  0
 33 25  1  0  0  0
 10  1  1  0  0  0
 33 28  1  0  0  0
 18 13  1  0  0  0
 10  4  1  0  0  0
  9 11  1  0  0  0
  9 12  1  0  0  0
M  END
> <minimizedAffinity>
-9.02862

> <CNNscore>
0.5857770443

> <CNNaffinity>
7.3817710876

> <CNN_VS>
4.3240718842

> <CNNaffinity_variance>
0.4506263733

$$$$
[H]C([H])=C([H])C(=O)N1C([H])([H])C([H])([H])C([H])([H])[C@@]([H])(n2nc(C#Cc3c([H])c([H])c4nc([H])n(C([H])([H])c5c([H])c([H])c([H])c([H])c5OC([H])([H])[H])c4c3[H])c3c(N([H])[H])nc([H])nc32)C1([H])[H]


 42 47  0  0  0  0  0  0  0  0999 V2000
    3.9476    2.4363   17.1016 C   0  0  0  0  0  0  0  0  0  0  0  0
    4.7378    3.2119   17.8551 N   0  0  0  0  0  0  0  0  0  0  0  0
    4.7863    2.7446   19.1037 N   0  0  0  0  0  0  0  0  0  0  0  0
    4.0313    1.6455   19.2205 C   0  0  0  0  0  0  0  0  0  0  0  0
    3.7196    0.7860   20.2150 N   0  0  0  0  0  0  0  0  0  0  0  0
    2.8963   -0.2492   19.9593 C   0  0  0  0  0  0  0  0  0  0  0  0
    2.3721   -0.4515   18.7302 N   0  0  0  0  0  0  0  0  0  0  0  0
    2.6556    0.3783   17.7128 C   0  0  0  0  0  0  0  0  0  0  0  0
    2.1176    0.1924   16.4007 N   0  0  0  0  0  0  0  0  0  0  0  0
    3.4940    1.4373   17.9619 C   0  0  0  0  0  0  0  0  0  0  0  0
    1.1927    0.5672   16.1388 H   0  0  0  0  0  0  0  0  0  0  0  0
    2.6936   -0.3399   15.7091 H   0  0  0  0  0  0  0  0  0  0  0  0
    5.5336    3.3140   20.1993 C   0  0  0  0  0  0  0  0  0  0  0  0
    5.4952    2.4145   21.4100 C   0  0  0  0  0  0  0  0  0  0  0  0
    6.2493    3.0596   22.5426 C   0  0  0  0  0  0  0  0  0  0  0  0
    6.8804    4.3786   22.1533 C   0  0  0  0  0  0  0  0  0  0  0  0
    5.9210    5.2487   21.5167 N   0  0  0  0  0  0  0  0  0  0  0  0
    4.9424    4.6634   20.6300 C   0  0  0  0  0  0  0  0  0  0  0  0
    5.9302    6.6328   21.7460 C   0  0  0  0  0  0  0  0  0  0  0  0
    6.7786    7.1737   22.5164 O   0  0  0  0  0  0  0  0  0  0  0  0
    4.9517    7.4908   21.0956 C   0  0  0  0  0  0  0  0  0  0  0  0
    4.9078    8.7718   21.3836 C   0  0  0  0  0  0  0  0  0  0  0  0
    3.3324    2.6878   14.5445 C   0  0  0  0  0  0  0  0  0  0  0  0
    3.6106    2.5632   15.7112 C   0  0  0  0  0  0  0  0  0  0  0  0
    3.9246    4.7645   10.1336 N   0  0  0  0  0  0  0  0  0  0  0  0
    3.2265    4.4800    8.9864 C   0  0  0  0  0  0  0  0  0  0  0  0
    2.3047    3.5420    9.2172 N   0  0  0  0  0  0  0  0  0  0  0  0
    2.3669    3.1822   10.5095 C   0  0  0  0  0  0  0  0  0  0  0  0
    1.6727    2.2621   11.2616 C   0  0  0  0  0  0  0  0  0  0  0  0
    1.9949    2.1063   12.5829 C   0  0  0  0  0  0  0  0  0  0  0  0
    2.9937    2.8576   13.1413 C   0  0  0  0  0  0  0  0  0  0  0  0
    3.6834    3.7701   12.4021 C   0  0  0  0  0  0  0  0  0  0  0  0
    3.3935    3.9660   11.0597 C   0  0  0  0  0  0  0  0  0  0  0  0
    4.9502    5.7711   10.2079 C   0  0  0  0  0  0  0  0  0  0  0  0
    6.1777    6.4127    8.1227 C   0  0  0  0  0  0  0  0  0  0  0  0
    7.1496    6.0708    7.1811 C   0  0  0  0  0  0  0  0  0  0  0  0
    7.8915    4.9291    7.2653 C   0  0  0  0  0  0  0  0  0  0  0  0
    7.6796    4.0732    8.3189 C   0  0  0  0  0  0  0  0  0  0  0  0
    6.7337    4.3996    9.2399 C   0  0  0  0  0  0  0  0  0  0  0  0
    5.9626    5.5736    9.1625 C   0  0  0  0  0  0  0  0  0  0  0  0
    5.5869    8.2890    6.7195 C   0  0  0  0  0  0  0  0  0  0  0  0
    5.5136    7.5899    7.9164 O   0  0  0  0  0  0  0  0  0  0  0  0
 41 42  1  0  0  0
 42 35  1  0  0  0
 35 36  2  0  0  0
 36 37  1  0  0  0
 37 38  2  0  0  0
 38 39  1  0  0  0
 39 40  2  0  0  0
 40 34  1  0  0  0
 34 25  1  0  0  0
 25 26  1  0  0  0
 26 27  2  0  0  0
 27 28  1  0  0  0
 28 29  2  0  0  0
 29 30  1  0  0  0
 30 31  2  0  0  0
 31 32  1  0  0  0
 32 33  2  0  0  0
 31 23  1  0  0  0
 23 24  3  0  0  0
 24  1  1  0  0  0
  1  2  2  0  0  0
  2  3  1  0  0  0
  3 13  1  0  0  0
 13 14  1  0  0  0
 14 15  1  0  0  0
 15 16  1  0  0  0
 16 17  1  0  0  0
 17 18  1  0  0  0
 17 19  1  0  0  0
 19 20  2  0  0  0
 19 21  1  0  0  0
 21 22  2  0  0  0
  3  4  1  0  0  0
  4  5  2  0  0  0
  5  6  1  0  0  0
  6  7  2  0  0  0
  7  8  1  0  0  0
  8  9  1  0  0  0
  8 10  2  0  0  0
 40 35  1  0  0  0
 33 25  1  0  0  0
 10  1  1  0  0  0
 33 28  1  0  0  0
 18 13  1  0  0  0
 10  4  1  0  0  0
  9 11  1  0  0  0
  9 12  1  0  0  0
M  END
> <minimizedAffinity>
-9.34867

> <CNNscore>
0.5342653990

> <CNNaffinity>
7.4369573593

> <CNN_VS>
3.9733090401

> <CNNaffinity_variance>
0.5571826100

$$$$
[H]C([H])=C([H])C(=O)N1C([H])([H])C([H])([H])C([H])([H])[C@@]([H])(n2nc(C#Cc3c([H])c([H])c4nc([H])n(C([H])([H])c5c([H])c([H])c([H])c([H])c5OC([H])([H])[H])c4c3[H])c3c(N([H])[H])nc([H])nc32)C1([H])[H]


 42 47  0  0  0  0  0  0  0  0999 V2000
    4.0031    2.5005   17.0747 C   0  0  0  0  0  0  0  0  0  0  0  0
    4.7765    3.2393   17.8809 N   0  0  0  0  0  0  0  0  0  0  0  0
    4.7710    2.7328   19.1151 N   0  0  0  0  0  0  0  0  0  0  0  0
    3.9953    1.6432   19.1691 C   0  0  0  0  0  0  0  0  0  0  0  0
    3.6335    0.7586   20.1238 N   0  0  0  0  0  0  0  0  0  0  0  0
    2.8046   -0.2544   19.8053 C   0  0  0  0  0  0  0  0  0  0  0  0
    2.3236   -0.4099   18.5520 N   0  0  0  0  0  0  0  0  0  0  0  0
    2.6576    0.4463   17.5724 C   0  0  0  0  0  0  0  0  0  0  0  0
    2.1663    0.3100   16.2362 N   0  0  0  0  0  0  0  0  0  0  0  0
    3.5023    1.4830   17.8857 C   0  0  0  0  0  0  0  0  0  0  0  0
    1.2578    0.7080   15.9523 H   0  0  0  0  0  0  0  0  0  0  0  0
    2.7596   -0.2100   15.5498 H   0  0  0  0  0  0  0  0  0  0  0  0
    5.4854    3.2555   20.2549 C   0  0  0  0  0  0  0  0  0  0  0  0
    5.3592    2.3364   21.4447 C   0  0  0  0  0  0  0  0  0  0  0  0
    6.0814    2.9339   22.6233 C   0  0  0  0  0  0  0  0  0  0  0  0
    6.7754    4.2363   22.2895 C   0  0  0  0  0  0  0  0  0  0  0  0
    5.8776    5.1513   21.6263 N   0  0  0  0  0  0  0  0  0  0  0  0
    4.9219    4.6171   20.6842 C   0  0  0  0  0  0  0  0  0  0  0  0
    5.9241    6.5299   21.8829 C   0  0  0  0  0  0  0  0  0  0  0  0
    6.7537    7.0263   22.7021 O   0  0  0  0  0  0  0  0  0  0  0  0
    5.0075    7.4336   21.2049 C   0  0  0  0  0  0  0  0  0  0  0  0
    4.9721    8.7040   21.5379 C   0  0  0  0  0  0  0  0  0  0  0  0
    3.4719    2.8380   14.5086 C   0  0  0  0  0  0  0  0  0  0  0  0
    3.7203    2.6760   15.6774 C   0  0  0  0  0  0  0  0  0  0  0  0
    3.5424    5.4592   10.3562 N   0  0  0  0  0  0  0  0  0  0  0  0
    3.0226    5.0933    9.1395 C   0  0  0  0  0  0  0  0  0  0  0  0
    2.4456    3.8916    9.2169 N   0  0  0  0  0  0  0  0  0  0  0  0
    2.5672    3.4328   10.4731 C   0  0  0  0  0  0  0  0  0  0  0  0
    2.1778    2.2640   11.0868 C   0  0  0  0  0  0  0  0  0  0  0  0
    2.4778    2.0769   12.4092 C   0  0  0  0  0  0  0  0  0  0  0  0
    3.1552    3.0418   13.1048 C   0  0  0  0  0  0  0  0  0  0  0  0
    3.5422    4.2006   12.5030 C   0  0  0  0  0  0  0  0  0  0  0  0
    3.2606    4.4381   11.1655 C   0  0  0  0  0  0  0  0  0  0  0  0
    4.1826    6.7255   10.5956 C   0  0  0  0  0  0  0  0  0  0  0  0
    2.3131    7.8500   11.8233 C   0  0  0  0  0  0  0  0  0  0  0  0
    1.9028    8.5207   12.9766 C   0  0  0  0  0  0  0  0  0  0  0  0
    2.7330    8.7477   14.0349 C   0  0  0  0  0  0  0  0  0  0  0  0
    4.0305    8.3004   13.9717 C   0  0  0  0  0  0  0  0  0  0  0  0
    4.4374    7.6466   12.8507 C   0  0  0  0  0  0  0  0  0  0  0  0
    3.5903    7.4077   11.7535 C   0  0  0  0  0  0  0  0  0  0  0  0
    0.2915    6.8298   10.9801 C   0  0  0  0  0  0  0  0  0  0  0  0
    1.3739    7.6880   10.8431 O   0  0  0  0  0  0  0  0  0  0  0  0
 41 42  1  0  0  0
 42 35  1  0  0  0
 35 36  2  0  0  0
 36 37  1  0  0  0
 37 38  2  0  0  0
 38 39  1  0  0  0
 39 40  2  0  0  0
 40 34  1  0  0  0
 34 25  1  0  0  0
 25 26  1  0  0  0
 26 27  2  0  0  0
 27 28  1  0  0  0
 28 29  2  0  0  0
 29 30  1  0  0  0
 30 31  2  0  0  0
 31 32  1  0  0  0
 32 33  2  0  0  0
 31 23  1  0  0  0
 23 24  3  0  0  0
 24  1  1  0  0  0
  1  2  2  0  0  0
  2  3  1  0  0  0
  3 13  1  0  0  0
 13 14  1  0  0  0
 14 15  1  0  0  0
 15 16  1  0  0  0
 16 17  1  0  0  0
 17 18  1  0  0  0
 17 19  1  0  0  0
 19 20  2  0  0  0
 19 21  1  0  0  0
 21 22  2  0  0  0
  3  4  1  0  0  0
  4  5  2  0  0  0
  5  6  1  0  0  0
  6  7  2  0  0  0
  7  8  1  0  0  0
  8  9  1  0  0  0
  8 10  2  0  0  0
 40 35  1  0  0  0
 33 25  1  0  0  0
 10  1  1  0  0  0
 33 28  1  0  0  0
 18 13  1  0  0  0
 10  4  1  0  0  0
  9 11  1  0  0  0
  9 12  1  0  0  0
M  END
> <minimizedAffinity>
-10.18495

> <CNNscore>
0.5003811121

> <CNNaffinity>
7.3981485367

> <CNN_VS>
3.7018938065

> <CNNaffinity_variance>
0.3278542161

$$$$
[H]c1c([H])c(C([H])([H])[H])c([H])c(C([H])([H])c2nc(N([H])[H])nc3c([H])c([H])c([H])c([H])c23)c1[H]


 21 23  0  0  0  0  0  0  0  0999 V2000
    4.2295    2.1835   18.5815 C   0  0  0  0  0  0  0  0  0  0  0  0
    3.7310    1.1391   19.2234 N   0  0  0  0  0  0  0  0  0  0  0  0
    2.9087    0.2298   18.6232 C   0  0  0  0  0  0  0  0  0  0  0  0
    2.3892   -0.8793   19.3339 N   0  0  0  0  0  0  0  0  0  0  0  0
    2.5632    0.3569   17.3337 N   0  0  0  0  0  0  0  0  0  0  0  0
    3.0484    1.4044   16.6465 C   0  0  0  0  0  0  0  0  0  0  0  0
    3.8846    2.3330   17.2483 C   0  0  0  0  0  0  0  0  0  0  0  0
    4.3743    3.4011   16.5322 C   0  0  0  0  0  0  0  0  0  0  0  0
    4.0600    3.5936   15.2024 C   0  0  0  0  0  0  0  0  0  0  0  0
    3.2284    2.6637   14.6165 C   0  0  0  0  0  0  0  0  0  0  0  0
    2.7176    1.5813   15.2986 C   0  0  0  0  0  0  0  0  0  0  0  0
    1.4516   -0.8149   19.7596 H   0  0  0  0  0  0  0  0  0  0  0  0
    2.9454   -1.7409   19.4228 H   0  0  0  0  0  0  0  0  0  0  0  0
    5.1233    3.1982   19.1804 C   0  0  0  0  0  0  0  0  0  0  0  0
    4.0775    4.6867   20.8192 C   0  0  0  0  0  0  0  0  0  0  0  0
    3.7285    5.0716   22.1033 C   0  0  0  0  0  0  0  0  0  0  0  0
    4.1262    4.2546   23.1361 C   0  0  0  0  0  0  0  0  0  0  0  0
    4.8407    3.0993   22.9297 C   0  0  0  0  0  0  0  0  0  0  0  0
    5.2598    2.2316   24.0642 C   0  0  0  0  0  0  0  0  0  0  0  0
    5.1679    2.7546   21.6185 C   0  0  0  0  0  0  0  0  0  0  0  0
    4.7907    3.5418   20.5572 C   0  0  0  0  0  0  0  0  0  0  0  0
 15 16  2  0  0  0
 16 17  1  0  0  0
 17 18  2  0  0  0
 18 19  1  0  0  0
 18 20  1  0  0  0
 20 21  2  0  0  0
 21 14  1  0  0  0
 14  1  1  0  0  0
  1  2  2  0  0  0
  2  3  1  0  0  0
  3  4  1  0  0  0
  3  5  2  0  0  0
  5  6  1  0  0  0
  6  7  2  0  0  0
  7  8  1  0  0  0
  8  9  2  0  0  0
  9 10  1  0  0  0
 10 11  2  0  0  0
 21 15  1  0  0  0
  7  1  1  0  0  0
 11  6  1  0  0  0
  4 12  1  0  0  0
  4 13  1  0  0  0
M  END
> <minimizedAffinity>
-8.45557

> <CNNscore>
0.8462749124

> <CNNaffinity>
5.8559274673

> <CNN_VS>
4.9557247162

> <CNNaffinity_variance>
0.3603433669

$$$$
[H]c1c([H])c(C([H])([H])[H])c([H])c(C([H])([H])c2nc(N([H])[H])nc3c([H])c([H])c([H])c([H])c23)c1[H]


 21 23  0  0  0  0  0  0  0  0999 V2000
    4.2543    2.2491   17.5780 C   0  0  0  0  0  0  0  0  0  0  0  0
    3.5794    2.1481   16.4441 N   0  0  0  0  0  0  0  0  0  0  0  0
    2.5850    1.2317   16.2583 C   0  0  0  0  0  0  0  0  0  0  0  0
    1.8786    1.1454   15.0341 N   0  0  0  0  0  0  0  0  0  0  0  0
    2.2418    0.3778   17.2338 N   0  0  0  0  0  0  0  0  0  0  0  0
    2.9034    0.4479   18.4010 C   0  0  0  0  0  0  0  0  0  0  0  0
    3.9150    1.3759   18.5985 C   0  0  0  0  0  0  0  0  0  0  0  0
    4.5842    1.4365   19.7993 C   0  0  0  0  0  0  0  0  0  0  0  0
    4.2832    0.5888   20.8458 C   0  0  0  0  0  0  0  0  0  0  0  0
    3.2761   -0.3284   20.6365 C   0  0  0  0  0  0  0  0  0  0  0  0
    2.5826   -0.4208   19.4497 C   0  0  0  0  0  0  0  0  0  0  0  0
    2.1807    0.4635   14.3212 H   0  0  0  0  0  0  0  0  0  0  0  0
    1.0708    1.7595   14.8608 H   0  0  0  0  0  0  0  0  0  0  0  0
    5.3391    3.2209   17.8344 C   0  0  0  0  0  0  0  0  0  0  0  0
    4.2212    5.3642   17.4442 C   0  0  0  0  0  0  0  0  0  0  0  0
    3.7525    6.6094   17.8296 C   0  0  0  0  0  0  0  0  0  0  0  0
    3.9627    6.9852   19.1362 C   0  0  0  0  0  0  0  0  0  0  0  0
    4.6080    6.1776   20.0413 C   0  0  0  0  0  0  0  0  0  0  0  0
    4.8236    6.6070   21.4502 C   0  0  0  0  0  0  0  0  0  0  0  0
    5.0614    4.9330   19.6050 C   0  0  0  0  0  0  0  0  0  0  0  0
    4.8725    4.5178   18.3088 C   0  0  0  0  0  0  0  0  0  0  0  0
 15 16  2  0  0  0
 16 17  1  0  0  0
 17 18  2  0  0  0
 18 19  1  0  0  0
 18 20  1  0  0  0
 20 21  2  0  0  0
 21 14  1  0  0  0
 14  1  1  0  0  0
  1  2  2  0  0  0
  2  3  1  0  0  0
  3  4  1  0  0  0
  3  5  2  0  0  0
  5  6  1  0  0  0
  6  7  2  0  0  0
  7  8  1  0  0  0
  8  9  2  0  0  0
  9 10  1  0  0  0
 10 11  2  0  0  0
 21 15  1  0  0  0
  7  1  1  0  0  0
 11  6  1  0  0  0
  4 12  1  0  0  0
  4 13  1  0  0  0
M  END
> <minimizedAffinity>
-7.26206

> <CNNscore>
0.6956531405

> <CNNaffinity>
5.5885133743

> <CNN_VS>
3.8876669407

> <CNNaffinity_variance>
0.6567891836

$$$$
[H]c1c([H])c(C([H])([H])[H])c([H])c(C([H])([H])c2nc(N([H])[H])nc3c([H])c([H])c([H])c([H])c23)c1[H]


 21 23  0  0  0  0  0  0  0  0999 V2000
    4.4669    1.6237   19.3704 C   0  0  0  0  0  0  0  0  0  0  0  0
    4.0539    0.7617   20.2858 N   0  0  0  0  0  0  0  0  0  0  0  0
    3.1194   -0.1983   20.0246 C   0  0  0  0  0  0  0  0  0  0  0  0
    2.6955   -1.1083   21.0232 N   0  0  0  0  0  0  0  0  0  0  0  0
    2.5684   -0.3126   18.8073 N   0  0  0  0  0  0  0  0  0  0  0  0
    2.9608    0.5440   17.8496 C   0  0  0  0  0  0  0  0  0  0  0  0
    3.9098    1.5224   18.1061 C   0  0  0  0  0  0  0  0  0  0  0  0
    4.3025    2.3931   17.1156 C   0  0  0  0  0  0  0  0  0  0  0  0
    3.7772    2.3328   15.8409 C   0  0  0  0  0  0  0  0  0  0  0  0
    2.8353    1.3560   15.5993 C   0  0  0  0  0  0  0  0  0  0  0  0
    2.4159    0.4658   16.5634 C   0  0  0  0  0  0  0  0  0  0  0  0
    1.8435   -0.9031   21.5678 H   0  0  0  0  0  0  0  0  0  0  0  0
    3.2354   -1.9665   21.2013 H   0  0  0  0  0  0  0  0  0  0  0  0
    5.4745    2.6821   19.5970 C   0  0  0  0  0  0  0  0  0  0  0  0
    4.4677    3.4424   21.6955 C   0  0  0  0  0  0  0  0  0  0  0  0
    4.0174    4.4099   22.5787 C   0  0  0  0  0  0  0  0  0  0  0  0
    4.1434    5.7240   22.1919 C   0  0  0  0  0  0  0  0  0  0  0  0
    4.6895    6.0886   20.9849 C   0  0  0  0  0  0  0  0  0  0  0  0
    4.8149    7.5180   20.5889 C   0  0  0  0  0  0  0  0  0  0  0  0
    5.1284    5.0777   20.1301 C   0  0  0  0  0  0  0  0  0  0  0  0
    5.0216    3.7523   20.4768 C   0  0  0  0  0  0  0  0  0  0  0  0
 15 16  2  0  0  0
 16 17  1  0  0  0
 17 18  2  0  0  0
 18 19  1  0  0  0
 18 20  1  0  0  0
 20 21  2  0  0  0
 21 14  1  0  0  0
 14  1  1  0  0  0
  1  2  2  0  0  0
  2  3  1  0  0  0
  3  4  1  0  0  0
  3  5  2  0  0  0
  5  6  1  0  0  0
  6  7  2  0  0  0
  7  8  1  0  0  0
  8  9  2  0  0  0
  9 10  1  0  0  0
 10 11  2  0  0  0
 21 15  1  0  0  0
  7  1  1  0  0  0
 11  6  1  0  0  0
  4 12  1  0  0  0
  4 13  1  0  0  0
M  END
> <minimizedAffinity>
-7.86580

> <CNNscore>
0.6840736270

> <CNNaffinity>
5.6830492020

> <CNN_VS>
3.8876240253

> <CNNaffinity_variance>
0.4800229669

$$$$
[H]c1c([H])c(C([H])([H])[H])c([H])c(C([H])([H])c2nc(N([H])[H])nc3c([H])c([H])c([H])c([H])c23)c1[H]


 21 23  0  0  0  0  0  0  0  0999 V2000
    4.4563    2.1762   19.8100 C   0  0  0  0  0  0  0  0  0  0  0  0
    4.1022    0.9054   19.9161 N   0  0  0  0  0  0  0  0  0  0  0  0
    3.6221    0.3693   21.0759 C   0  0  0  0  0  0  0  0  0  0  0  0
    3.2503   -0.9944   21.1616 N   0  0  0  0  0  0  0  0  0  0  0  0
    3.4856    1.1197   22.1790 N   0  0  0  0  0  0  0  0  0  0  0  0
    3.8343    2.4154   22.1127 C   0  0  0  0  0  0  0  0  0  0  0  0
    4.3229    2.9685   20.9384 C   0  0  0  0  0  0  0  0  0  0  0  0
    4.6763    4.2973   20.8849 C   0  0  0  0  0  0  0  0  0  0  0  0
    4.5619    5.1273   21.9814 C   0  0  0  0  0  0  0  0  0  0  0  0
    4.0750    4.5653   23.1418 C   0  0  0  0  0  0  0  0  0  0  0  0
    3.7105    3.2401   23.2361 C   0  0  0  0  0  0  0  0  0  0  0  0
    3.9300   -1.6839   21.5182 H   0  0  0  0  0  0  0  0  0  0  0  0
    2.3089   -1.2913   20.8698 H   0  0  0  0  0  0  0  0  0  0  0  0
    4.9816    2.8093   18.5812 C   0  0  0  0  0  0  0  0  0  0  0  0
    3.5826    1.2409   17.3249 C   0  0  0  0  0  0  0  0  0  0  0  0
    2.8833    0.8220   16.2049 C   0  0  0  0  0  0  0  0  0  0  0  0
    2.8930    1.6529   15.1086 C   0  0  0  0  0  0  0  0  0  0  0  0
    3.5609    2.8536   15.0989 C   0  0  0  0  0  0  0  0  0  0  0  0
    3.5566    3.7354   13.8996 C   0  0  0  0  0  0  0  0  0  0  0  0
    4.2504    3.2313   16.2508 C   0  0  0  0  0  0  0  0  0  0  0  0
    4.2668    2.4317   17.3683 C   0  0  0  0  0  0  0  0  0  0  0  0
 15 16  2  0  0  0
 16 17  1  0  0  0
 17 18  2  0  0  0
 18 19  1  0  0  0
 18 20  1  0  0  0
 20 21  2  0  0  0
 21 14  1  0  0  0
 14  1  1  0  0  0
  1  2  2  0  0  0
  2  3  1  0  0  0
  3  4  1  0  0  0
  3  5  2  0  0  0
  5  6  1  0  0  0
  6  7  2  0  0  0
  7  8  1  0  0  0
  8  9  2  0  0  0
  9 10  1  0  0  0
 10 11  2  0  0  0
 21 15  1  0  0  0
  7  1  1  0  0  0
 11  6  1  0  0  0
  4 12  1  0  0  0
  4 13  1  0  0  0
M  END
> <minimizedAffinity>
-8.77750

> <CNNscore>
0.6398826838

> <CNNaffinity>
5.6710395813

> <CNN_VS>
3.6287999153

> <CNNaffinity_variance>
0.4418396354

$$$$
[H]c1c([H])c(C([H])([H])[H])c([H])c(C([H])([H])c2nc(N([H])[H])nc3c([H])c([H])c([H])c([H])c23)c1[H]


 21 23  0  0  0  0  0  0  0  0999 V2000
    4.4968    2.3831   19.8370 C   0  0  0  0  0  0  0  0  0  0  0  0
    4.0833    1.1262   19.8116 N   0  0  0  0  0  0  0  0  0  0  0  0
    3.5436    0.5065   20.9015 C   0  0  0  0  0  0  0  0  0  0  0  0
    3.1091   -0.8400   20.8464 N   0  0  0  0  0  0  0  0  0  0  0  0
    3.4061    1.1553   22.0671 N   0  0  0  0  0  0  0  0  0  0  0  0
    3.8141    2.4335   22.1343 C   0  0  0  0  0  0  0  0  0  0  0  0
    4.3635    3.0711   21.0319 C   0  0  0  0  0  0  0  0  0  0  0  0
    4.7771    4.3808   21.1152 C   0  0  0  0  0  0  0  0  0  0  0  0
    4.6654    5.1083   22.2825 C   0  0  0  0  0  0  0  0  0  0  0  0
    4.1178    4.4631   23.3703 C   0  0  0  0  0  0  0  0  0  0  0  0
    3.6919    3.1537   23.3277 C   0  0  0  0  0  0  0  0  0  0  0  0
    3.7458   -1.5915   21.1537 H   0  0  0  0  0  0  0  0  0  0  0  0
    2.1650   -1.0633   20.5022 H   0  0  0  0  0  0  0  0  0  0  0  0
    5.0880    3.1037   18.6889 C   0  0  0  0  0  0  0  0  0  0  0  0
    3.3251    4.4872   17.7023 C   0  0  0  0  0  0  0  0  0  0  0  0
    2.4052    4.8130   16.7193 C   0  0  0  0  0  0  0  0  0  0  0  0
    2.3305    3.9817   15.6257 C   0  0  0  0  0  0  0  0  0  0  0  0
    3.1239    2.8683   15.4898 C   0  0  0  0  0  0  0  0  0  0  0  0
    3.0242    1.9839   14.2966 C   0  0  0  0  0  0  0  0  0  0  0  0
    4.0347    2.5825   16.5067 C   0  0  0  0  0  0  0  0  0  0  0  0
    4.1424    3.3860   17.6162 C   0  0  0  0  0  0  0  0  0  0  0  0
 15 16  2  0  0  0
 16 17  1  0  0  0
 17 18  2  0  0  0
 18 19  1  0  0  0
 18 20  1  0  0  0
 20 21  2  0  0  0
 21 14  1  0  0  0
 14  1  1  0  0  0
  1  2  2  0  0  0
  2  3  1  0  0  0
  3  4  1  0  0  0
  3  5  2  0  0  0
  5  6  1  0  0  0
  6  7  2  0  0  0
  7  8  1  0  0  0
  8  9  2  0  0  0
  9 10  1  0  0  0
 10 11  2  0  0  0
 21 15  1  0  0  0
  7  1  1  0  0  0
 11  6  1  0  0  0
  4 12  1  0  0  0
  4 13  1  0  0  0
M  END
> <minimizedAffinity>
-7.96030

> <CNNscore>
0.5510559082

> <CNNaffinity>
5.5661883354

> <CNN_VS>
3.0672810078

> <CNNaffinity_variance>
0.5554724932

$$$$
[H]c1c([H])c(C([H])([H])[H])c([H])c(C([H])([H])c2nc(N([H])[H])nc3c([H])c([H])c([H])c([H])c23)c1[H]


 21 23  0  0  0  0  0  0  0  0999 V2000
    4.5797    2.4454   18.2399 C   0  0  0  0  0  0  0  0  0  0  0  0
    5.3185    3.5381   18.3474 N   0  0  0  0  0  0  0  0  0  0  0  0
    5.4487    4.4416   17.3325 C   0  0  0  0  0  0  0  0  0  0  0  0
    6.2460    5.6031   17.4746 N   0  0  0  0  0  0  0  0  0  0  0  0
    4.8229    4.2586   16.1607 N   0  0  0  0  0  0  0  0  0  0  0  0
    4.0628    3.1610   16.0112 C   0  0  0  0  0  0  0  0  0  0  0  0
    3.9248    2.2378   17.0371 C   0  0  0  0  0  0  0  0  0  0  0  0
    3.1429    1.1179   16.8700 C   0  0  0  0  0  0  0  0  0  0  0  0
    2.4708    0.8666   15.6913 C   0  0  0  0  0  0  0  0  0  0  0  0
    2.6163    1.7917   14.6801 C   0  0  0  0  0  0  0  0  0  0  0  0
    3.3894    2.9248   14.8078 C   0  0  0  0  0  0  0  0  0  0  0  0
    7.2220    5.5924   17.1401 H   0  0  0  0  0  0  0  0  0  0  0  0
    5.8516    6.4492   17.9084 H   0  0  0  0  0  0  0  0  0  0  0  0
    4.4030    1.4343   19.3045 C   0  0  0  0  0  0  0  0  0  0  0  0
    6.0472    1.4461   21.1188 C   0  0  0  0  0  0  0  0  0  0  0  0
    6.5230    1.8294   22.3620 C   0  0  0  0  0  0  0  0  0  0  0  0
    5.7342    2.6770   23.1048 C   0  0  0  0  0  0  0  0  0  0  0  0
    4.5207    3.1388   22.6553 C   0  0  0  0  0  0  0  0  0  0  0  0
    3.6850    4.0556   23.4781 C   0  0  0  0  0  0  0  0  0  0  0  0
    4.0851    2.7243   21.3969 C   0  0  0  0  0  0  0  0  0  0  0  0
    4.8414    1.8784   20.6218 C   0  0  0  0  0  0  0  0  0  0  0  0
 15 16  2  0  0  0
 16 17  1  0  0  0
 17 18  2  0  0  0
 18 19  1  0  0  0
 18 20  1  0  0  0
 20 21  2  0  0  0
 21 14  1  0  0  0
 14  1  1  0  0  0
  1  2  2  0  0  0
  2  3  1  0  0  0
  3  4  1  0  0  0
  3  5  2  0  0  0
  5  6  1  0  0  0
  6  7  2  0  0  0
  7  8  1  0  0  0
  8  9  2  0  0  0
  9 10  1  0  0  0
 10 11  2  0  0  0
 21 15  1  0  0  0
  7  1  1  0  0  0
 11  6  1  0  0  0
  4 12  1  0  0  0
  4 13  1  0  0  0
M  END
> <minimizedAffinity>
-8.22424

> <CNNscore>
0.3749435246

> <CNNaffinity>
5.4059567451

> <CNN_VS>
2.0269284248

> <CNNaffinity_variance>
0.3841530085

$$$$
[H]c1c([H])c(C([H])([H])[H])c([H])c(C([H])([H])c2nc(N([H])[H])nc3c([H])c([H])c([H])c([H])c23)c1[H]


 21 23  0  0  0  0  0  0  0  0999 V2000
    3.9518    3.2738   16.9912 C   0  0  0  0  0  0  0  0  0  0  0  0
    3.9240    4.3954   17.6931 N   0  0  0  0  0  0  0  0  0  0  0  0
    3.2686    5.5144   17.2671 C   0  0  0  0  0  0  0  0  0  0  0  0
    3.2550    6.7018   18.0386 N   0  0  0  0  0  0  0  0  0  0  0  0
    2.6124    5.5273   16.0977 N   0  0  0  0  0  0  0  0  0  0  0  0
    2.6166    4.4079   15.3548 C   0  0  0  0  0  0  0  0  0  0  0  0
    3.2797    3.2663   15.7799 C   0  0  0  0  0  0  0  0  0  0  0  0
    3.2757    2.1267   15.0087 C   0  0  0  0  0  0  0  0  0  0  0  0
    2.6211    2.0693   13.7952 C   0  0  0  0  0  0  0  0  0  0  0  0
    1.9661    3.2103   13.3846 C   0  0  0  0  0  0  0  0  0  0  0  0
    1.9465    4.3705   14.1272 C   0  0  0  0  0  0  0  0  0  0  0  0
    3.9474    7.4414   17.8435 H   0  0  0  0  0  0  0  0  0  0  0  0
    2.5584    6.8223   18.7868 H   0  0  0  0  0  0  0  0  0  0  0  0
    4.6444    2.0338   17.4030 C   0  0  0  0  0  0  0  0  0  0  0  0
    3.0366    0.3198   18.0903 C   0  0  0  0  0  0  0  0  0  0  0  0
    2.3420   -0.4281   19.0269 C   0  0  0  0  0  0  0  0  0  0  0  0
    2.5981   -0.1715   20.3539 C   0  0  0  0  0  0  0  0  0  0  0  0
    3.5006    0.7816   20.7602 C   0  0  0  0  0  0  0  0  0  0  0  0
    3.7603    1.0409   22.2028 C   0  0  0  0  0  0  0  0  0  0  0  0
    4.1749    1.5085   19.7793 C   0  0  0  0  0  0  0  0  0  0  0  0
    3.9496    1.2845   18.4424 C   0  0  0  0  0  0  0  0  0  0  0  0
 15 16  2  0  0  0
 16 17  1  0  0  0
 17 18  2  0  0  0
 18 19  1  0  0  0
 18 20  1  0  0  0
 20 21  2  0  0  0
 21 14  1  0  0  0
 14  1  1  0  0  0
  1  2  2  0  0  0
  2  3  1  0  0  0
  3  4  1  0  0  0
  3  5  2  0  0  0
  5  6  1  0  0  0
  6  7  2  0  0  0
  7  8  1  0  0  0
  8  9  2  0  0  0
  9 10  1  0  0  0
 10 11  2  0  0  0
 21 15  1  0  0  0
  7  1  1  0  0  0
 11  6  1  0  0  0
  4 12  1  0  0  0
  4 13  1  0  0  0
M  END
> <minimizedAffinity>
-7.55310

> <CNNscore>
0.3552577794

> <CNNaffinity>
5.3264188766

> <CNN_VS>
1.8922517300

> <CNNaffinity_variance>
0.1157798171

$$$$
[H]c1c([H])c(C([H])([H])[H])c([H])c(C([H])([H])c2nc(N([H])[H])nc3c([H])c([H])c([H])c([H])c23)c1[H]


 21 23  0  0  0  0  0  0  0  0999 V2000
    4.7123    3.4973   19.7595 C   0  0  0  0  0  0  0  0  0  0  0  0
    4.2865    4.6541   19.2778 N   0  0  0  0  0  0  0  0  0  0  0  0
    3.7863    5.6437   20.0739 C   0  0  0  0  0  0  0  0  0  0  0  0
    3.3375    6.8725   19.5318 N   0  0  0  0  0  0  0  0  0  0  0  0
    3.7025    5.4848   21.4028 N   0  0  0  0  0  0  0  0  0  0  0  0
    4.1246    4.3241   21.9315 C   0  0  0  0  0  0  0  0  0  0  0  0
    4.6343    3.3132   21.1302 C   0  0  0  0  0  0  0  0  0  0  0  0
    5.0630    2.1294   21.6853 C   0  0  0  0  0  0  0  0  0  0  0  0
    5.0058    1.8981   23.0446 C   0  0  0  0  0  0  0  0  0  0  0  0
    4.4974    2.9105   23.8294 C   0  0  0  0  0  0  0  0  0  0  0  0
    4.0582    4.1095   23.3125 C   0  0  0  0  0  0  0  0  0  0  0  0
    2.3354    6.9977   19.3205 H   0  0  0  0  0  0  0  0  0  0  0  0
    4.0085    7.6321   19.3517 H   0  0  0  0  0  0  0  0  0  0  0  0
    5.2625    2.3920   18.9456 C   0  0  0  0  0  0  0  0  0  0  0  0
    3.5062    0.7287   18.5655 C   0  0  0  0  0  0  0  0  0  0  0  0
    2.5574    0.0777   17.7943 C   0  0  0  0  0  0  0  0  0  0  0  0
    2.4103    0.4944   16.4916 C   0  0  0  0  0  0  0  0  0  0  0  0
    3.1608    1.5116   15.9532 C   0  0  0  0  0  0  0  0  0  0  0  0
    2.9831    1.9444   14.5401 C   0  0  0  0  0  0  0  0  0  0  0  0
    4.1033    2.1360   16.7699 C   0  0  0  0  0  0  0  0  0  0  0  0
    4.2829    1.7516   18.0769 C   0  0  0  0  0  0  0  0  0  0  0  0
 15 16  2  0  0  0
 16 17  1  0  0  0
 17 18  2  0  0  0
 18 19  1  0  0  0
 18 20  1  0  0  0
 20 21  2  0  0  0
 21 14  1  0  0  0
 14  1  1  0  0  0
  1  2  2  0  0  0
  2  3  1  0  0  0
  3  4  1  0  0  0
  3  5  2  0  0  0
  5  6  1  0  0  0
  6  7  2  0  0  0
  7  8  1  0  0  0
  8  9  2  0  0  0
  9 10  1  0  0  0
 10 11  2  0  0  0
 21 15  1  0  0  0
  7  1  1  0  0  0
 11  6  1  0  0  0
  4 12  1  0  0  0
  4 13  1  0  0  0
M  END
> <minimizedAffinity>
-8.57271

> <CNNscore>
0.2861341834

> <CNNaffinity>
5.1995229721

> <CNN_VS>
1.4877612591

> <CNNaffinity_variance>
0.2403453290

$$$$
[H]c1c([H])c(C([H])([H])[H])c([H])c(C([H])([H])c2nc(N([H])[H])nc3c([H])c([H])c([H])c([H])c23)c1[H]


 21 23  0  0  0  0  0  0  0  0999 V2000
    4.2894    3.5587   18.5346 C   0  0  0  0  0  0  0  0  0  0  0  0
    4.1101    4.7391   19.1055 N   0  0  0  0  0  0  0  0  0  0  0  0
    3.3571    5.7253   18.5366 C   0  0  0  0  0  0  0  0  0  0  0  0
    3.1817    6.9797   19.1697 N   0  0  0  0  0  0  0  0  0  0  0  0
    2.7552    5.5386   17.3529 N   0  0  0  0  0  0  0  0  0  0  0  0
    2.9127    4.3533   16.7403 C   0  0  0  0  0  0  0  0  0  0  0  0
    3.6758    3.3456   17.3111 C   0  0  0  0  0  0  0  0  0  0  0  0
    3.8286    2.1364   16.6723 C   0  0  0  0  0  0  0  0  0  0  0  0
    3.2378    1.8759   15.4528 C   0  0  0  0  0  0  0  0  0  0  0  0
    2.4821    2.8854   14.8967 C   0  0  0  0  0  0  0  0  0  0  0  0
    2.3049    4.1092   15.5039 C   0  0  0  0  0  0  0  0  0  0  0  0
    3.7982    7.7669   18.9152 H   0  0  0  0  0  0  0  0  0  0  0  0
    2.4440    7.1012   19.8773 H   0  0  0  0  0  0  0  0  0  0  0  0
    5.0931    2.4557   19.1042 C   0  0  0  0  0  0  0  0  0  0  0  0
    3.5511    1.0182   20.3498 C   0  0  0  0  0  0  0  0  0  0  0  0
    3.0130    0.4833   21.5086 C   0  0  0  0  0  0  0  0  0  0  0  0
    3.5461    0.9055   22.7044 C   0  0  0  0  0  0  0  0  0  0  0  0
    4.5701    1.8189   22.7740 C   0  0  0  0  0  0  0  0  0  0  0  0
    5.1302    2.2603   24.0807 C   0  0  0  0  0  0  0  0  0  0  0  0
    5.0782    2.3287   21.5794 C   0  0  0  0  0  0  0  0  0  0  0  0
    4.5753    1.9343   20.3629 C   0  0  0  0  0  0  0  0  0  0  0  0
 15 16  2  0  0  0
 16 17  1  0  0  0
 17 18  2  0  0  0
 18 19  1  0  0  0
 18 20  1  0  0  0
 20 21  2  0  0  0
 21 14  1  0  0  0
 14  1  1  0  0  0
  1  2  2  0  0  0
  2  3  1  0  0  0
  3  4  1  0  0  0
  3  5  2  0  0  0
  5  6  1  0  0  0
  6  7  2  0  0  0
  7  8  1  0  0  0
  8  9  2  0  0  0
  9 10  1  0  0  0
 10 11  2  0  0  0
 21 15  1  0  0  0
  7  1  1  0  0  0
 11  6  1  0  0  0
  4 12  1  0  0  0
  4 13  1  0  0  0
M  END
> <minimizedAffinity>
-7.94706

> <CNNscore>
0.2510190010

> <CNNaffinity>
5.3025302887

> <CNN_VS>
1.3310358524

> <CNNaffinity_variance>
0.2206677198

$$$$
[H]N=C(N([H])[H])N([H])C([H])([H])C([H])([H])C([H])([H])[C@@]([H])(C(=O)O[H])N([H])C(=O)[C@@]1([H])N(C(=O)[C@@]([H])(N([H])[H])C([H])([H])c2c([H])c([H])c(O[H])c([H])c2[H])C([H])([H])C([H])([H])C1([H])[H]


 40 41  0  0  0  0  0  0  0  0999 V2000
    3.6750    6.8683   17.3400 N   0  0  0  0  0  0  0  0  0  0  0  0
    2.8491    5.8059   16.8848 C   0  0  0  0  0  0  0  0  0  0  0  0
    2.2036    5.1870   17.8004 O   0  0  0  0  0  0  0  0  0  0  0  0
    4.2246    7.3962   16.6213 H   0  0  0  0  0  0  0  0  0  0  0  0
    2.6904    5.4086   15.5349 C   0  0  0  0  0  0  0  0  0  0  0  0
    1.3714    5.6038   14.8393 C   0  0  0  0  0  0  0  0  0  0  0  0
    1.7536    5.1026   13.4202 C   0  0  0  0  0  0  0  0  0  0  0  0
    3.1623    4.5010   13.5681 C   0  0  0  0  0  0  0  0  0  0  0  0
    3.0338    4.1144   15.0402 N   0  0  0  0  0  0  0  0  0  0  0  0
    3.1428    2.7950   15.4357 C   0  0  0  0  0  0  0  0  0  0  0  0
    3.6803    2.0088   14.5266 O   0  0  0  0  0  0  0  0  0  0  0  0
    2.7895    2.0649   16.6370 C   0  0  0  0  0  0  0  0  0  0  0  0
    1.7342    1.1131   16.5695 N   0  0  0  0  0  0  0  0  0  0  0  0
    1.8831    0.3898   17.3434 H   0  0  0  0  0  0  0  0  0  0  0  0
    0.8120    1.5483   16.8964 H   0  0  0  0  0  0  0  0  0  0  0  0
    3.9666    1.4156   17.3559 C   0  0  0  0  0  0  0  0  0  0  0  0
    3.8913    1.3745   18.8009 C   0  0  0  0  0  0  0  0  0  0  0  0
    3.2549    0.3367   19.4558 C   0  0  0  0  0  0  0  0  0  0  0  0
    3.1724    0.2956   20.8590 C   0  0  0  0  0  0  0  0  0  0  0  0
    3.7200    1.2816   21.6195 C   0  0  0  0  0  0  0  0  0  0  0  0
    3.6583    1.2758   23.0182 O   0  0  0  0  0  0  0  0  0  0  0  0
    4.3539    2.3164   21.0034 C   0  0  0  0  0  0  0  0  0  0  0  0
    4.4294    2.3477   19.6281 C   0  0  0  0  0  0  0  0  0  0  0  0
    4.0661    2.0082   23.5709 H   0  0  0  0  0  0  0  0  0  0  0  0
    3.8056    7.2623   18.7018 C   0  0  0  0  0  0  0  0  0  0  0  0
    3.7600    8.7436   18.8754 C   0  0  0  0  0  0  0  0  0  0  0  0
    3.7926    9.2850   20.1543 O   0  0  0  0  0  0  0  0  0  0  0  0
    3.6931    9.5324   17.9104 O   0  0  0  0  0  0  0  0  0  0  0  0
    2.9365    9.2786   20.7217 H   0  0  0  0  0  0  0  0  0  0  0  0
    4.9955    6.7540   19.4357 C   0  0  0  0  0  0  0  0  0  0  0  0
    4.6726    5.9732   20.6692 C   0  0  0  0  0  0  0  0  0  0  0  0
    5.5224    6.4622   21.8186 C   0  0  0  0  0  0  0  0  0  0  0  0
    5.3783    7.8853   22.0209 N   0  0  0  0  0  0  0  0  0  0  0  0
    4.5335    8.4203   21.6974 H   0  0  0  0  0  0  0  0  0  0  0  0
    6.0896    9.5601   23.7268 N   0  0  0  0  0  0  0  0  0  0  0  0
    6.3769    8.6482   22.6692 C   0  0  0  0  0  0  0  0  0  0  0  0
    7.6140    8.5514   22.3258 N   0  0  0  0  0  0  0  0  0  0  0  0
    5.6945   10.4957   23.4906 H   0  0  0  0  0  0  0  0  0  0  0  0
    6.2500    9.3525   24.7337 H   0  0  0  0  0  0  0  0  0  0  0  0
    7.8580    7.8963   21.5591 H   0  0  0  0  0  0  0  0  0  0  0  0
 35 36  1  0  0  0
 36 37  2  0  0  0
 36 33  1  0  0  0
 33 32  1  0  0  0
 32 31  1  0  0  0
 31 30  1  0  0  0
 30 25  1  0  0  0
 25  1  1  0  0  0
  1  2  1  0  0  0
  2  3  2  0  0  0
  2  5  1  0  0  0
  5  6  1  0  0  0
  6  7  1  0  0  0
  7  8  1  0  0  0
  8  9  1  0  0  0
  9 10  1  0  0  0
 10 11  2  0  0  0
 10 12  1  0  0  0
 12 13  1  0  0  0
 12 16  1  0  0  0
 16 17  1  0  0  0
 17 18  2  0  0  0
 18 19  1  0  0  0
 19 20  2  0  0  0
 20 21  1  0  0  0
 20 22  1  0  0  0
 22 23  2  0  0  0
 25 26  1  0  0  0
 26 27  1  0  0  0
 26 28  2  0  0  0
  9  5  1  0  0  0
 23 17  1  0  0  0
 35 38  1  0  0  0
 35 39  1  0  0  0
 37 40  1  0  0  0
 33 34  1  0  0  0
  1  4  1  0  0  0
 13 14  1  0  0  0
 13 15  1  0  0  0
 21 24  1  0  0  0
 27 29  1  0  0  0
M  END
> <minimizedAffinity>
-7.80706

> <CNNscore>
0.3824547827

> <CNNaffinity>
5.9918036461

> <CNN_VS>
2.2915940285

> <CNNaffinity_variance>
0.1870660186

$$$$
[H]N=C(N([H])[H])N([H])C([H])([H])C([H])([H])C([H])([H])[C@@]([H])(C(=O)O[H])N([H])C(=O)[C@@]1([H])N(C(=O)[C@@]([H])(N([H])[H])C([H])([H])c2c([H])c([H])c(O[H])c([H])c2[H])C([H])([H])C([H])([H])C1([H])[H]


 40 41  0  0  0  0  0  0  0  0999 V2000
    3.5011    6.7834   16.2831 N   0  0  0  0  0  0  0  0  0  0  0  0
    2.4955    6.0349   15.6150 C   0  0  0  0  0  0  0  0  0  0  0  0
    1.9060    5.1534   16.3315 O   0  0  0  0  0  0  0  0  0  0  0  0
    4.0113    7.5112   15.7289 H   0  0  0  0  0  0  0  0  0  0  0  0
    2.1092    6.2009   14.2628 C   0  0  0  0  0  0  0  0  0  0  0  0
    0.7620    6.7789   13.9267 C   0  0  0  0  0  0  0  0  0  0  0  0
    0.8804    6.8213   12.3790 C   0  0  0  0  0  0  0  0  0  0  0  0
    2.1827    6.0698   12.0509 C   0  0  0  0  0  0  0  0  0  0  0  0
    2.1780    5.1659   13.2822 N   0  0  0  0  0  0  0  0  0  0  0  0
    2.1237    3.7917   13.1489 C   0  0  0  0  0  0  0  0  0  0  0  0
    2.4121    3.3619   11.9383 O   0  0  0  0  0  0  0  0  0  0  0  0
    1.8106    2.6982   14.0473 C   0  0  0  0  0  0  0  0  0  0  0  0
    0.6967    1.8663   13.7449 N   0  0  0  0  0  0  0  0  0  0  0  0
    0.8543    0.9127   14.2032 H   0  0  0  0  0  0  0  0  0  0  0  0
   -0.1721    2.1893   14.2812 H   0  0  0  0  0  0  0  0  0  0  0  0
    2.9927    1.7991   14.3911 C   0  0  0  0  0  0  0  0  0  0  0  0
    3.2033    1.5269   15.7970 C   0  0  0  0  0  0  0  0  0  0  0  0
    4.0561    2.3050   16.5574 C   0  0  0  0  0  0  0  0  0  0  0  0
    4.2701    2.0405   17.9219 C   0  0  0  0  0  0  0  0  0  0  0  0
    3.6403    1.0048   18.5391 C   0  0  0  0  0  0  0  0  0  0  0  0
    3.8277    0.7099   19.8949 O   0  0  0  0  0  0  0  0  0  0  0  0
    2.7939    0.2211   17.8168 C   0  0  0  0  0  0  0  0  0  0  0  0
    2.5910    0.4883   16.4806 C   0  0  0  0  0  0  0  0  0  0  0  0
    3.3578   -0.0567   20.3417 H   0  0  0  0  0  0  0  0  0  0  0  0
    3.8609    6.6115   17.6498 C   0  0  0  0  0  0  0  0  0  0  0  0
    4.0347    7.9105   18.3631 C   0  0  0  0  0  0  0  0  0  0  0  0
    3.1179    8.2855   19.3371 O   0  0  0  0  0  0  0  0  0  0  0  0
    4.9803    8.6891   18.1224 O   0  0  0  0  0  0  0  0  0  0  0  0
    2.2083    8.6646   19.0477 H   0  0  0  0  0  0  0  0  0  0  0  0
    5.0595    5.7754   17.9275 C   0  0  0  0  0  0  0  0  0  0  0  0
    5.2195    5.3832   19.3614 C   0  0  0  0  0  0  0  0  0  0  0  0
    3.9007    4.8836   19.9031 C   0  0  0  0  0  0  0  0  0  0  0  0
    3.4905    5.6233   21.0742 N   0  0  0  0  0  0  0  0  0  0  0  0
    2.4813    5.7480   21.3401 H   0  0  0  0  0  0  0  0  0  0  0  0
    5.1928    5.4957   22.8926 N   0  0  0  0  0  0  0  0  0  0  0  0
    4.4321    6.2306   21.9368 C   0  0  0  0  0  0  0  0  0  0  0  0
    4.6478    7.4993   21.8964 N   0  0  0  0  0  0  0  0  0  0  0  0
    4.7366    5.2088   23.7852 H   0  0  0  0  0  0  0  0  0  0  0  0
    6.1877    5.2219   22.7581 H   0  0  0  0  0  0  0  0  0  0  0  0
    4.1108    8.0643   21.2117 H   0  0  0  0  0  0  0  0  0  0  0  0
 35 36  1  0  0  0
 36 37  2  0  0  0
 36 33  1  0  0  0
 33 32  1  0  0  0
 32 31  1  0  0  0
 31 30  1  0  0  0
 30 25  1  0  0  0
 25  1  1  0  0  0
  1  2  1  0  0  0
  2  3  2  0  0  0
  2  5  1  0  0  0
  5  6  1  0  0  0
  6  7  1  0  0  0
  7  8  1  0  0  0
  8  9  1  0  0  0
  9 10  1  0  0  0
 10 11  2  0  0  0
 10 12  1  0  0  0
 12 13  1  0  0  0
 12 16  1  0  0  0
 16 17  1  0  0  0
 17 18  2  0  0  0
 18 19  1  0  0  0
 19 20  2  0  0  0
 20 21  1  0  0  0
 20 22  1  0  0  0
 22 23  2  0  0  0
 25 26  1  0  0  0
 26 27  1  0  0  0
 26 28  2  0  0  0
  9  5  1  0  0  0
 23 17  1  0  0  0
 35 38  1  0  0  0
 35 39  1  0  0  0
 37 40  1  0  0  0
 33 34  1  0  0  0
  1  4  1  0  0  0
 13 14  1  0  0  0
 13 15  1  0  0  0
 21 24  1  0  0  0
 27 29  1  0  0  0
M  END
> <minimizedAffinity>
-8.60224

> <CNNscore>
0.3674843907

> <CNNaffinity>
5.9083561897

> <CNN_VS>
2.1712286472

> <CNNaffinity_variance>
0.2935352921

$$$$
[H]N=C(N([H])[H])N([H])C([H])([H])C([H])([H])C([H])([H])[C@@]([H])(C(=O)O[H])N([H])C(=O)[C@@]1([H])N(C(=O)[C@@]([H])(N([H])[H])C([H])([H])c2c([H])c([H])c(O[H])c([H])c2[H])C([H])([H])C([H])([H])C1([H])[H]


 40 41  0  0  0  0  0  0  0  0999 V2000
    6.1994    7.2561   18.4455 N   0  0  0  0  0  0  0  0  0  0  0  0
    7.4939    7.4255   19.0053 C   0  0  0  0  0  0  0  0  0  0  0  0
    8.4292    6.7755   18.4218 O   0  0  0  0  0  0  0  0  0  0  0  0
    5.4054    7.7674   18.8987 H   0  0  0  0  0  0  0  0  0  0  0  0
    7.8078    8.2439   20.1176 C   0  0  0  0  0  0  0  0  0  0  0  0
    9.0017    7.9278   20.9760 C   0  0  0  0  0  0  0  0  0  0  0  0
    8.9400    9.1322   21.9541 C   0  0  0  0  0  0  0  0  0  0  0  0
    7.6073    9.8375   21.6458 C   0  0  0  0  0  0  0  0  0  0  0  0
    6.8702    8.6020   21.1325 N   0  0  0  0  0  0  0  0  0  0  0  0
    5.7287    8.1477   21.7648 C   0  0  0  0  0  0  0  0  0  0  0  0
    5.1840    9.0278   22.5785 O   0  0  0  0  0  0  0  0  0  0  0  0
    4.9857    6.9033   21.7433 C   0  0  0  0  0  0  0  0  0  0  0  0
    4.0591    6.6819   20.6866 N   0  0  0  0  0  0  0  0  0  0  0  0
    3.9390    5.6266   20.5595 H   0  0  0  0  0  0  0  0  0  0  0  0
    3.0676    6.9466   20.9926 H   0  0  0  0  0  0  0  0  0  0  0  0
    5.8401    5.6497   21.8932 C   0  0  0  0  0  0  0  0  0  0  0  0
    5.1245    4.4020   22.0558 C   0  0  0  0  0  0  0  0  0  0  0  0
    4.3203    4.1757   23.1571 C   0  0  0  0  0  0  0  0  0  0  0  0
    3.6288    2.9626   23.3237 C   0  0  0  0  0  0  0  0  0  0  0  0
    3.7303    1.9690   22.4004 C   0  0  0  0  0  0  0  0  0  0  0  0
    3.0577    0.7479   22.5312 O   0  0  0  0  0  0  0  0  0  0  0  0
    4.5142    2.1624   21.3048 C   0  0  0  0  0  0  0  0  0  0  0  0
    5.1878    3.3543   21.1506 C   0  0  0  0  0  0  0  0  0  0  0  0
    3.1388    0.0206   21.8438 H   0  0  0  0  0  0  0  0  0  0  0  0
    5.9096    6.4414   17.3146 C   0  0  0  0  0  0  0  0  0  0  0  0
    4.5760    6.7446   16.7180 C   0  0  0  0  0  0  0  0  0  0  0  0
    3.6088    7.3780   17.4882 O   0  0  0  0  0  0  0  0  0  0  0  0
    4.2833    6.4516   15.5405 O   0  0  0  0  0  0  0  0  0  0  0  0
    3.0801    6.8294   18.1768 H   0  0  0  0  0  0  0  0  0  0  0  0
    5.9978    4.9692   17.5086 C   0  0  0  0  0  0  0  0  0  0  0  0
    4.7118    4.3218   17.9120 C   0  0  0  0  0  0  0  0  0  0  0  0
    4.4552    3.1132   17.0426 C   0  0  0  0  0  0  0  0  0  0  0  0
    3.6214    2.1419   17.7120 N   0  0  0  0  0  0  0  0  0  0  0  0
    3.5194    2.1082   18.7575 H   0  0  0  0  0  0  0  0  0  0  0  0
    2.9128   -0.2175   17.3220 N   0  0  0  0  0  0  0  0  0  0  0  0
    2.8897    1.1693   16.9922 C   0  0  0  0  0  0  0  0  0  0  0  0
    2.1563    1.4998   15.9868 N   0  0  0  0  0  0  0  0  0  0  0  0
    3.7340   -0.7901   17.0304 H   0  0  0  0  0  0  0  0  0  0  0  0
    2.1543   -0.7046   17.8418 H   0  0  0  0  0  0  0  0  0  0  0  0
    2.1169    2.5016   15.7197 H   0  0  0  0  0  0  0  0  0  0  0  0
 35 36  1  0  0  0
 36 37  2  0  0  0
 36 33  1  0  0  0
 33 32  1  0  0  0
 32 31  1  0  0  0
 31 30  1  0  0  0
 30 25  1  0  0  0
 25  1  1  0  0  0
  1  2  1  0  0  0
  2  3  2  0  0  0
  2  5  1  0  0  0
  5  6  1  0  0  0
  6  7  1  0  0  0
  7  8  1  0  0  0
  8  9  1  0  0  0
  9 10  1  0  0  0
 10 11  2  0  0  0
 10 12  1  0  0  0
 12 13  1  0  0  0
 12 16  1  0  0  0
 16 17  1  0  0  0
 17 18  2  0  0  0
 18 19  1  0  0  0
 19 20  2  0  0  0
 20 21  1  0  0  0
 20 22  1  0  0  0
 22 23  2  0  0  0
 25 26  1  0  0  0
 26 27  1  0  0  0
 26 28  2  0  0  0
  9  5  1  0  0  0
 23 17  1  0  0  0
 35 38  1  0  0  0
 35 39  1  0  0  0
 37 40  1  0  0  0
 33 34  1  0  0  0
  1  4  1  0  0  0
 13 14  1  0  0  0
 13 15  1  0  0  0
 21 24  1  0  0  0
 27 29  1  0  0  0
M  END
> <minimizedAffinity>
-6.76867

> <CNNscore>
0.2936860621

> <CNNaffinity>
5.7658586502

> <CNN_VS>
1.6933523417

> <CNNaffinity_variance>
0.3023563325

$$$$
[H]N=C(N([H])[H])N([H])C([H])([H])C([H])([H])C([H])([H])[C@@]([H])(C(=O)O[H])N([H])C(=O)[C@@]1([H])N(C(=O)[C@@]([H])(N([H])[H])C([H])([H])c2c([H])c([H])c(O[H])c([H])c2[H])C([H])([H])C([H])([H])C1([H])[H]


 40 41  0  0  0  0  0  0  0  0999 V2000
    5.4388    5.7434   19.3623 N   0  0  0  0  0  0  0  0  0  0  0  0
    4.2808    5.0153   18.9791 C   0  0  0  0  0  0  0  0  0  0  0  0
    3.6300    4.4804   19.9425 O   0  0  0  0  0  0  0  0  0  0  0  0
    6.0024    6.1916   18.6016 H   0  0  0  0  0  0  0  0  0  0  0  0
    3.8106    4.8574   17.6527 C   0  0  0  0  0  0  0  0  0  0  0  0
    2.4378    5.3413   17.2744 C   0  0  0  0  0  0  0  0  0  0  0  0
    2.4611    5.0165   15.7561 C   0  0  0  0  0  0  0  0  0  0  0  0
    3.7510    4.2071   15.5341 C   0  0  0  0  0  0  0  0  0  0  0  0
    3.8336    3.6198   16.9417 N   0  0  0  0  0  0  0  0  0  0  0  0
    3.7899    2.2531   17.1401 C   0  0  0  0  0  0  0  0  0  0  0  0
    4.0098    1.5490   16.0496 O   0  0  0  0  0  0  0  0  0  0  0  0
    3.5469    1.4034   18.2890 C   0  0  0  0  0  0  0  0  0  0  0  0
    2.7608    0.2305   18.1141 N   0  0  0  0  0  0  0  0  0  0  0  0
    3.0300   -0.4718   18.8747 H   0  0  0  0  0  0  0  0  0  0  0  0
    1.7413    0.4159   18.3844 H   0  0  0  0  0  0  0  0  0  0  0  0
    4.7970    1.0220   19.0738 C   0  0  0  0  0  0  0  0  0  0  0  0
    4.8280    1.4229   20.4642 C   0  0  0  0  0  0  0  0  0  0  0  0
    3.7733    1.1450   21.3136 C   0  0  0  0  0  0  0  0  0  0  0  0
    3.7950    1.5387   22.6634 C   0  0  0  0  0  0  0  0  0  0  0  0
    4.8611    2.2087   23.1779 C   0  0  0  0  0  0  0  0  0  0  0  0
    4.9194    2.6172   24.5158 O   0  0  0  0  0  0  0  0  0  0  0  0
    5.9152    2.4962   22.3664 C   0  0  0  0  0  0  0  0  0  0  0  0
    5.8844    2.1064   21.0454 C   0  0  0  0  0  0  0  0  0  0  0  0
    5.7112    3.1110   24.8864 H   0  0  0  0  0  0  0  0  0  0  0  0
    5.8832    5.9041   20.7052 C   0  0  0  0  0  0  0  0  0  0  0  0
    5.0113    6.8267   21.4895 C   0  0  0  0  0  0  0  0  0  0  0  0
    3.9690    6.3066   22.2464 O   0  0  0  0  0  0  0  0  0  0  0  0
    5.1767    8.0639   21.4981 O   0  0  0  0  0  0  0  0  0  0  0  0
    3.1009    6.0256   21.7750 H   0  0  0  0  0  0  0  0  0  0  0  0
    7.2934    6.3366   20.8976 C   0  0  0  0  0  0  0  0  0  0  0  0
    7.8252    6.1116   22.2767 C   0  0  0  0  0  0  0  0  0  0  0  0
    8.5920    7.3309   22.7322 C   0  0  0  0  0  0  0  0  0  0  0  0
    7.7297    8.2921   23.3799 N   0  0  0  0  0  0  0  0  0  0  0  0
    7.1598    8.9933   22.8430 H   0  0  0  0  0  0  0  0  0  0  0  0
    8.5954    7.8337   25.6737 N   0  0  0  0  0  0  0  0  0  0  0  0
    7.6041    8.3474   24.7873 C   0  0  0  0  0  0  0  0  0  0  0  0
    6.5679    8.8743   25.3411 N   0  0  0  0  0  0  0  0  0  0  0  0
    8.6400    6.8047   25.8361 H   0  0  0  0  0  0  0  0  0  0  0  0
    9.2880    8.4247   26.1774 H   0  0  0  0  0  0  0  0  0  0  0  0
    5.8269    9.2581   24.7246 H   0  0  0  0  0  0  0  0  0  0  0  0
 35 36  1  0  0  0
 36 37  2  0  0  0
 36 33  1  0  0  0
 33 32  1  0  0  0
 32 31  1  0  0  0
 31 30  1  0  0  0
 30 25  1  0  0  0
 25  1  1  0  0  0
  1  2  1  0  0  0
  2  3  2  0  0  0
  2  5  1  0  0  0
  5  6  1  0  0  0
  6  7  1  0  0  0
  7  8  1  0  0  0
  8  9  1  0  0  0
  9 10  1  0  0  0
 10 11  2  0  0  0
 10 12  1  0  0  0
 12 13  1  0  0  0
 12 16  1  0  0  0
 16 17  1  0  0  0
 17 18  2  0  0  0
 18 19  1  0  0  0
 19 20  2  0  0  0
 20 21  1  0  0  0
 20 22  1  0  0  0
 22 23  2  0  0  0
 25 26  1  0  0  0
 26 27  1  0  0  0
 26 28  2  0  0  0
  9  5  1  0  0  0
 23 17  1  0  0  0
 35 38  1  0  0  0
 35 39  1  0  0  0
 37 40  1  0  0  0
 33 34  1  0  0  0
  1  4  1  0  0  0
 13 14  1  0  0  0
 13 15  1  0  0  0
 21 24  1  0  0  0
 27 29  1  0  0  0
M  END
> <minimizedAffinity>
-8.17791

> <CNNscore>
0.2753026783

> <CNNaffinity>
5.9393095970

> <CNN_VS>
1.6351078749

> <CNNaffinity_variance>
0.1273424923

$$$$
[H]N=C(N([H])[H])N([H])C([H])([H])C([H])([H])C([H])([H])[C@@]([H])(C(=O)O[H])N([H])C(=O)[C@@]1([H])N(C(=O)[C@@]([H])(N([H])[H])C([H])([H])c2c([H])c([H])c(O[H])c([H])c2[H])C([H])([H])C([H])([H])C1([H])[H]


 40 41  0  0  0  0  0  0  0  0999 V2000
    3.4121    6.4159   19.8901 N   0  0  0  0  0  0  0  0  0  0  0  0
    4.1890    5.3594   20.4362 C   0  0  0  0  0  0  0  0  0  0  0  0
    5.1414    4.9417   19.6903 O   0  0  0  0  0  0  0  0  0  0  0  0
    2.6188    6.7820   20.4678 H   0  0  0  0  0  0  0  0  0  0  0  0
    3.9934    4.7677   21.7077 C   0  0  0  0  0  0  0  0  0  0  0  0
    5.0271    4.9359   22.7871 C   0  0  0  0  0  0  0  0  0  0  0  0
    4.3080    4.1966   23.9479 C   0  0  0  0  0  0  0  0  0  0  0  0
    3.0745    3.5368   23.3064 C   0  0  0  0  0  0  0  0  0  0  0  0
    3.6626    3.3931   21.9039 N   0  0  0  0  0  0  0  0  0  0  0  0
    3.8141    2.1471   21.3263 C   0  0  0  0  0  0  0  0  0  0  0  0
    3.1248    1.1963   21.9215 O   0  0  0  0  0  0  0  0  0  0  0  0
    4.5747    1.6369   20.2028 C   0  0  0  0  0  0  0  0  0  0  0  0
    5.8690    1.0982   20.4454 N   0  0  0  0  0  0  0  0  0  0  0  0
    6.0967    0.4040   19.6641 H   0  0  0  0  0  0  0  0  0  0  0  0
    6.6245    1.8355   20.2654 H   0  0  0  0  0  0  0  0  0  0  0  0
    3.8156    0.6604   19.3117 C   0  0  0  0  0  0  0  0  0  0  0  0
    3.5891    1.0825   17.9458 C   0  0  0  0  0  0  0  0  0  0  0  0
    4.2345    2.1864   17.4208 C   0  0  0  0  0  0  0  0  0  0  0  0
    4.0126    2.6052   16.0968 C   0  0  0  0  0  0  0  0  0  0  0  0
    3.1511    1.9324   15.2872 C   0  0  0  0  0  0  0  0  0  0  0  0
    2.9040    2.3186   13.9642 O   0  0  0  0  0  0  0  0  0  0  0  0
    2.5011    0.8409   15.7755 C   0  0  0  0  0  0  0  0  0  0  0  0
    2.7253    0.4386   17.0739 C   0  0  0  0  0  0  0  0  0  0  0  0
    2.2664    1.8151   13.3742 H   0  0  0  0  0  0  0  0  0  0  0  0
    3.6383    7.0083   18.6154 C   0  0  0  0  0  0  0  0  0  0  0  0
    3.4475    6.0425   17.4941 C   0  0  0  0  0  0  0  0  0  0  0  0
    2.2340    5.3799   17.3594 O   0  0  0  0  0  0  0  0  0  0  0  0
    4.3410    5.7977   16.6575 O   0  0  0  0  0  0  0  0  0  0  0  0
    2.0316    4.5789   17.9696 H   0  0  0  0  0  0  0  0  0  0  0  0
    4.9464    7.6874   18.4142 C   0  0  0  0  0  0  0  0  0  0  0  0
    5.2462    8.7579   19.4139 C   0  0  0  0  0  0  0  0  0  0  0  0
    6.4374    8.3543   20.2508 C   0  0  0  0  0  0  0  0  0  0  0  0
    6.6445    9.2610   21.3562 N   0  0  0  0  0  0  0  0  0  0  0  0
    6.8149   10.2892   21.2206 H   0  0  0  0  0  0  0  0  0  0  0  0
    5.8929    9.4658   23.7257 N   0  0  0  0  0  0  0  0  0  0  0  0
    6.6327    8.8122   22.6971 C   0  0  0  0  0  0  0  0  0  0  0  0
    7.3035    7.7732   23.0554 N   0  0  0  0  0  0  0  0  0  0  0  0
    6.2786   10.3391   24.1451 H   0  0  0  0  0  0  0  0  0  0  0  0
    4.9803    9.1255   24.0919 H   0  0  0  0  0  0  0  0  0  0  0  0
    7.8533    7.2734   22.3312 H   0  0  0  0  0  0  0  0  0  0  0  0
 35 36  1  0  0  0
 36 37  2  0  0  0
 36 33  1  0  0  0
 33 32  1  0  0  0
 32 31  1  0  0  0
 31 30  1  0  0  0
 30 25  1  0  0  0
 25  1  1  0  0  0
  1  2  1  0  0  0
  2  3  2  0  0  0
  2  5  1  0  0  0
  5  6  1  0  0  0
  6  7  1  0  0  0
  7  8  1  0  0  0
  8  9  1  0  0  0
  9 10  1  0  0  0
 10 11  2  0  0  0
 10 12  1  0  0  0
 12 13  1  0  0  0
 12 16  1  0  0  0
 16 17  1  0  0  0
 17 18  2  0  0  0
 18 19  1  0  0  0
 19 20  2  0  0  0
 20 21  1  0  0  0
 20 22  1  0  0  0
 22 23  2  0  0  0
 25 26  1  0  0  0
 26 27  1  0  0  0
 26 28  2  0  0  0
  9  5  1  0  0  0
 23 17  1  0  0  0
 35 38  1  0  0  0
 35 39  1  0  0  0
 37 40  1  0  0  0
 33 34  1  0  0  0
  1  4  1  0  0  0
 13 14  1  0  0  0
 13 15  1  0  0  0
 21 24  1  0  0  0
 27 29  1  0  0  0
M  END
> <minimizedAffinity>
-7.46032

> <CNNscore>
0.2492174804

> <CNNaffinity>
5.9218621254

> <CNN_VS>
1.4758315086

> <CNNaffinity_variance>
0.0435148776

$$$$
[H]N=C(N([H])[H])N([H])C([H])([H])C([H])([H])C([H])([H])[C@@]([H])(C(=O)O[H])N([H])C(=O)[C@@]1([H])N(C(=O)[C@@]([H])(N([H])[H])C([H])([H])c2c([H])c([H])c(O[H])c([H])c2[H])C([H])([H])C([H])([H])C1([H])[H]


 40 41  0  0  0  0  0  0  0  0999 V2000
    4.7693    6.2507   18.0682 N   0  0  0  0  0  0  0  0  0  0  0  0
    6.1796    6.2273   18.2372 C   0  0  0  0  0  0  0  0  0  0  0  0
    6.8077    5.4235   17.4643 O   0  0  0  0  0  0  0  0  0  0  0  0
    4.2183    6.8919   18.6866 H   0  0  0  0  0  0  0  0  0  0  0  0
    6.9098    7.0129   19.1618 C   0  0  0  0  0  0  0  0  0  0  0  0
    8.4124    7.0446   19.1063 C   0  0  0  0  0  0  0  0  0  0  0  0
    8.6884    8.0791   20.2310 C   0  0  0  0  0  0  0  0  0  0  0  0
    7.3247    8.3237   20.9010 C   0  0  0  0  0  0  0  0  0  0  0  0
    6.7226    6.9581   20.5758 N   0  0  0  0  0  0  0  0  0  0  0  0
    6.3278    6.1020   21.5860 C   0  0  0  0  0  0  0  0  0  0  0  0
    6.2058    6.6842   22.7606 O   0  0  0  0  0  0  0  0  0  0  0  0
    6.0192    4.6873   21.6523 C   0  0  0  0  0  0  0  0  0  0  0  0
    6.6302    3.9043   22.6711 N   0  0  0  0  0  0  0  0  0  0  0  0
    6.0076    3.0559   22.8627 H   0  0  0  0  0  0  0  0  0  0  0  0
    7.5045    3.4128   22.2959 H   0  0  0  0  0  0  0  0  0  0  0  0
    4.5305    4.3595   21.6329 C   0  0  0  0  0  0  0  0  0  0  0  0
    4.1826    2.9731   21.4051 C   0  0  0  0  0  0  0  0  0  0  0  0
    3.6667    2.1880   22.4193 C   0  0  0  0  0  0  0  0  0  0  0  0
    3.3340    0.8385   22.2055 C   0  0  0  0  0  0  0  0  0  0  0  0
    3.5101    0.2610   20.9866 C   0  0  0  0  0  0  0  0  0  0  0  0
    3.1910   -1.0788   20.7350 O   0  0  0  0  0  0  0  0  0  0  0  0
    4.0156    1.0087   19.9679 C   0  0  0  0  0  0  0  0  0  0  0  0
    4.3386    2.3298   20.1874 C   0  0  0  0  0  0  0  0  0  0  0  0
    3.3243   -1.4960   19.8315 H   0  0  0  0  0  0  0  0  0  0  0  0
    4.0573    5.4642   17.1188 C   0  0  0  0  0  0  0  0  0  0  0  0
    3.6898    6.2373   15.8966 C   0  0  0  0  0  0  0  0  0  0  0  0
    3.2324    7.5429   16.0234 O   0  0  0  0  0  0  0  0  0  0  0  0
    3.7752    5.7590   14.7469 O   0  0  0  0  0  0  0  0  0  0  0  0
    2.2609    7.7060   16.3141 H   0  0  0  0  0  0  0  0  0  0  0  0
    2.8338    4.7716   17.6047 C   0  0  0  0  0  0  0  0  0  0  0  0
    2.3449    3.6803   16.7072 C   0  0  0  0  0  0  0  0  0  0  0  0
    3.4161    2.6257   16.5573 C   0  0  0  0  0  0  0  0  0  0  0  0
    3.0970    1.6868   15.5068 N   0  0  0  0  0  0  0  0  0  0  0  0
    3.3070    0.6597   15.5827 H   0  0  0  0  0  0  0  0  0  0  0  0
    3.1091    2.9795   13.3738 N   0  0  0  0  0  0  0  0  0  0  0  0
    2.4805    2.1000   14.3032 C   0  0  0  0  0  0  0  0  0  0  0  0
    1.3005    1.6926   13.9877 N   0  0  0  0  0  0  0  0  0  0  0  0
    3.1236    4.0016   13.5794 H   0  0  0  0  0  0  0  0  0  0  0  0
    3.5614    2.6660   12.4906 H   0  0  0  0  0  0  0  0  0  0  0  0
    0.8143    1.0511   14.6423 H   0  0  0  0  0  0  0  0  0  0  0  0
 35 36  1  0  0  0
 36 37  2  0  0  0
 36 33  1  0  0  0
 33 32  1  0  0  0
 32 31  1  0  0  0
 31 30  1  0  0  0
 30 25  1  0  0  0
 25  1  1  0  0  0
  1  2  1  0  0  0
  2  3  2  0  0  0
  2  5  1  0  0  0
  5  6  1  0  0  0
  6  7  1  0  0  0
  7  8  1  0  0  0
  8  9  1  0  0  0
  9 10  1  0  0  0
 10 11  2  0  0  0
 10 12  1  0  0  0
 12 13  1  0  0  0
 12 16  1  0  0  0
 16 17  1  0  0  0
 17 18  2  0  0  0
 18 19  1  0  0  0
 19 20  2  0  0  0
 20 21  1  0  0  0
 20 22  1  0  0  0
 22 23  2  0  0  0
 25 26  1  0  0  0
 26 27  1  0  0  0
 26 28  2  0  0  0
  9  5  1  0  0  0
 23 17  1  0  0  0
 35 38  1  0  0  0
 35 39  1  0  0  0
 37 40  1  0  0  0
 33 34  1  0  0  0
  1  4  1  0  0  0
 13 14  1  0  0  0
 13 15  1  0  0  0
 21 24  1  0  0  0
 27 29  1  0  0  0
M  END
> <minimizedAffinity>
-7.24245

> <CNNscore>
0.2367804050

> <CNNaffinity>
5.7809786797

> <CNN_VS>
1.3688224554

> <CNNaffinity_variance>
0.1843842119

$$$$
[H]N=C(N([H])[H])N([H])C([H])([H])C([H])([H])C([H])([H])[C@@]([H])(C(=O)O[H])N([H])C(=O)[C@@]1([H])N(C(=O)[C@@]([H])(N([H])[H])C([H])([H])c2c([H])c([H])c(O[H])c([H])c2[H])C([H])([H])C([H])([H])C1([H])[H]


 40 41  0  0  0  0  0  0  0  0999 V2000
    4.4481    3.7164   17.6529 N   0  0  0  0  0  0  0  0  0  0  0  0
    4.2158    3.6504   19.0527 C   0  0  0  0  0  0  0  0  0  0  0  0
    3.4945    4.5935   19.5304 O   0  0  0  0  0  0  0  0  0  0  0  0
    5.0393    2.9654   17.2244 H   0  0  0  0  0  0  0  0  0  0  0  0
    4.7022    2.6422   19.9200 C   0  0  0  0  0  0  0  0  0  0  0  0
    3.7435    1.7120   20.6110 C   0  0  0  0  0  0  0  0  0  0  0  0
    4.7599    0.7900   21.3376 C   0  0  0  0  0  0  0  0  0  0  0  0
    6.1322    1.4539   21.1275 C   0  0  0  0  0  0  0  0  0  0  0  0
    5.6152    2.8847   20.9901 N   0  0  0  0  0  0  0  0  0  0  0  0
    6.0093    3.8661   21.8792 C   0  0  0  0  0  0  0  0  0  0  0  0
    7.0710    3.5468   22.5894 O   0  0  0  0  0  0  0  0  0  0  0  0
    5.5108    5.1838   22.2201 C   0  0  0  0  0  0  0  0  0  0  0  0
    4.5691    5.3022   23.2800 N   0  0  0  0  0  0  0  0  0  0  0  0
    4.6385    6.2905   23.6833 H   0  0  0  0  0  0  0  0  0  0  0  0
    3.5698    5.3277   22.8958 H   0  0  0  0  0  0  0  0  0  0  0  0
    6.5917    6.2386   22.4279 C   0  0  0  0  0  0  0  0  0  0  0  0
    7.0468    6.9323   21.2418 C   0  0  0  0  0  0  0  0  0  0  0  0
    8.3092    6.7123   20.7234 C   0  0  0  0  0  0  0  0  0  0  0  0
    8.7591    7.3891   19.5757 C   0  0  0  0  0  0  0  0  0  0  0  0
    7.9607    8.2858   18.9364 C   0  0  0  0  0  0  0  0  0  0  0  0
    8.3729    8.9790   17.7918 O   0  0  0  0  0  0  0  0  0  0  0  0
    6.7120    8.5232   19.4227 C   0  0  0  0  0  0  0  0  0  0  0  0
    6.2804    7.8553   20.5477 C   0  0  0  0  0  0  0  0  0  0  0  0
    7.7760    9.6389   17.3267 H   0  0  0  0  0  0  0  0  0  0  0  0
    3.9337    4.7308   16.7965 C   0  0  0  0  0  0  0  0  0  0  0  0
    4.3773    6.0976   17.1983 C   0  0  0  0  0  0  0  0  0  0  0  0
    3.4722    6.9625   17.8004 O   0  0  0  0  0  0  0  0  0  0  0  0
    5.5422    6.5075   17.0163 O   0  0  0  0  0  0  0  0  0  0  0  0
    2.7837    7.4514   17.2159 H   0  0  0  0  0  0  0  0  0  0  0  0
    2.4581    4.7669   16.6111 C   0  0  0  0  0  0  0  0  0  0  0  0
    2.0187    4.9593   15.1950 C   0  0  0  0  0  0  0  0  0  0  0  0
    3.0158    4.3156   14.2603 C   0  0  0  0  0  0  0  0  0  0  0  0
    2.3982    3.3015   13.4376 N   0  0  0  0  0  0  0  0  0  0  0  0
    2.4256    3.3306   12.3873 H   0  0  0  0  0  0  0  0  0  0  0  0
    2.2282    1.4470   15.0968 N   0  0  0  0  0  0  0  0  0  0  0  0
    1.7118    2.2023   14.0035 C   0  0  0  0  0  0  0  0  0  0  0  0
    0.5678    1.8274   13.5468 N   0  0  0  0  0  0  0  0  0  0  0  0
    2.9699    0.7378   14.9122 H   0  0  0  0  0  0  0  0  0  0  0  0
    1.9104    1.5569   16.0815 H   0  0  0  0  0  0  0  0  0  0  0  0
    0.1629    2.3558   12.7509 H   0  0  0  0  0  0  0  0  0  0  0  0
 35 36  1  0  0  0
 36 37  2  0  0  0
 36 33  1  0  0  0
 33 32  1  0  0  0
 32 31  1  0  0  0
 31 30  1  0  0  0
 30 25  1  0  0  0
 25  1  1  0  0  0
  1  2  1  0  0  0
  2  3  2  0  0  0
  2  5  1  0  0  0
  5  6  1  0  0  0
  6  7  1  0  0  0
  7  8  1  0  0  0
  8  9  1  0  0  0
  9 10  1  0  0  0
 10 11  2  0  0  0
 10 12  1  0  0  0
 12 13  1  0  0  0
 12 16  1  0  0  0
 16 17  1  0  0  0
 17 18  2  0  0  0
 18 19  1  0  0  0
 19 20  2  0  0  0
 20 21  1  0  0  0
 20 22  1  0  0  0
 22 23  2  0  0  0
 25 26  1  0  0  0
 26 27  1  0  0  0
 26 28  2  0  0  0
  9  5  1  0  0  0
 23 17  1  0  0  0
 35 38  1  0  0  0
 35 39  1  0  0  0
 37 40  1  0  0  0
 33 34  1  0  0  0
  1  4  1  0  0  0
 13 14  1  0  0  0
 13 15  1  0  0  0
 21 24  1  0  0  0
 27 29  1  0  0  0
M  END
> <minimizedAffinity>
-7.24980

> <CNNscore>
0.2171656936

> <CNNaffinity>
5.7525043488

> <CNN_VS>
1.2492465973

> <CNNaffinity_variance>
0.3208736777

$$$$
[H]N=C(N([H])[H])N([H])C([H])([H])C([H])([H])C([H])([H])[C@@]([H])(C(=O)O[H])N([H])C(=O)[C@@]1([H])N(C(=O)[C@@]([H])(N([H])[H])C([H])([H])c2c([H])c([H])c(O[H])c([H])c2[H])C([H])([H])C([H])([H])C1([H])[H]


 40 41  0  0  0  0  0  0  0  0999 V2000
    4.0679    3.9599   17.7177 N   0  0  0  0  0  0  0  0  0  0  0  0
    5.0456    4.9739   17.5337 C   0  0  0  0  0  0  0  0  0  0  0  0
    6.2312    4.5518   17.3012 O   0  0  0  0  0  0  0  0  0  0  0  0
    3.0856    4.2649   17.9161 H   0  0  0  0  0  0  0  0  0  0  0  0
    4.8021    6.3682   17.5779 C   0  0  0  0  0  0  0  0  0  0  0  0
    3.7380    6.9216   18.4854 C   0  0  0  0  0  0  0  0  0  0  0  0
    3.9394    8.4384   18.2210 C   0  0  0  0  0  0  0  0  0  0  0  0
    4.9366    8.5175   17.0515 C   0  0  0  0  0  0  0  0  0  0  0  0
    4.5747    7.1738   16.4217 N   0  0  0  0  0  0  0  0  0  0  0  0
    4.0782    7.1087   15.1339 C   0  0  0  0  0  0  0  0  0  0  0  0
    4.2682    8.2071   14.4333 O   0  0  0  0  0  0  0  0  0  0  0  0
    3.3793    6.0962   14.3676 C   0  0  0  0  0  0  0  0  0  0  0  0
    4.1049    4.9544   13.9269 N   0  0  0  0  0  0  0  0  0  0  0  0
    3.4140    4.1500   13.7863 H   0  0  0  0  0  0  0  0  0  0  0  0
    4.4429    5.0878   12.9196 H   0  0  0  0  0  0  0  0  0  0  0  0
    2.0738    5.6152   14.9907 C   0  0  0  0  0  0  0  0  0  0  0  0
    0.9030    5.6607   14.1408 C   0  0  0  0  0  0  0  0  0  0  0  0
    0.6776    4.6933   13.1794 C   0  0  0  0  0  0  0  0  0  0  0  0
   -0.4542    4.7368   12.3461 C   0  0  0  0  0  0  0  0  0  0  0  0
   -1.3677    5.7380   12.4615 C   0  0  0  0  0  0  0  0  0  0  0  0
   -2.5064    5.8156   11.6505 O   0  0  0  0  0  0  0  0  0  0  0  0
   -1.1735    6.7049   13.3994 C   0  0  0  0  0  0  0  0  0  0  0  0
   -0.0615    6.6535   14.2110 C   0  0  0  0  0  0  0  0  0  0  0  0
   -3.1753    6.5586   11.7436 H   0  0  0  0  0  0  0  0  0  0  0  0
    4.3322    2.5625   17.6512 C   0  0  0  0  0  0  0  0  0  0  0  0
    3.6598    1.9081   16.4911 C   0  0  0  0  0  0  0  0  0  0  0  0
    3.0251    0.6850   16.6675 O   0  0  0  0  0  0  0  0  0  0  0  0
    3.6398    2.4156   15.3508 O   0  0  0  0  0  0  0  0  0  0  0  0
    3.5919   -0.1704   16.7113 H   0  0  0  0  0  0  0  0  0  0  0  0
    4.0235    1.7631   18.8670 C   0  0  0  0  0  0  0  0  0  0  0  0
    4.9758    1.9712   20.0007 C   0  0  0  0  0  0  0  0  0  0  0  0
    4.2672    2.6649   21.1404 C   0  0  0  0  0  0  0  0  0  0  0  0
    4.3672    4.1022   21.0348 N   0  0  0  0  0  0  0  0  0  0  0  0
    4.4696    4.5962   20.1128 H   0  0  0  0  0  0  0  0  0  0  0  0
    4.0429    6.3285   22.1116 N   0  0  0  0  0  0  0  0  0  0  0  0
    4.3360    4.9349   22.1773 C   0  0  0  0  0  0  0  0  0  0  0  0
    4.5762    4.4617   23.3504 N   0  0  0  0  0  0  0  0  0  0  0  0
    4.7899    6.9852   21.7987 H   0  0  0  0  0  0  0  0  0  0  0  0
    3.1201    6.7412   22.3585 H   0  0  0  0  0  0  0  0  0  0  0  0
    4.7931    3.4505   23.4340 H   0  0  0  0  0  0  0  0  0  0  0  0
 35 36  1  0  0  0
 36 37  2  0  0  0
 36 33  1  0  0  0
 33 32  1  0  0  0
 32 31  1  0  0  0
 31 30  1  0  0  0
 30 25  1  0  0  0
 25  1  1  0  0  0
  1  2  1  0  0  0
  2  3  2  0  0  0
  2  5  1  0  0  0
  5  6  1  0  0  0
  6  7  1  0  0  0
  7  8  1  0  0  0
  8  9  1  0  0  0
  9 10  1  0  0  0
 10 11  2  0  0  0
 10 12  1  0  0  0
 12 13  1  0  0  0
 12 16  1  0  0  0
 16 17  1  0  0  0
 17 18  2  0  0  0
 18 19  1  0  0  0
 19 20  2  0  0  0
 20 21  1  0  0  0
 20 22  1  0  0  0
 22 23  2  0  0  0
 25 26  1  0  0  0
 26 27  1  0  0  0
 26 28  2  0  0  0
  9  5  1  0  0  0
 23 17  1  0  0  0
 35 38  1  0  0  0
 35 39  1  0  0  0
 37 40  1  0  0  0
 33 34  1  0  0  0
  1  4  1  0  0  0
 13 14  1  0  0  0
 13 15  1  0  0  0
 21 24  1  0  0  0
 27 29  1  0  0  0
M  END
> <minimizedAffinity>
-7.23713

> <CNNscore>
0.2093613595

> <CNNaffinity>
5.3766641617

> <CNN_VS>
1.1256656647

> <CNNaffinity_variance>
0.3878850341

$$$$
[H]N=C(N([H])[H])N([H])C([H])([H])C([H])([H])C([H])([H])[C@@]([H])(C(=O)O[H])N([H])C(=O)[C@@]1([H])N(C(=O)[C@@]([H])(N([H])[H])C([H])([H])c2c([H])c([H])c(O[H])c([H])c2[H])C([H])([H])C([H])([H])C1([H])[H]


 40 41  0  0  0  0  0  0  0  0999 V2000
    3.7249    7.3976   14.4252 N   0  0  0  0  0  0  0  0  0  0  0  0
    3.7823    8.4602   15.3662 C   0  0  0  0  0  0  0  0  0  0  0  0
    3.0145    9.4527   15.1148 O   0  0  0  0  0  0  0  0  0  0  0  0
    4.3433    6.5688   14.5926 H   0  0  0  0  0  0  0  0  0  0  0  0
    4.5943    8.4880   16.5261 C   0  0  0  0  0  0  0  0  0  0  0  0
    6.0717    8.2267   16.4213 C   0  0  0  0  0  0  0  0  0  0  0  0
    6.4778    8.4548   17.9026 C   0  0  0  0  0  0  0  0  0  0  0  0
    5.1514    8.6026   18.6688 C   0  0  0  0  0  0  0  0  0  0  0  0
    4.3051    7.7581   17.7182 N   0  0  0  0  0  0  0  0  0  0  0  0
    3.6760    6.6111   18.1629 C   0  0  0  0  0  0  0  0  0  0  0  0
    3.5972    6.5207   19.4741 O   0  0  0  0  0  0  0  0  0  0  0  0
    3.0799    5.4636   17.5080 C   0  0  0  0  0  0  0  0  0  0  0  0
    2.0555    5.6850   16.5459 N   0  0  0  0  0  0  0  0  0  0  0  0
    2.0386    4.8525   15.8743 H   0  0  0  0  0  0  0  0  0  0  0  0
    1.0883    5.5823   16.9940 H   0  0  0  0  0  0  0  0  0  0  0  0
    4.0811    4.4789   16.9146 C   0  0  0  0  0  0  0  0  0  0  0  0
    3.7426    3.0759   17.0252 C   0  0  0  0  0  0  0  0  0  0  0  0
    3.9756    2.3727   18.1923 C   0  0  0  0  0  0  0  0  0  0  0  0
    3.6556    1.0078   18.3027 C   0  0  0  0  0  0  0  0  0  0  0  0
    3.1031    0.3338   17.2583 C   0  0  0  0  0  0  0  0  0  0  0  0
    2.7710   -1.0245   17.3298 O   0  0  0  0  0  0  0  0  0  0  0  0
    2.8612    0.9994   16.0961 C   0  0  0  0  0  0  0  0  0  0  0  0
    3.1784    2.3364   15.9977 C   0  0  0  0  0  0  0  0  0  0  0  0
    2.3632   -1.5132   16.5533 H   0  0  0  0  0  0  0  0  0  0  0  0
    2.8869    7.3833   13.2744 C   0  0  0  0  0  0  0  0  0  0  0  0
    2.3041    6.0358   13.0081 C   0  0  0  0  0  0  0  0  0  0  0  0
    2.8183    4.9248   13.6648 O   0  0  0  0  0  0  0  0  0  0  0  0
    1.3610    5.8562   12.2104 O   0  0  0  0  0  0  0  0  0  0  0  0
    3.7000    4.5136   13.3358 H   0  0  0  0  0  0  0  0  0  0  0  0
    3.4822    7.8810   12.0052 C   0  0  0  0  0  0  0  0  0  0  0  0
    4.7690    7.2206   11.6265 C   0  0  0  0  0  0  0  0  0  0  0  0
    5.9247    8.1450   11.9299 C   0  0  0  0  0  0  0  0  0  0  0  0
    6.9835    8.0128   10.9560 N   0  0  0  0  0  0  0  0  0  0  0  0
    6.8341    8.1873    9.9304 H   0  0  0  0  0  0  0  0  0  0  0  0
    9.0299    8.3010   12.3525 N   0  0  0  0  0  0  0  0  0  0  0  0
    8.2936    7.6342   11.3300 C   0  0  0  0  0  0  0  0  0  0  0  0
    8.8912    6.6513   10.7515 N   0  0  0  0  0  0  0  0  0  0  0  0
    9.4833    9.2137   12.1319 H   0  0  0  0  0  0  0  0  0  0  0  0
    9.1474    7.9333   13.3188 H   0  0  0  0  0  0  0  0  0  0  0  0
    8.3834    6.1438   10.0024 H   0  0  0  0  0  0  0  0  0  0  0  0
 35 36  1  0  0  0
 36 37  2  0  0  0
 36 33  1  0  0  0
 33 32  1  0  0  0
 32 31  1  0  0  0
 31 30  1  0  0  0
 30 25  1  0  0  0
 25  1  1  0  0  0
  1  2  1  0  0  0
  2  3  2  0  0  0
  2  5  1  0  0  0
  5  6  1  0  0  0
  6  7  1  0  0  0
  7  8  1  0  0  0
  8  9  1  0  0  0
  9 10  1  0  0  0
 10 11  2  0  0  0
 10 12  1  0  0  0
 12 13  1  0  0  0
 12 16  1  0  0  0
 16 17  1  0  0  0
 17 18  2  0  0  0
 18 19  1  0  0  0
 19 20  2  0  0  0
 20 21  1  0  0  0
 20 22  1  0  0  0
 22 23  2  0  0  0
 25 26  1  0  0  0
 26 27  1  0  0  0
 26 28  2  0  0  0
  9  5  1  0  0  0
 23 17  1  0  0  0
 35 38  1  0  0  0
 35 39  1  0  0  0
 37 40  1  0  0  0
 33 34  1  0  0  0
  1  4  1  0  0  0
 13 14  1  0  0  0
 13 15  1  0  0  0
 21 24  1  0  0  0
 27 29  1  0  0  0
M  END
> <minimizedAffinity>
-6.76303

> <CNNscore>
0.2046450824

> <CNNaffinity>
5.1113228798

> <CNN_VS>
1.0460070372

> <CNNaffinity_variance>
0.0854885653

$$$$
