[H]c1nn2c(C#Cc3c([H])c(C(=O)N([H])c4c([H])c([H])c(C([H])([H])N5C([H])([H])C([H])([H])N(C([H])([H])[H])C([H])([H])C5([H])[H])c(C(F)(F)F)c4[H])c([H])c([H])c3C([H])([H])[H])c([H])nc2c([H])c1[H]


 40 44  0  0  0  0  0  0  0  0999 V2000
    3.8741    2.8432   16.2057 N   0  0  0  0  0  0  0  0  0  0  0  0
    3.8548    1.7563   17.2185 C   0  0  0  0  0  0  0  0  0  0  0  0
    3.3457    0.6468   16.9721 O   0  0  0  0  0  0  0  0  0  0  0  0
    4.4186    3.6372   16.2689 H   0  0  0  0  0  0  0  0  0  0  0  0
    4.3880    2.1512   18.4949 C   0  0  0  0  0  0  0  0  0  0  0  0
    4.2883    1.0282   19.3946 C   0  0  0  0  0  0  0  0  0  0  0  0
    4.4913    1.1900   20.7132 C   0  0  0  0  0  0  0  0  0  0  0  0
    4.7992    2.4383   21.1554 C   0  0  0  0  0  0  0  0  0  0  0  0
    4.8379    2.7375   22.6247 C   0  0  0  0  0  0  0  0  0  0  0  0
    4.9170    3.5645   20.2992 C   0  0  0  0  0  0  0  0  0  0  0  0
    4.6919    3.3587   18.9692 C   0  0  0  0  0  0  0  0  0  0  0  0
    5.5316    4.6644   20.9377 C   0  0  0  0  0  0  0  0  0  0  0  0
    5.8913    5.7014   21.3501 C   0  0  0  0  0  0  0  0  0  0  0  0
    6.0595    7.0994   21.6464 C   0  0  0  0  0  0  0  0  0  0  0  0
    6.7833    7.8190   22.4913 C   0  0  0  0  0  0  0  0  0  0  0  0
    6.5814    9.1663   22.2044 N   0  0  0  0  0  0  0  0  0  0  0  0
    5.7304    9.2795   21.1869 C   0  0  0  0  0  0  0  0  0  0  0  0
    5.1595   10.3785   20.4795 C   0  0  0  0  0  0  0  0  0  0  0  0
    4.2933   10.1362   19.4550 C   0  0  0  0  0  0  0  0  0  0  0  0
    3.9855    8.8209   19.1325 C   0  0  0  0  0  0  0  0  0  0  0  0
    4.5455    7.8076   19.8344 N   0  0  0  0  0  0  0  0  0  0  0  0
    5.3980    8.0448   20.8310 N   0  0  0  0  0  0  0  0  0  0  0  0
    1.9918    2.3454   12.4970 C   0  0  0  0  0  0  0  0  0  0  0  0
    1.4793    1.6441   13.5593 C   0  0  0  0  0  0  0  0  0  0  0  0
    1.9663    1.7475   14.8911 C   0  0  0  0  0  0  0  0  0  0  0  0
    2.9595    2.5371   15.1525 C   0  0  0  0  0  0  0  0  0  0  0  0
    3.5219    3.3026   14.0465 C   0  0  0  0  0  0  0  0  0  0  0  0
    3.0609    3.2150   12.7824 C   0  0  0  0  0  0  0  0  0  0  0  0
    3.8032    3.9044   11.7139 C   0  0  0  0  0  0  0  0  0  0  0  0
    4.0534    3.3354   10.5579 F   0  0  0  0  0  0  0  0  0  0  0  0
    3.0582    5.0956   11.3829 F   0  0  0  0  0  0  0  0  0  0  0  0
    4.9782    4.4826   12.2852 F   0  0  0  0  0  0  0  0  0  0  0  0
    1.4933    2.4660   11.1496 C   0  0  0  0  0  0  0  0  0  0  0  0
    0.3549    4.6597    7.7653 C   0  0  0  0  0  0  0  0  0  0  0  0
   -0.7232    4.6880    8.7488 N   0  0  0  0  0  0  0  0  0  0  0  0
   -1.2038    3.3237    8.8818 C   0  0  0  0  0  0  0  0  0  0  0  0
   -0.1119    2.5156    9.4983 C   0  0  0  0  0  0  0  0  0  0  0  0
    0.3362    3.0846   10.7529 N   0  0  0  0  0  0  0  0  0  0  0  0
   -0.2095    4.2657   11.1102 C   0  0  0  0  0  0  0  0  0  0  0  0
   -0.2079    5.2701    9.9314 C   0  0  0  0  0  0  0  0  0  0  0  0
 34 35  1  0  0  0
 35 36  1  0  0  0
 36 37  1  0  0  0
 37 38  1  0  0  0
 38 33  1  0  0  0
 33 23  1  0  0  0
 23 24  2  0  0  0
 24 25  1  0  0  0
 25 26  2  0  0  0
 26  1  1  0  0  0
  1  2  1  0  0  0
  2  3  2  0  0  0
  2  5  1  0  0  0
  5  6  2  0  0  0
  6  7  1  0  0  0
  7  8  2  0  0  0
  8  9  1  0  0  0
  8 10  1  0  0  0
 10 11  2  0  0  0
 10 12  1  0  0  0
 12 13  3  0  0  0
 13 14  1  0  0  0
 14 15  2  0  0  0
 15 16  1  0  0  0
 16 17  2  0  0  0
 17 18  1  0  0  0
 18 19  2  0  0  0
 19 20  1  0  0  0
 20 21  2  0  0  0
 21 22  1  0  0  0
 26 27  1  0  0  0
 27 28  2  0  0  0
 28 29  1  0  0  0
 29 30  1  0  0  0
 29 31  1  0  0  0
 29 32  1  0  0  0
 38 39  1  0  0  0
 39 40  1  0  0  0
 40 35  1  0  0  0
 28 23  1  0  0  0
 11  5  1  0  0  0
 22 14  1  0  0  0
 22 17  1  0  0  0
  1  4  1  0  0  0
M  END
> <minimizedAffinity>
-9.11961

> <CNNscore>
0.3845618069

> <CNNaffinity>
6.7360167503

> <CNN_VS>
2.5904147625

> <CNNaffinity_variance>
0.3111424446

$$$$
[H]c1nn2c(C#Cc3c([H])c(C(=O)N([H])c4c([H])c([H])c(C([H])([H])N5C([H])([H])C([H])([H])N(C([H])([H])[H])C([H])([H])C5([H])[H])c(C(F)(F)F)c4[H])c([H])c([H])c3C([H])([H])[H])c([H])nc2c([H])c1[H]


 40 44  0  0  0  0  0  0  0  0999 V2000
    3.9343    3.1793   14.7226 N   0  0  0  0  0  0  0  0  0  0  0  0
    2.6625    3.8901   14.4311 C   0  0  0  0  0  0  0  0  0  0  0  0
    2.0992    4.5939   15.2904 O   0  0  0  0  0  0  0  0  0  0  0  0
    4.5073    2.7904   14.0507 H   0  0  0  0  0  0  0  0  0  0  0  0
    2.1325    3.6064   13.1242 C   0  0  0  0  0  0  0  0  0  0  0  0
    2.4518    2.2393   12.7928 C   0  0  0  0  0  0  0  0  0  0  0  0
    2.2865    1.7845   11.5390 C   0  0  0  0  0  0  0  0  0  0  0  0
    1.8037    2.6535   10.6115 C   0  0  0  0  0  0  0  0  0  0  0  0
    1.7855    2.2832    9.1581 C   0  0  0  0  0  0  0  0  0  0  0  0
    1.4681    4.0017   10.9027 C   0  0  0  0  0  0  0  0  0  0  0  0
    1.6616    4.4260   12.1851 C   0  0  0  0  0  0  0  0  0  0  0  0
    0.7157    4.6044    9.8703 C   0  0  0  0  0  0  0  0  0  0  0  0
    0.1358    5.2985    9.1241 C   0  0  0  0  0  0  0  0  0  0  0  0
   -0.4548    6.4137    8.4328 C   0  0  0  0  0  0  0  0  0  0  0  0
   -0.0228    7.3981    7.6582 C   0  0  0  0  0  0  0  0  0  0  0  0
   -1.1269    8.1085    7.1952 N   0  0  0  0  0  0  0  0  0  0  0  0
   -2.2395    7.5673    7.6866 C   0  0  0  0  0  0  0  0  0  0  0  0
   -3.6300    7.8618    7.5693 C   0  0  0  0  0  0  0  0  0  0  0  0
   -4.5357    7.0828    8.2263 C   0  0  0  0  0  0  0  0  0  0  0  0
   -4.0759    6.0244    8.9992 C   0  0  0  0  0  0  0  0  0  0  0  0
   -2.7464    5.7843    9.0879 N   0  0  0  0  0  0  0  0  0  0  0  0
   -1.8619    6.5414    8.4395 N   0  0  0  0  0  0  0  0  0  0  0  0
    4.2480    2.0635   18.7477 C   0  0  0  0  0  0  0  0  0  0  0  0
    4.9162    3.1968   18.3574 C   0  0  0  0  0  0  0  0  0  0  0  0
    4.8636    3.7397   17.0443 C   0  0  0  0  0  0  0  0  0  0  0  0
    4.1575    3.1492   16.1327 C   0  0  0  0  0  0  0  0  0  0  0  0
    3.4290    1.9465   16.5174 C   0  0  0  0  0  0  0  0  0  0  0  0
    3.4684    1.4297   17.7623 C   0  0  0  0  0  0  0  0  0  0  0  0
    2.8303    0.1246   18.0023 C   0  0  0  0  0  0  0  0  0  0  0  0
    2.8964   -0.4822   19.1643 F   0  0  0  0  0  0  0  0  0  0  0  0
    1.4180    0.2936   17.7564 F   0  0  0  0  0  0  0  0  0  0  0  0
    3.1790   -0.7496   16.9274 F   0  0  0  0  0  0  0  0  0  0  0  0
    4.0762    1.5069   20.0664 C   0  0  0  0  0  0  0  0  0  0  0  0
    3.9398    4.9928   22.3883 C   0  0  0  0  0  0  0  0  0  0  0  0
    4.9703    4.1005   22.9103 N   0  0  0  0  0  0  0  0  0  0  0  0
    4.2879    2.9160   23.4014 C   0  0  0  0  0  0  0  0  0  0  0  0
    3.6973    2.2120   22.2263 C   0  0  0  0  0  0  0  0  0  0  0  0
    4.6953    1.9156   21.2190 N   0  0  0  0  0  0  0  0  0  0  0  0
    5.9385    2.3907   21.4415 C   0  0  0  0  0  0  0  0  0  0  0  0
    5.9078    3.8774   21.8738 C   0  0  0  0  0  0  0  0  0  0  0  0
 34 35  1  0  0  0
 35 36  1  0  0  0
 36 37  1  0  0  0
 37 38  1  0  0  0
 38 33  1  0  0  0
 33 23  1  0  0  0
 23 24  2  0  0  0
 24 25  1  0  0  0
 25 26  2  0  0  0
 26  1  1  0  0  0
  1  2  1  0  0  0
  2  3  2  0  0  0
  2  5  1  0  0  0
  5  6  2  0  0  0
  6  7  1  0  0  0
  7  8  2  0  0  0
  8  9  1  0  0  0
  8 10  1  0  0  0
 10 11  2  0  0  0
 10 12  1  0  0  0
 12 13  3  0  0  0
 13 14  1  0  0  0
 14 15  2  0  0  0
 15 16  1  0  0  0
 16 17  2  0  0  0
 17 18  1  0  0  0
 18 19  2  0  0  0
 19 20  1  0  0  0
 20 21  2  0  0  0
 21 22  1  0  0  0
 26 27  1  0  0  0
 27 28  2  0  0  0
 28 29  1  0  0  0
 29 30  1  0  0  0
 29 31  1  0  0  0
 29 32  1  0  0  0
 38 39  1  0  0  0
 39 40  1  0  0  0
 40 35  1  0  0  0
 28 23  1  0  0  0
 11  5  1  0  0  0
 22 14  1  0  0  0
 22 17  1  0  0  0
  1  4  1  0  0  0
M  END
> <minimizedAffinity>
-9.04890

> <CNNscore>
0.3193379045

> <CNNaffinity>
6.5786256790

> <CNN_VS>
2.1008045673

> <CNNaffinity_variance>
0.2241553515

$$$$
[H]c1nn2c(C#Cc3c([H])c(C(=O)N([H])c4c([H])c([H])c(C([H])([H])N5C([H])([H])C([H])([H])N(C([H])([H])[H])C([H])([H])C5([H])[H])c(C(F)(F)F)c4[H])c([H])c([H])c3C([H])([H])[H])c([H])nc2c([H])c1[H]


 40 44  0  0  0  0  0  0  0  0999 V2000
    4.4462    2.4311   17.0843 N   0  0  0  0  0  0  0  0  0  0  0  0
    3.9673    1.5843   18.2073 C   0  0  0  0  0  0  0  0  0  0  0  0
    3.0760    0.7301   18.0435 O   0  0  0  0  0  0  0  0  0  0  0  0
    5.2542    2.9582   17.1054 H   0  0  0  0  0  0  0  0  0  0  0  0
    4.5639    1.9180   19.4731 C   0  0  0  0  0  0  0  0  0  0  0  0
    4.2078    0.8950   20.4255 C   0  0  0  0  0  0  0  0  0  0  0  0
    4.4301    1.0775   21.7383 C   0  0  0  0  0  0  0  0  0  0  0  0
    5.0052    2.2476   22.1238 C   0  0  0  0  0  0  0  0  0  0  0  0
    5.0967    2.6086   23.5768 C   0  0  0  0  0  0  0  0  0  0  0  0
    5.3793    3.2720   21.2150 C   0  0  0  0  0  0  0  0  0  0  0  0
    5.1257    3.0511   19.8926 C   0  0  0  0  0  0  0  0  0  0  0  0
    6.2185    4.2399   21.8103 C   0  0  0  0  0  0  0  0  0  0  0  0
    6.8011    5.1905   22.1733 C   0  0  0  0  0  0  0  0  0  0  0  0
    7.2856    6.5278   22.3904 C   0  0  0  0  0  0  0  0  0  0  0  0
    8.3657    7.0805   22.9233 C   0  0  0  0  0  0  0  0  0  0  0  0
    8.2961    8.4569   22.7266 N   0  0  0  0  0  0  0  0  0  0  0  0
    7.1728    8.7554   22.0776 C   0  0  0  0  0  0  0  0  0  0  0  0
    6.5755    9.9665   21.6189 C   0  0  0  0  0  0  0  0  0  0  0  0
    5.3782    9.9167   20.9687 C   0  0  0  0  0  0  0  0  0  0  0  0
    4.7690    8.6835   20.7766 C   0  0  0  0  0  0  0  0  0  0  0  0
    5.3682    7.5588   21.2341 N   0  0  0  0  0  0  0  0  0  0  0  0
    6.5422    7.6073   21.8629 N   0  0  0  0  0  0  0  0  0  0  0  0
    1.9140    3.2815   13.8578 C   0  0  0  0  0  0  0  0  0  0  0  0
    2.2859    1.9726   14.0348 C   0  0  0  0  0  0  0  0  0  0  0  0
    3.0912    1.5123   15.1125 C   0  0  0  0  0  0  0  0  0  0  0  0
    3.5248    2.3548   15.9959 C   0  0  0  0  0  0  0  0  0  0  0  0
    3.1408    3.7526   15.8407 C   0  0  0  0  0  0  0  0  0  0  0  0
    2.3718    4.1953   14.8253 C   0  0  0  0  0  0  0  0  0  0  0  0
    2.1794    5.6468   14.6703 C   0  0  0  0  0  0  0  0  0  0  0  0
    0.9864    6.1911   14.6119 F   0  0  0  0  0  0  0  0  0  0  0  0
    2.8168    6.2803   15.7998 F   0  0  0  0  0  0  0  0  0  0  0  0
    3.0211    6.1000   13.6084 F   0  0  0  0  0  0  0  0  0  0  0  0
    0.9751    3.8514   12.9240 C   0  0  0  0  0  0  0  0  0  0  0  0
    3.1756    1.8188    9.9934 C   0  0  0  0  0  0  0  0  0  0  0  0
    2.5758    3.0146    9.4094 N   0  0  0  0  0  0  0  0  0  0  0  0
    1.1366    2.8228    9.4499 C   0  0  0  0  0  0  0  0  0  0  0  0
    0.7192    2.8163   10.8821 C   0  0  0  0  0  0  0  0  0  0  0  0
    1.1523    4.0129   11.5743 N   0  0  0  0  0  0  0  0  0  0  0  0
    1.9226    4.8712   10.8740 C   0  0  0  0  0  0  0  0  0  0  0  0
    3.0618    4.1319   10.1296 C   0  0  0  0  0  0  0  0  0  0  0  0
 34 35  1  0  0  0
 35 36  1  0  0  0
 36 37  1  0  0  0
 37 38  1  0  0  0
 38 33  1  0  0  0
 33 23  1  0  0  0
 23 24  2  0  0  0
 24 25  1  0  0  0
 25 26  2  0  0  0
 26  1  1  0  0  0
  1  2  1  0  0  0
  2  3  2  0  0  0
  2  5  1  0  0  0
  5  6  2  0  0  0
  6  7  1  0  0  0
  7  8  2  0  0  0
  8  9  1  0  0  0
  8 10  1  0  0  0
 10 11  2  0  0  0
 10 12  1  0  0  0
 12 13  3  0  0  0
 13 14  1  0  0  0
 14 15  2  0  0  0
 15 16  1  0  0  0
 16 17  2  0  0  0
 17 18  1  0  0  0
 18 19  2  0  0  0
 19 20  1  0  0  0
 20 21  2  0  0  0
 21 22  1  0  0  0
 26 27  1  0  0  0
 27 28  2  0  0  0
 28 29  1  0  0  0
 29 30  1  0  0  0
 29 31  1  0  0  0
 29 32  1  0  0  0
 38 39  1  0  0  0
 39 40  1  0  0  0
 40 35  1  0  0  0
 28 23  1  0  0  0
 11  5  1  0  0  0
 22 14  1  0  0  0
 22 17  1  0  0  0
  1  4  1  0  0  0
M  END
> <minimizedAffinity>
-9.62245

> <CNNscore>
0.2733730078

> <CNNaffinity>
6.7532577515

> <CNN_VS>
1.8461583853

> <CNNaffinity_variance>
0.3825678229

$$$$
[H]c1nn2c(C#Cc3c([H])c(C(=O)N([H])c4c([H])c([H])c(C([H])([H])N5C([H])([H])C([H])([H])N(C([H])([H])[H])C([H])([H])C5([H])[H])c(C(F)(F)F)c4[H])c([H])c([H])c3C([H])([H])[H])c([H])nc2c([H])c1[H]


 40 44  0  0  0  0  0  0  0  0999 V2000
    4.5667    2.5652   16.8953 N   0  0  0  0  0  0  0  0  0  0  0  0
    3.9565    1.7318   17.9634 C   0  0  0  0  0  0  0  0  0  0  0  0
    3.0370    0.9290   17.7163 O   0  0  0  0  0  0  0  0  0  0  0  0
    5.3971    3.0476   16.9883 H   0  0  0  0  0  0  0  0  0  0  0  0
    4.4680    2.0173   19.2773 C   0  0  0  0  0  0  0  0  0  0  0  0
    4.0400    0.9668   20.1682 C   0  0  0  0  0  0  0  0  0  0  0  0
    4.1737    1.1034   21.4985 C   0  0  0  0  0  0  0  0  0  0  0  0
    4.7303    2.2542   21.9615 C   0  0  0  0  0  0  0  0  0  0  0  0
    4.7254    2.5657   23.4287 C   0  0  0  0  0  0  0  0  0  0  0  0
    5.1732    3.3044   21.1153 C   0  0  0  0  0  0  0  0  0  0  0  0
    5.0086    3.1301   19.7720 C   0  0  0  0  0  0  0  0  0  0  0  0
    5.9773    4.2436   21.7985 C   0  0  0  0  0  0  0  0  0  0  0  0
    6.6221    5.1472   22.1761 C   0  0  0  0  0  0  0  0  0  0  0  0
    7.3234    6.3962   22.3128 C   0  0  0  0  0  0  0  0  0  0  0  0
    6.9910    7.6675   22.4831 C   0  0  0  0  0  0  0  0  0  0  0  0
    8.1579    8.4055   22.6621 N   0  0  0  0  0  0  0  0  0  0  0  0
    9.2102    7.5926   22.5978 C   0  0  0  0  0  0  0  0  0  0  0  0
   10.6210    7.7748   22.6991 C   0  0  0  0  0  0  0  0  0  0  0  0
   11.4444    6.6945   22.5817 C   0  0  0  0  0  0  0  0  0  0  0  0
   10.8836    5.4435   22.3596 C   0  0  0  0  0  0  0  0  0  0  0  0
    9.5390    5.3166   22.2637 N   0  0  0  0  0  0  0  0  0  0  0  0
    8.7342    6.3718   22.3861 N   0  0  0  0  0  0  0  0  0  0  0  0
    2.5518    3.5126   13.3474 C   0  0  0  0  0  0  0  0  0  0  0  0
    2.5722    2.1932   13.7236 C   0  0  0  0  0  0  0  0  0  0  0  0
    3.1621    1.7171   14.9266 C   0  0  0  0  0  0  0  0  0  0  0  0
    3.7314    2.5520   15.7371 C   0  0  0  0  0  0  0  0  0  0  0  0
    3.7200    3.9629   15.3701 C   0  0  0  0  0  0  0  0  0  0  0  0
    3.1565    4.4225   14.2345 C   0  0  0  0  0  0  0  0  0  0  0  0
    3.3436    5.8395   13.8804 C   0  0  0  0  0  0  0  0  0  0  0  0
    2.3305    6.6560   13.7077 F   0  0  0  0  0  0  0  0  0  0  0  0
    4.1225    6.4395   14.9371 F   0  0  0  0  0  0  0  0  0  0  0  0
    4.2733    5.9123   12.7979 F   0  0  0  0  0  0  0  0  0  0  0  0
    1.8505    4.1467   12.2591 C   0  0  0  0  0  0  0  0  0  0  0  0
   -0.6508    6.2936    9.6713 C   0  0  0  0  0  0  0  0  0  0  0  0
   -1.4609    5.6080   10.6734 N   0  0  0  0  0  0  0  0  0  0  0  0
   -1.2902    4.1836   10.4458 C   0  0  0  0  0  0  0  0  0  0  0  0
    0.1263    3.8394   10.7628 C   0  0  0  0  0  0  0  0  0  0  0  0
    0.4923    4.2480   12.1035 N   0  0  0  0  0  0  0  0  0  0  0  0
   -0.4342    4.9397   12.7990 C   0  0  0  0  0  0  0  0  0  0  0  0
   -1.0523    6.0746   11.9456 C   0  0  0  0  0  0  0  0  0  0  0  0
 34 35  1  0  0  0
 35 36  1  0  0  0
 36 37  1  0  0  0
 37 38  1  0  0  0
 38 33  1  0  0  0
 33 23  1  0  0  0
 23 24  2  0  0  0
 24 25  1  0  0  0
 25 26  2  0  0  0
 26  1  1  0  0  0
  1  2  1  0  0  0
  2  3  2  0  0  0
  2  5  1  0  0  0
  5  6  2  0  0  0
  6  7  1  0  0  0
  7  8  2  0  0  0
  8  9  1  0  0  0
  8 10  1  0  0  0
 10 11  2  0  0  0
 10 12  1  0  0  0
 12 13  3  0  0  0
 13 14  1  0  0  0
 14 15  2  0  0  0
 15 16  1  0  0  0
 16 17  2  0  0  0
 17 18  1  0  0  0
 18 19  2  0  0  0
 19 20  1  0  0  0
 20 21  2  0  0  0
 21 22  1  0  0  0
 26 27  1  0  0  0
 27 28  2  0  0  0
 28 29  1  0  0  0
 29 30  1  0  0  0
 29 31  1  0  0  0
 29 32  1  0  0  0
 38 39  1  0  0  0
 39 40  1  0  0  0
 40 35  1  0  0  0
 28 23  1  0  0  0
 11  5  1  0  0  0
 22 14  1  0  0  0
 22 17  1  0  0  0
  1  4  1  0  0  0
M  END
> <minimizedAffinity>
-9.44516

> <CNNscore>
0.2583276629

> <CNNaffinity>
6.4943618774

> <CNN_VS>
1.6776733398

> <CNNaffinity_variance>
0.2353263646

$$$$
[H]c1nn2c(C#Cc3c([H])c(C(=O)N([H])c4c([H])c([H])c(C([H])([H])N5C([H])([H])C([H])([H])N(C([H])([H])[H])C([H])([H])C5([H])[H])c(C(F)(F)F)c4[H])c([H])c([H])c3C([H])([H])[H])c([H])nc2c([H])c1[H]


 40 44  0  0  0  0  0  0  0  0999 V2000
    2.9219    4.1407   14.1724 N   0  0  0  0  0  0  0  0  0  0  0  0
    1.8651    5.1668   14.3667 C   0  0  0  0  0  0  0  0  0  0  0  0
    1.8167    5.8632   15.3980 O   0  0  0  0  0  0  0  0  0  0  0  0
    3.1238    3.7197   13.3280 H   0  0  0  0  0  0  0  0  0  0  0  0
    0.8907    5.1953   13.3088 C   0  0  0  0  0  0  0  0  0  0  0  0
    1.5866    5.0970   12.0492 C   0  0  0  0  0  0  0  0  0  0  0  0
    0.9441    5.3387   10.8938 C   0  0  0  0  0  0  0  0  0  0  0  0
   -0.3737    5.6664   10.9616 C   0  0  0  0  0  0  0  0  0  0  0  0
   -1.1025    6.1469    9.7419 C   0  0  0  0  0  0  0  0  0  0  0  0
   -1.0942    5.7618   12.1811 C   0  0  0  0  0  0  0  0  0  0  0  0
   -0.4014    5.5196   13.3315 C   0  0  0  0  0  0  0  0  0  0  0  0
   -2.4911    5.8153   11.9784 C   0  0  0  0  0  0  0  0  0  0  0  0
   -3.6039    5.7546   11.6138 C   0  0  0  0  0  0  0  0  0  0  0  0
   -4.8173    5.5067   10.8814 C   0  0  0  0  0  0  0  0  0  0  0  0
   -5.8670    6.2186   10.4980 C   0  0  0  0  0  0  0  0  0  0  0  0
   -6.6738    5.4141    9.6980 N   0  0  0  0  0  0  0  0  0  0  0  0
   -6.1264    4.2053    9.5909 C   0  0  0  0  0  0  0  0  0  0  0  0
   -6.4919    2.9984    8.9246 C   0  0  0  0  0  0  0  0  0  0  0  0
   -5.6802    1.9077    9.0248 C   0  0  0  0  0  0  0  0  0  0  0  0
   -4.5190    2.0017    9.7811 C   0  0  0  0  0  0  0  0  0  0  0  0
   -4.2134    3.1652   10.4023 N   0  0  0  0  0  0  0  0  0  0  0  0
   -5.0034    4.2334   10.2979 N   0  0  0  0  0  0  0  0  0  0  0  0
    4.4231    2.3450   17.6462 C   0  0  0  0  0  0  0  0  0  0  0  0
    4.9708    3.5471   17.2749 C   0  0  0  0  0  0  0  0  0  0  0  0
    4.5335    4.3104   16.1578 C   0  0  0  0  0  0  0  0  0  0  0  0
    3.5657    3.8698   15.4180 C   0  0  0  0  0  0  0  0  0  0  0  0
    2.9568    2.5985   15.7902 C   0  0  0  0  0  0  0  0  0  0  0  0
    3.3615    1.8726   16.8521 C   0  0  0  0  0  0  0  0  0  0  0  0
    2.7914    0.5286   17.0434 C   0  0  0  0  0  0  0  0  0  0  0  0
    1.9939    0.2443   18.0464 F   0  0  0  0  0  0  0  0  0  0  0  0
    2.0182    0.2259   15.8627 F   0  0  0  0  0  0  0  0  0  0  0  0
    3.8452   -0.4279   16.9167 F   0  0  0  0  0  0  0  0  0  0  0  0
    4.6482    1.5610   18.8349 C   0  0  0  0  0  0  0  0  0  0  0  0
    6.3624    3.3466   22.2165 C   0  0  0  0  0  0  0  0  0  0  0  0
    5.0395    2.8315   22.5561 N   0  0  0  0  0  0  0  0  0  0  0  0
    4.0804    3.5988   21.7807 C   0  0  0  0  0  0  0  0  0  0  0  0
    4.2895    3.2660   20.3417 C   0  0  0  0  0  0  0  0  0  0  0  0
    4.2032    1.8401   20.1010 N   0  0  0  0  0  0  0  0  0  0  0  0
    4.0528    1.0519   21.1857 C   0  0  0  0  0  0  0  0  0  0  0  0
    5.0469    1.4380   22.3087 C   0  0  0  0  0  0  0  0  0  0  0  0
 34 35  1  0  0  0
 35 36  1  0  0  0
 36 37  1  0  0  0
 37 38  1  0  0  0
 38 33  1  0  0  0
 33 23  1  0  0  0
 23 24  2  0  0  0
 24 25  1  0  0  0
 25 26  2  0  0  0
 26  1  1  0  0  0
  1  2  1  0  0  0
  2  3  2  0  0  0
  2  5  1  0  0  0
  5  6  2  0  0  0
  6  7  1  0  0  0
  7  8  2  0  0  0
  8  9  1  0  0  0
  8 10  1  0  0  0
 10 11  2  0  0  0
 10 12  1  0  0  0
 12 13  3  0  0  0
 13 14  1  0  0  0
 14 15  2  0  0  0
 15 16  1  0  0  0
 16 17  2  0  0  0
 17 18  1  0  0  0
 18 19  2  0  0  0
 19 20  1  0  0  0
 20 21  2  0  0  0
 21 22  1  0  0  0
 26 27  1  0  0  0
 27 28  2  0  0  0
 28 29  1  0  0  0
 29 30  1  0  0  0
 29 31  1  0  0  0
 29 32  1  0  0  0
 38 39  1  0  0  0
 39 40  1  0  0  0
 40 35  1  0  0  0
 28 23  1  0  0  0
 11  5  1  0  0  0
 22 14  1  0  0  0
 22 17  1  0  0  0
  1  4  1  0  0  0
M  END
> <minimizedAffinity>
-9.14285

> <CNNscore>
0.2329352349

> <CNNaffinity>
6.5012502670

> <CNN_VS>
1.5143702030

> <CNNaffinity_variance>
0.0848440975

$$$$
[H]c1nn2c(C#Cc3c([H])c(C(=O)N([H])c4c([H])c([H])c(C([H])([H])N5C([H])([H])C([H])([H])N(C([H])([H])[H])C([H])([H])C5([H])[H])c(C(F)(F)F)c4[H])c([H])c([H])c3C([H])([H])[H])c([H])nc2c([H])c1[H]


 40 44  0  0  0  0  0  0  0  0999 V2000
    3.8988    3.1491   15.5390 N   0  0  0  0  0  0  0  0  0  0  0  0
    3.2220    2.5277   16.7067 C   0  0  0  0  0  0  0  0  0  0  0  0
    2.1905    1.8431   16.5719 O   0  0  0  0  0  0  0  0  0  0  0  0
    4.7914    3.5150   15.5579 H   0  0  0  0  0  0  0  0  0  0  0  0
    3.8208    2.8730   17.9683 C   0  0  0  0  0  0  0  0  0  0  0  0
    4.2199    1.6545   18.6290 C   0  0  0  0  0  0  0  0  0  0  0  0
    4.5866    1.6676   19.9218 C   0  0  0  0  0  0  0  0  0  0  0  0
    4.5743    2.8634   20.5687 C   0  0  0  0  0  0  0  0  0  0  0  0
    4.7711    2.9275   22.0543 C   0  0  0  0  0  0  0  0  0  0  0  0
    4.1987    4.0841   19.9489 C   0  0  0  0  0  0  0  0  0  0  0  0
    3.8225    4.0245   18.6386 C   0  0  0  0  0  0  0  0  0  0  0  0
    4.5523    5.2119   20.7225 C   0  0  0  0  0  0  0  0  0  0  0  0
    4.8738    6.2499   21.1630 C   0  0  0  0  0  0  0  0  0  0  0  0
    5.2811    7.6173   21.3492 C   0  0  0  0  0  0  0  0  0  0  0  0
    6.1425    8.2634   22.1215 C   0  0  0  0  0  0  0  0  0  0  0  0
    6.1568    9.6017   21.7382 N   0  0  0  0  0  0  0  0  0  0  0  0
    5.3022    9.7837   20.7338 C   0  0  0  0  0  0  0  0  0  0  0  0
    4.8975   10.9101   19.9581 C   0  0  0  0  0  0  0  0  0  0  0  0
    3.9687   10.7445   18.9738 C   0  0  0  0  0  0  0  0  0  0  0  0
    3.4365    9.4799   18.7582 C   0  0  0  0  0  0  0  0  0  0  0  0
    3.8446    8.4393   19.5223 N   0  0  0  0  0  0  0  0  0  0  0  0
    4.7580    8.6002   20.4793 N   0  0  0  0  0  0  0  0  0  0  0  0
    1.3986    4.1863   12.3424 C   0  0  0  0  0  0  0  0  0  0  0  0
    1.8900    2.9053   12.3639 C   0  0  0  0  0  0  0  0  0  0  0  0
    2.7019    2.3812   13.4069 C   0  0  0  0  0  0  0  0  0  0  0  0
    3.0237    3.1344   14.4106 C   0  0  0  0  0  0  0  0  0  0  0  0
    2.5110    4.4991   14.4217 C   0  0  0  0  0  0  0  0  0  0  0  0
    1.7349    5.0008   13.4397 C   0  0  0  0  0  0  0  0  0  0  0  0
    1.4074    6.4361   13.4664 C   0  0  0  0  0  0  0  0  0  0  0  0
    0.1802    6.8696   13.6364 F   0  0  0  0  0  0  0  0  0  0  0  0
    2.1567    7.0200   14.5532 F   0  0  0  0  0  0  0  0  0  0  0  0
    2.0402    7.0614   12.3484 F   0  0  0  0  0  0  0  0  0  0  0  0
    0.4386    4.7869   11.4502 C   0  0  0  0  0  0  0  0  0  0  0  0
   -2.6378    5.9721    8.8631 C   0  0  0  0  0  0  0  0  0  0  0  0
   -3.1771    5.0775    9.8826 N   0  0  0  0  0  0  0  0  0  0  0  0
   -2.5574    3.7808    9.6712 C   0  0  0  0  0  0  0  0  0  0  0  0
   -1.1036    3.9168    9.9769 C   0  0  0  0  0  0  0  0  0  0  0  0
   -0.8806    4.4423   11.3083 N   0  0  0  0  0  0  0  0  0  0  0  0
   -1.9763    4.8089   12.0050 C   0  0  0  0  0  0  0  0  0  0  0  0
   -2.9329    5.6705   11.1443 C   0  0  0  0  0  0  0  0  0  0  0  0
 34 35  1  0  0  0
 35 36  1  0  0  0
 36 37  1  0  0  0
 37 38  1  0  0  0
 38 33  1  0  0  0
 33 23  1  0  0  0
 23 24  2  0  0  0
 24 25  1  0  0  0
 25 26  2  0  0  0
 26  1  1  0  0  0
  1  2  1  0  0  0
  2  3  2  0  0  0
  2  5  1  0  0  0
  5  6  2  0  0  0
  6  7  1  0  0  0
  7  8  2  0  0  0
  8  9  1  0  0  0
  8 10  1  0  0  0
 10 11  2  0  0  0
 10 12  1  0  0  0
 12 13  3  0  0  0
 13 14  1  0  0  0
 14 15  2  0  0  0
 15 16  1  0  0  0
 16 17  2  0  0  0
 17 18  1  0  0  0
 18 19  2  0  0  0
 19 20  1  0  0  0
 20 21  2  0  0  0
 21 22  1  0  0  0
 26 27  1  0  0  0
 27 28  2  0  0  0
 28 29  1  0  0  0
 29 30  1  0  0  0
 29 31  1  0  0  0
 29 32  1  0  0  0
 38 39  1  0  0  0
 39 40  1  0  0  0
 40 35  1  0  0  0
 28 23  1  0  0  0
 11  5  1  0  0  0
 22 14  1  0  0  0
 22 17  1  0  0  0
  1  4  1  0  0  0
M  END
> <minimizedAffinity>
-9.12875

> <CNNscore>
0.2099840343

> <CNNaffinity>
6.2682762146

> <CNN_VS>
1.3162379265

> <CNNaffinity_variance>
0.5579410791

$$$$
[H]c1nn2c(C#Cc3c([H])c(C(=O)N([H])c4c([H])c([H])c(C([H])([H])N5C([H])([H])C([H])([H])N(C([H])([H])[H])C([H])([H])C5([H])[H])c(C(F)(F)F)c4[H])c([H])c([H])c3C([H])([H])[H])c([H])nc2c([H])c1[H]


 40 44  0  0  0  0  0  0  0  0999 V2000
    3.1740    8.5701   15.9015 N   0  0  0  0  0  0  0  0  0  0  0  0
    4.5028    8.7109   16.5512 C   0  0  0  0  0  0  0  0  0  0  0  0
    5.5450    8.8325   15.8806 O   0  0  0  0  0  0  0  0  0  0  0  0
    2.3305    8.6707   16.3589 H   0  0  0  0  0  0  0  0  0  0  0  0
    4.4555    8.6010   17.9848 C   0  0  0  0  0  0  0  0  0  0  0  0
    4.4972    9.9305   18.5427 C   0  0  0  0  0  0  0  0  0  0  0  0
    4.7065   10.1126   19.8577 C   0  0  0  0  0  0  0  0  0  0  0  0
    4.8659    9.0052   20.6302 C   0  0  0  0  0  0  0  0  0  0  0  0
    5.3040    9.1304   22.0592 C   0  0  0  0  0  0  0  0  0  0  0  0
    4.8200    7.6817   20.1190 C   0  0  0  0  0  0  0  0  0  0  0  0
    4.6167    7.5418   18.7769 C   0  0  0  0  0  0  0  0  0  0  0  0
    4.7094    6.7131   21.1412 C   0  0  0  0  0  0  0  0  0  0  0  0
    4.5763    5.7651   21.8183 C   0  0  0  0  0  0  0  0  0  0  0  0
    4.3662    4.4352   22.3258 C   0  0  0  0  0  0  0  0  0  0  0  0
    4.1453    3.8864   23.5115 C   0  0  0  0  0  0  0  0  0  0  0  0
    3.9057    2.5274   23.3277 N   0  0  0  0  0  0  0  0  0  0  0  0
    3.9831    2.2354   22.0312 C   0  0  0  0  0  0  0  0  0  0  0  0
    3.8411    1.0403   21.2660 C   0  0  0  0  0  0  0  0  0  0  0  0
    3.9891    1.0925   19.9117 C   0  0  0  0  0  0  0  0  0  0  0  0
    4.2813    2.3118   19.3144 C   0  0  0  0  0  0  0  0  0  0  0  0
    4.4139    3.4209   20.0796 N   0  0  0  0  0  0  0  0  0  0  0  0
    4.2617    3.3708   21.4026 N   0  0  0  0  0  0  0  0  0  0  0  0
    3.4399    6.6259   12.2008 C   0  0  0  0  0  0  0  0  0  0  0  0
    3.3175    7.9925   12.1836 C   0  0  0  0  0  0  0  0  0  0  0  0
    3.2744    8.8029   13.3512 C   0  0  0  0  0  0  0  0  0  0  0  0
    3.3443    8.2494   14.5203 C   0  0  0  0  0  0  0  0  0  0  0  0
    3.4827    6.7991   14.5730 C   0  0  0  0  0  0  0  0  0  0  0  0
    3.5314    6.0248   13.4700 C   0  0  0  0  0  0  0  0  0  0  0  0
    3.5070    4.5620   13.6364 C   0  0  0  0  0  0  0  0  0  0  0  0
    4.4856    3.7947   13.2161 F   0  0  0  0  0  0  0  0  0  0  0  0
    3.4174    4.2995   15.0529 F   0  0  0  0  0  0  0  0  0  0  0  0
    2.2333    4.0822   13.2016 F   0  0  0  0  0  0  0  0  0  0  0  0
    3.6661    5.7102   11.1106 C   0  0  0  0  0  0  0  0  0  0  0  0
    2.5196    8.7499    8.4633 C   0  0  0  0  0  0  0  0  0  0  0  0
    2.0505    7.4630    7.9590 N   0  0  0  0  0  0  0  0  0  0  0  0
    3.2335    6.6814    7.6432 C   0  0  0  0  0  0  0  0  0  0  0  0
    3.9371    6.3842    8.9246 C   0  0  0  0  0  0  0  0  0  0  0  0
    3.0640    5.7323    9.8793 N   0  0  0  0  0  0  0  0  0  0  0  0
    1.7722    5.5887    9.5173 C   0  0  0  0  0  0  0  0  0  0  0  0
    1.1961    6.9051    8.9397 C   0  0  0  0  0  0  0  0  0  0  0  0
 34 35  1  0  0  0
 35 36  1  0  0  0
 36 37  1  0  0  0
 37 38  1  0  0  0
 38 33  1  0  0  0
 33 23  1  0  0  0
 23 24  2  0  0  0
 24 25  1  0  0  0
 25 26  2  0  0  0
 26  1  1  0  0  0
  1  2  1  0  0  0
  2  3  2  0  0  0
  2  5  1  0  0  0
  5  6  2  0  0  0
  6  7  1  0  0  0
  7  8  2  0  0  0
  8  9  1  0  0  0
  8 10  1  0  0  0
 10 11  2  0  0  0
 10 12  1  0  0  0
 12 13  3  0  0  0
 13 14  1  0  0  0
 14 15  2  0  0  0
 15 16  1  0  0  0
 16 17  2  0  0  0
 17 18  1  0  0  0
 18 19  2  0  0  0
 19 20  1  0  0  0
 20 21  2  0  0  0
 21 22  1  0  0  0
 26 27  1  0  0  0
 27 28  2  0  0  0
 28 29  1  0  0  0
 29 30  1  0  0  0
 29 31  1  0  0  0
 29 32  1  0  0  0
 38 39  1  0  0  0
 39 40  1  0  0  0
 40 35  1  0  0  0
 28 23  1  0  0  0
 11  5  1  0  0  0
 22 14  1  0  0  0
 22 17  1  0  0  0
  1  4  1  0  0  0
M  END
> <minimizedAffinity>
-8.98988

> <CNNscore>
0.2067854702

> <CNNaffinity>
6.4556603432

> <CNN_VS>
1.3349367380

> <CNNaffinity_variance>
0.6098889112

$$$$
[H]c1nn2c(C#Cc3c([H])c(C(=O)N([H])c4c([H])c([H])c(C([H])([H])N5C([H])([H])C([H])([H])N(C([H])([H])[H])C([H])([H])C5([H])[H])c(C(F)(F)F)c4[H])c([H])c([H])c3C([H])([H])[H])c([H])nc2c([H])c1[H]


 40 44  0  0  0  0  0  0  0  0999 V2000
    4.2068    4.4329   15.2106 N   0  0  0  0  0  0  0  0  0  0  0  0
    2.8794    5.0771   15.0361 C   0  0  0  0  0  0  0  0  0  0  0  0
    2.1563    5.3513   16.0122 O   0  0  0  0  0  0  0  0  0  0  0  0
    4.8813    4.3799   14.5227 H   0  0  0  0  0  0  0  0  0  0  0  0
    2.5036    5.2543   13.6588 C   0  0  0  0  0  0  0  0  0  0  0  0
    3.6784    5.0730   12.8418 C   0  0  0  0  0  0  0  0  0  0  0  0
    3.6655    5.4157   11.5423 C   0  0  0  0  0  0  0  0  0  0  0  0
    2.5111    5.9250   11.0359 C   0  0  0  0  0  0  0  0  0  0  0  0
    2.4801    6.5169    9.6580 C   0  0  0  0  0  0  0  0  0  0  0  0
    1.3325    6.1073   11.8059 C   0  0  0  0  0  0  0  0  0  0  0  0
    1.3919    5.7571   13.1234 C   0  0  0  0  0  0  0  0  0  0  0  0
    0.1982    6.3593   11.0027 C   0  0  0  0  0  0  0  0  0  0  0  0
   -0.7085    6.3571   10.2592 C   0  0  0  0  0  0  0  0  0  0  0  0
   -1.7076    6.0116    9.2831 C   0  0  0  0  0  0  0  0  0  0  0  0
   -2.7549    5.2015    9.2299 C   0  0  0  0  0  0  0  0  0  0  0  0
   -3.4059    5.4057    8.0165 N   0  0  0  0  0  0  0  0  0  0  0  0
   -2.7597    6.3371    7.3185 C   0  0  0  0  0  0  0  0  0  0  0  0
   -2.9499    6.9385    6.0393 C   0  0  0  0  0  0  0  0  0  0  0  0
   -2.0741    7.8922    5.6125 C   0  0  0  0  0  0  0  0  0  0  0  0
   -1.0139    8.2476    6.4364 C   0  0  0  0  0  0  0  0  0  0  0  0
   -0.8672    7.6465    7.6407 N   0  0  0  0  0  0  0  0  0  0  0  0
   -1.7279    6.7197    8.0606 N   0  0  0  0  0  0  0  0  0  0  0  0
    4.2002    1.9516   18.5852 C   0  0  0  0  0  0  0  0  0  0  0  0
    4.8860    3.1364   18.6796 C   0  0  0  0  0  0  0  0  0  0  0  0
    4.9359    4.1121   17.6465 C   0  0  0  0  0  0  0  0  0  0  0  0
    4.3136    3.8986   16.5306 C   0  0  0  0  0  0  0  0  0  0  0  0
    3.5688    2.6520   16.4013 C   0  0  0  0  0  0  0  0  0  0  0  0
    3.5111    1.7253   17.3792 C   0  0  0  0  0  0  0  0  0  0  0  0
    2.8694    0.4329   17.0861 C   0  0  0  0  0  0  0  0  0  0  0  0
    1.9319   -0.0716   17.8538 F   0  0  0  0  0  0  0  0  0  0  0  0
    2.2541    0.5522   15.7858 F   0  0  0  0  0  0  0  0  0  0  0  0
    3.8934   -0.5224   16.8029 F   0  0  0  0  0  0  0  0  0  0  0  0
    3.9264    0.9654   19.6005 C   0  0  0  0  0  0  0  0  0  0  0  0
    4.9830    3.7965   22.5041 C   0  0  0  0  0  0  0  0  0  0  0  0
    5.4330    2.4742   22.9275 N   0  0  0  0  0  0  0  0  0  0  0  0
    4.2391    1.6755   23.1433 C   0  0  0  0  0  0  0  0  0  0  0  0
    3.5802    1.4765   21.8198 C   0  0  0  0  0  0  0  0  0  0  0  0
    4.4853    0.8941   20.8502 N   0  0  0  0  0  0  0  0  0  0  0  0
    5.7637    0.7196   21.2449 C   0  0  0  0  0  0  0  0  0  0  0  0
    6.3205    1.9876   21.9382 C   0  0  0  0  0  0  0  0  0  0  0  0
 34 35  1  0  0  0
 35 36  1  0  0  0
 36 37  1  0  0  0
 37 38  1  0  0  0
 38 33  1  0  0  0
 33 23  1  0  0  0
 23 24  2  0  0  0
 24 25  1  0  0  0
 25 26  2  0  0  0
 26  1  1  0  0  0
  1  2  1  0  0  0
  2  3  2  0  0  0
  2  5  1  0  0  0
  5  6  2  0  0  0
  6  7  1  0  0  0
  7  8  2  0  0  0
  8  9  1  0  0  0
  8 10  1  0  0  0
 10 11  2  0  0  0
 10 12  1  0  0  0
 12 13  3  0  0  0
 13 14  1  0  0  0
 14 15  2  0  0  0
 15 16  1  0  0  0
 16 17  2  0  0  0
 17 18  1  0  0  0
 18 19  2  0  0  0
 19 20  1  0  0  0
 20 21  2  0  0  0
 21 22  1  0  0  0
 26 27  1  0  0  0
 27 28  2  0  0  0
 28 29  1  0  0  0
 29 30  1  0  0  0
 29 31  1  0  0  0
 29 32  1  0  0  0
 38 39  1  0  0  0
 39 40  1  0  0  0
 40 35  1  0  0  0
 28 23  1  0  0  0
 11  5  1  0  0  0
 22 14  1  0  0  0
 22 17  1  0  0  0
  1  4  1  0  0  0
M  END
> <minimizedAffinity>
-8.70941

> <CNNscore>
0.2060956806

> <CNNaffinity>
6.1179060936

> <CNN_VS>
1.2608740330

> <CNNaffinity_variance>
0.2160795480

$$$$
[H]c1nn2c(C#Cc3c([H])c(C(=O)N([H])c4c([H])c([H])c(C([H])([H])N5C([H])([H])C([H])([H])N(C([H])([H])[H])C([H])([H])C5([H])[H])c(C(F)(F)F)c4[H])c([H])c([H])c3C([H])([H])[H])c([H])nc2c([H])c1[H]


 40 44  0  0  0  0  0  0  0  0999 V2000
    4.5438    2.5840   16.9256 N   0  0  0  0  0  0  0  0  0  0  0  0
    3.9924    1.7413   18.0181 C   0  0  0  0  0  0  0  0  0  0  0  0
    3.1093    0.8906   17.8005 O   0  0  0  0  0  0  0  0  0  0  0  0
    5.3512    3.1077   16.9962 H   0  0  0  0  0  0  0  0  0  0  0  0
    4.5106    2.0748   19.3180 C   0  0  0  0  0  0  0  0  0  0  0  0
    4.2138    0.9865   20.2169 C   0  0  0  0  0  0  0  0  0  0  0  0
    4.3714    1.1346   21.5433 C   0  0  0  0  0  0  0  0  0  0  0  0
    4.8248    2.3343   21.9945 C   0  0  0  0  0  0  0  0  0  0  0  0
    4.8311    2.6427   23.4624 C   0  0  0  0  0  0  0  0  0  0  0  0
    5.1378    3.4238   21.1399 C   0  0  0  0  0  0  0  0  0  0  0  0
    4.9529    3.2351   19.8012 C   0  0  0  0  0  0  0  0  0  0  0  0
    5.8646    4.4371   21.8034 C   0  0  0  0  0  0  0  0  0  0  0  0
    6.3459    5.4200   22.2244 C   0  0  0  0  0  0  0  0  0  0  0  0
    6.6998    6.7850   22.5104 C   0  0  0  0  0  0  0  0  0  0  0  0
    7.5762    7.4045   23.2875 C   0  0  0  0  0  0  0  0  0  0  0  0
    7.5045    8.7702   23.0271 N   0  0  0  0  0  0  0  0  0  0  0  0
    6.5819    8.9953   22.0941 C   0  0  0  0  0  0  0  0  0  0  0  0
    6.0781   10.1629   21.4484 C   0  0  0  0  0  0  0  0  0  0  0  0
    5.0990   10.0365   20.5081 C   0  0  0  0  0  0  0  0  0  0  0  0
    4.6140    8.7698   20.2094 C   0  0  0  0  0  0  0  0  0  0  0  0
    5.1164    7.6887   20.8511 N   0  0  0  0  0  0  0  0  0  0  0  0
    6.0788    7.8120   21.7648 N   0  0  0  0  0  0  0  0  0  0  0  0
    2.5229    3.3124   13.3298 C   0  0  0  0  0  0  0  0  0  0  0  0
    2.4866    2.0316   13.8210 C   0  0  0  0  0  0  0  0  0  0  0  0
    3.0713    1.6351   15.0549 C   0  0  0  0  0  0  0  0  0  0  0  0
    3.6915    2.5095   15.7822 C   0  0  0  0  0  0  0  0  0  0  0  0
    3.7413    3.8816   15.2920 C   0  0  0  0  0  0  0  0  0  0  0  0
    3.1831    4.2664   14.1263 C   0  0  0  0  0  0  0  0  0  0  0  0
    3.4316    5.6360   13.6462 C   0  0  0  0  0  0  0  0  0  0  0  0
    2.4541    6.4633   13.3580 F   0  0  0  0  0  0  0  0  0  0  0  0
    4.1934    6.3106   14.6699 F   0  0  0  0  0  0  0  0  0  0  0  0
    4.4005    5.5751   12.5980 F   0  0  0  0  0  0  0  0  0  0  0  0
    1.8360    3.8816   12.1973 C   0  0  0  0  0  0  0  0  0  0  0  0
   -0.5670    6.2858    9.7462 C   0  0  0  0  0  0  0  0  0  0  0  0
   -1.4049    5.5936   10.7205 N   0  0  0  0  0  0  0  0  0  0  0  0
   -1.3116    4.1756   10.4197 C   0  0  0  0  0  0  0  0  0  0  0  0
    0.0870    3.7418   10.7047 C   0  0  0  0  0  0  0  0  0  0  0  0
    0.4840    4.0618   12.0607 N   0  0  0  0  0  0  0  0  0  0  0  0
   -0.3995    4.7650   12.7993 C   0  0  0  0  0  0  0  0  0  0  0  0
   -0.9629    5.9727   12.0105 C   0  0  0  0  0  0  0  0  0  0  0  0
 34 35  1  0  0  0
 35 36  1  0  0  0
 36 37  1  0  0  0
 37 38  1  0  0  0
 38 33  1  0  0  0
 33 23  1  0  0  0
 23 24  2  0  0  0
 24 25  1  0  0  0
 25 26  2  0  0  0
 26  1  1  0  0  0
  1  2  1  0  0  0
  2  3  2  0  0  0
  2  5  1  0  0  0
  5  6  2  0  0  0
  6  7  1  0  0  0
  7  8  2  0  0  0
  8  9  1  0  0  0
  8 10  1  0  0  0
 10 11  2  0  0  0
 10 12  1  0  0  0
 12 13  3  0  0  0
 13 14  1  0  0  0
 14 15  2  0  0  0
 15 16  1  0  0  0
 16 17  2  0  0  0
 17 18  1  0  0  0
 18 19  2  0  0  0
 19 20  1  0  0  0
 20 21  2  0  0  0
 21 22  1  0  0  0
 26 27  1  0  0  0
 27 28  2  0  0  0
 28 29  1  0  0  0
 29 30  1  0  0  0
 29 31  1  0  0  0
 29 32  1  0  0  0
 38 39  1  0  0  0
 39 40  1  0  0  0
 40 35  1  0  0  0
 28 23  1  0  0  0
 11  5  1  0  0  0
 22 14  1  0  0  0
 22 17  1  0  0  0
  1  4  1  0  0  0
M  END
> <minimizedAffinity>
-9.95833

> <CNNscore>
0.1888494641

> <CNNaffinity>
6.5725097656

> <CNN_VS>
1.2412149906

> <CNNaffinity_variance>
0.3510287702

$$$$
[H]c1nc2c([H])c([H])nn2c([H])c1C#Cc1c([H])c(C(=O)N([H])c2c([H])c([H])c(C([H])([H])N3C([H])([H])C([H])([H])N(C([H])([H])[H])C([H])([H])C3([H])[H])c(C(F)(F)F)c2[H])c([H])c([H])c1C([H])([H])[H]


 40 44  0  0  0  0  0  0  0  0999 V2000
    3.8048    3.1123   15.8630 N   0  0  0  0  0  0  0  0  0  0  0  0
    3.5856    1.9596   16.5883 C   0  0  0  0  0  0  0  0  0  0  0  0
    3.1188    0.9226   16.0552 O   0  0  0  0  0  0  0  0  0  0  0  0
    4.2186    3.9406   16.4179 H   0  0  0  0  0  0  0  0  0  0  0  0
    3.8881    1.8800   18.0301 C   0  0  0  0  0  0  0  0  0  0  0  0
    3.5744    0.7884   18.8007 C   0  0  0  0  0  0  0  0  0  0  0  0
    3.8799    0.7979   20.1307 C   0  0  0  0  0  0  0  0  0  0  0  0
    4.4928    1.8820   20.6939 C   0  0  0  0  0  0  0  0  0  0  0  0
    4.8435    1.9241   22.1581 C   0  0  0  0  0  0  0  0  0  0  0  0
    4.8367    3.0172   19.9694 C   0  0  0  0  0  0  0  0  0  0  0  0
    4.5122    2.9698   18.6311 C   0  0  0  0  0  0  0  0  0  0  0  0
    5.4806    4.1609   20.5566 C   0  0  0  0  0  0  0  0  0  0  0  0
    6.0024    5.1318   21.0529 C   0  0  0  0  0  0  0  0  0  0  0  0
    6.5999    6.2990   21.6434 C   0  0  0  0  0  0  0  0  0  0  0  0
    7.7337    6.2180   22.4266 C   0  0  0  0  0  0  0  0  0  0  0  0
    8.2880    7.3157   22.9768 N   0  0  0  0  0  0  0  0  0  0  0  0
    7.7644    8.5414   22.7897 C   0  0  0  0  0  0  0  0  0  0  0  0
    8.1322    9.8155   23.2352 C   0  0  0  0  0  0  0  0  0  0  0  0
    7.1967   10.6776   22.7060 C   0  0  0  0  0  0  0  0  0  0  0  0
    6.3489    9.9433   22.0034 N   0  0  0  0  0  0  0  0  0  0  0  0
    6.6598    8.6588   22.0324 N   0  0  0  0  0  0  0  0  0  0  0  0
    6.0827    7.5785   21.4688 C   0  0  0  0  0  0  0  0  0  0  0  0
    3.0852    3.8174   11.7314 C   0  0  0  0  0  0  0  0  0  0  0  0
    3.9591    4.5921   12.4923 C   0  0  0  0  0  0  0  0  0  0  0  0
    4.1899    4.3558   13.8169 C   0  0  0  0  0  0  0  0  0  0  0  0
    3.5416    3.2976   14.4821 C   0  0  0  0  0  0  0  0  0  0  0  0
    2.6980    2.5578   13.7285 C   0  0  0  0  0  0  0  0  0  0  0  0
    2.4397    2.7767   12.3626 C   0  0  0  0  0  0  0  0  0  0  0  0
    1.5017    1.9174   11.6410 C   0  0  0  0  0  0  0  0  0  0  0  0
    2.0696    1.0392   10.7511 F   0  0  0  0  0  0  0  0  0  0  0  0
    0.8533    1.0789   12.5702 F   0  0  0  0  0  0  0  0  0  0  0  0
    0.4278    2.6238   11.0767 F   0  0  0  0  0  0  0  0  0  0  0  0
    2.8484    4.0226   10.3032 C   0  0  0  0  0  0  0  0  0  0  0  0
    2.3270    8.1265    9.9985 C   0  0  0  0  0  0  0  0  0  0  0  0
    1.6850    7.5910    8.8291 N   0  0  0  0  0  0  0  0  0  0  0  0
    2.6243    6.8915    8.0079 C   0  0  0  0  0  0  0  0  0  0  0  0
    3.2642    5.7844    8.7849 C   0  0  0  0  0  0  0  0  0  0  0  0
    2.4293    5.3714    9.9401 N   0  0  0  0  0  0  0  0  0  0  0  0
    1.0527    5.3243    9.4245 C   0  0  0  0  0  0  0  0  0  0  0  0
    0.5771    6.7301    9.2256 C   0  0  0  0  0  0  0  0  0  0  0  0
 34 35  1  0  0  0
 35 36  1  0  0  0
 36 37  1  0  0  0
 37 38  1  0  0  0
 38 33  1  0  0  0
 33 23  1  0  0  0
 23 24  2  0  0  0
 24 25  1  0  0  0
 25 26  2  0  0  0
 26  1  1  0  0  0
  1  2  1  0  0  0
  2  3  2  0  0  0
  2  5  1  0  0  0
  5  6  2  0  0  0
  6  7  1  0  0  0
  7  8  2  0  0  0
  8  9  1  0  0  0
  8 10  1  0  0  0
 10 11  2  0  0  0
 10 12  1  0  0  0
 12 13  3  0  0  0
 13 14  1  0  0  0
 14 15  1  0  0  0
 15 16  2  0  0  0
 16 17  1  0  0  0
 17 18  2  0  0  0
 18 19  1  0  0  0
 19 20  2  0  0  0
 20 21  1  0  0  0
 21 22  1  0  0  0
 26 27  1  0  0  0
 27 28  2  0  0  0
 28 29  1  0  0  0
 29 30  1  0  0  0
 29 31  1  0  0  0
 29 32  1  0  0  0
 38 39  1  0  0  0
 39 40  1  0  0  0
 40 35  1  0  0  0
 28 23  1  0  0  0
 11  5  1  0  0  0
 22 14  2  0  0  0
 21 17  1  0  0  0
  1  4  1  0  0  0
M  END
> <minimizedAffinity>
-8.56401

> <CNNscore>
0.3597597182

> <CNNaffinity>
6.4568319321

> <CNN_VS>
2.3229079247

> <CNNaffinity_variance>
0.3181896210

$$$$
[H]c1nc2c([H])c([H])nn2c([H])c1C#Cc1c([H])c(C(=O)N([H])c2c([H])c([H])c(C([H])([H])N3C([H])([H])C([H])([H])N(C([H])([H])[H])C([H])([H])C3([H])[H])c(C(F)(F)F)c2[H])c([H])c([H])c1C([H])([H])[H]


 40 44  0  0  0  0  0  0  0  0999 V2000
    3.8119    3.1463   15.8096 N   0  0  0  0  0  0  0  0  0  0  0  0
    3.6035    2.0046   16.5553 C   0  0  0  0  0  0  0  0  0  0  0  0
    3.1611    0.9493   16.0377 O   0  0  0  0  0  0  0  0  0  0  0  0
    4.2047    3.9925   16.3526 H   0  0  0  0  0  0  0  0  0  0  0  0
    3.8897    1.9591   18.0019 C   0  0  0  0  0  0  0  0  0  0  0  0
    3.5891    0.8762   18.7898 C   0  0  0  0  0  0  0  0  0  0  0  0
    3.8778    0.9175   20.1229 C   0  0  0  0  0  0  0  0  0  0  0  0
    4.4611    2.0248   20.6723 C   0  0  0  0  0  0  0  0  0  0  0  0
    4.7927    2.1024   22.1395 C   0  0  0  0  0  0  0  0  0  0  0  0
    4.7905    3.1528   19.9301 C   0  0  0  0  0  0  0  0  0  0  0  0
    4.4837    3.0730   18.5891 C   0  0  0  0  0  0  0  0  0  0  0  0
    5.4033    4.3208   20.5025 C   0  0  0  0  0  0  0  0  0  0  0  0
    5.8989    5.3124   20.9846 C   0  0  0  0  0  0  0  0  0  0  0  0
    6.4654    6.5043   21.5559 C   0  0  0  0  0  0  0  0  0  0  0  0
    7.4730    6.4510   22.4979 C   0  0  0  0  0  0  0  0  0  0  0  0
    7.9991    7.5717   23.0290 N   0  0  0  0  0  0  0  0  0  0  0  0
    7.5686    8.7947   22.6675 C   0  0  0  0  0  0  0  0  0  0  0  0
    7.9336   10.0888   23.0539 C   0  0  0  0  0  0  0  0  0  0  0  0
    7.1256   10.9347   22.3260 C   0  0  0  0  0  0  0  0  0  0  0  0
    6.3488   10.1731   21.5724 N   0  0  0  0  0  0  0  0  0  0  0  0
    6.5881    8.8855   21.7523 N   0  0  0  0  0  0  0  0  0  0  0  0
    6.0423    7.7817   21.2032 C   0  0  0  0  0  0  0  0  0  0  0  0
    3.1365    3.7538   11.6551 C   0  0  0  0  0  0  0  0  0  0  0  0
    4.0197    4.5318   12.4018 C   0  0  0  0  0  0  0  0  0  0  0  0
    4.2360    4.3267   13.7340 C   0  0  0  0  0  0  0  0  0  0  0  0
    3.5625    3.2995   14.4222 C   0  0  0  0  0  0  0  0  0  0  0  0
    2.7103    2.5559   13.6820 C   0  0  0  0  0  0  0  0  0  0  0  0
    2.4664    2.7430   12.3088 C   0  0  0  0  0  0  0  0  0  0  0  0
    1.5172    1.8827   11.6031 C   0  0  0  0  0  0  0  0  0  0  0  0
    2.0752    0.9602   10.7526 F   0  0  0  0  0  0  0  0  0  0  0  0
    0.8345    1.0935   12.5506 F   0  0  0  0  0  0  0  0  0  0  0  0
    0.4698    2.5956   10.9986 F   0  0  0  0  0  0  0  0  0  0  0  0
    2.9142    3.9251   10.2201 C   0  0  0  0  0  0  0  0  0  0  0  0
    6.3046    2.2325    8.5328 C   0  0  0  0  0  0  0  0  0  0  0  0
    5.7800    3.0934    7.5081 N   0  0  0  0  0  0  0  0  0  0  0  0
    4.4654    2.6828    7.1217 C   0  0  0  0  0  0  0  0  0  0  0  0
    3.5527    2.6939    8.3074 C   0  0  0  0  0  0  0  0  0  0  0  0
    4.0570    3.5875    9.3794 N   0  0  0  0  0  0  0  0  0  0  0  0
    4.5183    4.7999    8.6864 C   0  0  0  0  0  0  0  0  0  0  0  0
    5.7934    4.4759    7.9712 C   0  0  0  0  0  0  0  0  0  0  0  0
 34 35  1  0  0  0
 35 36  1  0  0  0
 36 37  1  0  0  0
 37 38  1  0  0  0
 38 33  1  0  0  0
 33 23  1  0  0  0
 23 24  2  0  0  0
 24 25  1  0  0  0
 25 26  2  0  0  0
 26  1  1  0  0  0
  1  2  1  0  0  0
  2  3  2  0  0  0
  2  5  1  0  0  0
  5  6  2  0  0  0
  6  7  1  0  0  0
  7  8  2  0  0  0
  8  9  1  0  0  0
  8 10  1  0  0  0
 10 11  2  0  0  0
 10 12  1  0  0  0
 12 13  3  0  0  0
 13 14  1  0  0  0
 14 15  1  0  0  0
 15 16  2  0  0  0
 16 17  1  0  0  0
 17 18  2  0  0  0
 18 19  1  0  0  0
 19 20  2  0  0  0
 20 21  1  0  0  0
 21 22  1  0  0  0
 26 27  1  0  0  0
 27 28  2  0  0  0
 28 29  1  0  0  0
 29 30  1  0  0  0
 29 31  1  0  0  0
 29 32  1  0  0  0
 38 39  1  0  0  0
 39 40  1  0  0  0
 40 35  1  0  0  0
 28 23  1  0  0  0
 11  5  1  0  0  0
 22 14  2  0  0  0
 21 17  1  0  0  0
  1  4  1  0  0  0
M  END
> <minimizedAffinity>
-8.29051

> <CNNscore>
0.2921018004

> <CNNaffinity>
6.4541664124

> <CNN_VS>
1.8852735758

> <CNNaffinity_variance>
0.3945453763

$$$$
[H]c1nc2c([H])c([H])nn2c([H])c1C#Cc1c([H])c(C(=O)N([H])c2c([H])c([H])c(C([H])([H])N3C([H])([H])C([H])([H])N(C([H])([H])[H])C([H])([H])C3([H])[H])c(C(F)(F)F)c2[H])c([H])c([H])c1C([H])([H])[H]


 40 44  0  0  0  0  0  0  0  0999 V2000
    3.7339    3.1084   14.8581 N   0  0  0  0  0  0  0  0  0  0  0  0
    2.9380    4.1604   14.4546 C   0  0  0  0  0  0  0  0  0  0  0  0
    2.2322    4.8049   15.2694 O   0  0  0  0  0  0  0  0  0  0  0  0
    4.3070    2.6314   14.0776 H   0  0  0  0  0  0  0  0  0  0  0  0
    2.8723    4.5879   13.0441 C   0  0  0  0  0  0  0  0  0  0  0  0
    3.9888    4.7964   12.2734 C   0  0  0  0  0  0  0  0  0  0  0  0
    3.8421    5.2011   10.9784 C   0  0  0  0  0  0  0  0  0  0  0  0
    2.5970    5.3978   10.4500 C   0  0  0  0  0  0  0  0  0  0  0  0
    2.4007    5.8440    9.0248 C   0  0  0  0  0  0  0  0  0  0  0  0
    1.4281    5.2042   11.1765 C   0  0  0  0  0  0  0  0  0  0  0  0
    1.6172    4.7961   12.4789 C   0  0  0  0  0  0  0  0  0  0  0  0
    0.1158    5.4104   10.6263 C   0  0  0  0  0  0  0  0  0  0  0  0
   -0.9948    5.5665   10.1751 C   0  0  0  0  0  0  0  0  0  0  0  0
   -2.3234    5.7298    9.6495 C   0  0  0  0  0  0  0  0  0  0  0  0
   -2.5490    6.0016    8.3151 C   0  0  0  0  0  0  0  0  0  0  0  0
   -3.7964    6.1535    7.8297 N   0  0  0  0  0  0  0  0  0  0  0  0
   -4.8804    6.0479    8.6205 C   0  0  0  0  0  0  0  0  0  0  0  0
   -6.2539    6.1580    8.3785 C   0  0  0  0  0  0  0  0  0  0  0  0
   -6.8629    5.9472    9.5963 C   0  0  0  0  0  0  0  0  0  0  0  0
   -5.8995    5.7306   10.4774 N   0  0  0  0  0  0  0  0  0  0  0  0
   -4.6991    5.7839    9.9262 N   0  0  0  0  0  0  0  0  0  0  0  0
   -3.4629    5.6267   10.4407 C   0  0  0  0  0  0  0  0  0  0  0  0
    4.2507    1.7208   18.8446 C   0  0  0  0  0  0  0  0  0  0  0  0
    4.8684    2.8707   18.3555 C   0  0  0  0  0  0  0  0  0  0  0  0
    4.6927    3.3134   17.0762 C   0  0  0  0  0  0  0  0  0  0  0  0
    3.8628    2.6127   16.1803 C   0  0  0  0  0  0  0  0  0  0  0  0
    3.2728    1.5005   16.6721 C   0  0  0  0  0  0  0  0  0  0  0  0
    3.4344    1.0193   17.9846 C   0  0  0  0  0  0  0  0  0  0  0  0
    2.7520   -0.2011   18.4134 C   0  0  0  0  0  0  0  0  0  0  0  0
    2.9891   -0.5861   19.7100 F   0  0  0  0  0  0  0  0  0  0  0  0
    1.3612    0.0259   18.3813 F   0  0  0  0  0  0  0  0  0  0  0  0
    2.9015   -1.2642   17.5089 F   0  0  0  0  0  0  0  0  0  0  0  0
    4.3893    1.2447   20.2202 C   0  0  0  0  0  0  0  0  0  0  0  0
    4.0990    4.6623   22.5532 C   0  0  0  0  0  0  0  0  0  0  0  0
    4.9572    3.7841   23.3006 N   0  0  0  0  0  0  0  0  0  0  0  0
    4.2720    2.5778   23.6493 C   0  0  0  0  0  0  0  0  0  0  0  0
    3.7902    1.8834   22.4145 C   0  0  0  0  0  0  0  0  0  0  0  0
    4.5631    2.2953   21.2166 N   0  0  0  0  0  0  0  0  0  0  0  0
    5.9678    2.3168   21.6519 C   0  0  0  0  0  0  0  0  0  0  0  0
    6.1676    3.5090   22.5356 C   0  0  0  0  0  0  0  0  0  0  0  0
 34 35  1  0  0  0
 35 36  1  0  0  0
 36 37  1  0  0  0
 37 38  1  0  0  0
 38 33  1  0  0  0
 33 23  1  0  0  0
 23 24  2  0  0  0
 24 25  1  0  0  0
 25 26  2  0  0  0
 26  1  1  0  0  0
  1  2  1  0  0  0
  2  3  2  0  0  0
  2  5  1  0  0  0
  5  6  2  0  0  0
  6  7  1  0  0  0
  7  8  2  0  0  0
  8  9  1  0  0  0
  8 10  1  0  0  0
 10 11  2  0  0  0
 10 12  1  0  0  0
 12 13  3  0  0  0
 13 14  1  0  0  0
 14 15  1  0  0  0
 15 16  2  0  0  0
 16 17  1  0  0  0
 17 18  2  0  0  0
 18 19  1  0  0  0
 19 20  2  0  0  0
 20 21  1  0  0  0
 21 22  1  0  0  0
 26 27  1  0  0  0
 27 28  2  0  0  0
 28 29  1  0  0  0
 29 30  1  0  0  0
 29 31  1  0  0  0
 29 32  1  0  0  0
 38 39  1  0  0  0
 39 40  1  0  0  0
 40 35  1  0  0  0
 28 23  1  0  0  0
 11  5  1  0  0  0
 22 14  2  0  0  0
 21 17  1  0  0  0
  1  4  1  0  0  0
M  END
> <minimizedAffinity>
-8.77392

> <CNNscore>
0.2356786579

> <CNNaffinity>
6.3192839622

> <CNN_VS>
1.4893203974

> <CNNaffinity_variance>
0.1844870746

$$$$
[H]c1nc2c([H])c([H])nn2c([H])c1C#Cc1c([H])c(C(=O)N([H])c2c([H])c([H])c(C([H])([H])N3C([H])([H])C([H])([H])N(C([H])([H])[H])C([H])([H])C3([H])[H])c(C(F)(F)F)c2[H])c([H])c([H])c1C([H])([H])[H]


 40 44  0  0  0  0  0  0  0  0999 V2000
    4.1208    3.9020   17.1860 N   0  0  0  0  0  0  0  0  0  0  0  0
    2.9469    4.1797   16.5168 C   0  0  0  0  0  0  0  0  0  0  0  0
    2.0992    4.9843   16.9765 O   0  0  0  0  0  0  0  0  0  0  0  0
    4.7827    3.2042   16.6961 H   0  0  0  0  0  0  0  0  0  0  0  0
    2.6222    3.5481   15.2237 C   0  0  0  0  0  0  0  0  0  0  0  0
    3.3226    2.4828   14.7153 C   0  0  0  0  0  0  0  0  0  0  0  0
    2.9641    1.9619   13.5060 C   0  0  0  0  0  0  0  0  0  0  0  0
    1.9180    2.4928   12.8047 C   0  0  0  0  0  0  0  0  0  0  0  0
    1.4969    1.9413   11.4678 C   0  0  0  0  0  0  0  0  0  0  0  0
    1.1691    3.5699   13.2636 C   0  0  0  0  0  0  0  0  0  0  0  0
    1.5612    4.0678   14.4871 C   0  0  0  0  0  0  0  0  0  0  0  0
    0.0682    4.1332   12.5300 C   0  0  0  0  0  0  0  0  0  0  0  0
   -0.8641    4.5865   11.9082 C   0  0  0  0  0  0  0  0  0  0  0  0
   -1.9790    5.1017   11.1601 C   0  0  0  0  0  0  0  0  0  0  0  0
   -1.8562    5.4756    9.8371 C   0  0  0  0  0  0  0  0  0  0  0  0
   -2.9050    5.9577    9.1424 N   0  0  0  0  0  0  0  0  0  0  0  0
   -4.1203    6.0976    9.7036 C   0  0  0  0  0  0  0  0  0  0  0  0
   -5.3483    6.5613    9.2198 C   0  0  0  0  0  0  0  0  0  0  0  0
   -6.2250    6.4621   10.2781 C   0  0  0  0  0  0  0  0  0  0  0  0
   -5.5419    5.9733   11.3008 N   0  0  0  0  0  0  0  0  0  0  0  0
   -4.2775    5.7436   10.9910 N   0  0  0  0  0  0  0  0  0  0  0  0
   -3.2465    5.2581   11.7115 C   0  0  0  0  0  0  0  0  0  0  0  0
    5.4406    5.6227   20.8442 C   0  0  0  0  0  0  0  0  0  0  0  0
    5.7382    6.1702   19.5974 C   0  0  0  0  0  0  0  0  0  0  0  0
    5.3057    5.6156   18.4274 C   0  0  0  0  0  0  0  0  0  0  0  0
    4.5246    4.4441   18.4324 C   0  0  0  0  0  0  0  0  0  0  0  0
    4.2464    3.9277   19.6502 C   0  0  0  0  0  0  0  0  0  0  0  0
    4.6776    4.4759   20.8724 C   0  0  0  0  0  0  0  0  0  0  0  0
    4.3235    3.8320   22.1369 C   0  0  0  0  0  0  0  0  0  0  0  0
    3.4473    4.5303   22.9306 F   0  0  0  0  0  0  0  0  0  0  0  0
    3.6369    2.6337   21.8550 F   0  0  0  0  0  0  0  0  0  0  0  0
    5.4397    3.3742   22.8548 F   0  0  0  0  0  0  0  0  0  0  0  0
    5.8569    6.2161   22.1141 C   0  0  0  0  0  0  0  0  0  0  0  0
    8.0868    9.4398   20.7570 C   0  0  0  0  0  0  0  0  0  0  0  0
    7.8473    9.7227   22.1459 N   0  0  0  0  0  0  0  0  0  0  0  0
    6.4457    9.8377   22.4078 C   0  0  0  0  0  0  0  0  0  0  0  0
    5.7438    8.5741   22.0210 C   0  0  0  0  0  0  0  0  0  0  0  0
    6.6734    7.4179   21.9894 N   0  0  0  0  0  0  0  0  0  0  0  0
    7.5069    7.5594   23.1929 C   0  0  0  0  0  0  0  0  0  0  0  0
    8.4623    8.6910   22.9724 C   0  0  0  0  0  0  0  0  0  0  0  0
 34 35  1  0  0  0
 35 36  1  0  0  0
 36 37  1  0  0  0
 37 38  1  0  0  0
 38 33  1  0  0  0
 33 23  1  0  0  0
 23 24  2  0  0  0
 24 25  1  0  0  0
 25 26  2  0  0  0
 26  1  1  0  0  0
  1  2  1  0  0  0
  2  3  2  0  0  0
  2  5  1  0  0  0
  5  6  2  0  0  0
  6  7  1  0  0  0
  7  8  2  0  0  0
  8  9  1  0  0  0
  8 10  1  0  0  0
 10 11  2  0  0  0
 10 12  1  0  0  0
 12 13  3  0  0  0
 13 14  1  0  0  0
 14 15  1  0  0  0
 15 16  2  0  0  0
 16 17  1  0  0  0
 17 18  2  0  0  0
 18 19  1  0  0  0
 19 20  2  0  0  0
 20 21  1  0  0  0
 21 22  1  0  0  0
 26 27  1  0  0  0
 27 28  2  0  0  0
 28 29  1  0  0  0
 29 30  1  0  0  0
 29 31  1  0  0  0
 29 32  1  0  0  0
 38 39  1  0  0  0
 39 40  1  0  0  0
 40 35  1  0  0  0
 28 23  1  0  0  0
 11  5  1  0  0  0
 22 14  2  0  0  0
 21 17  1  0  0  0
  1  4  1  0  0  0
M  END
> <minimizedAffinity>
-9.08492

> <CNNscore>
0.2290403247

> <CNNaffinity>
6.2027654648

> <CNN_VS>
1.4206833839

> <CNNaffinity_variance>
0.1821597070

$$$$
[H]c1nc2c([H])c([H])nn2c([H])c1C#Cc1c([H])c(C(=O)N([H])c2c([H])c([H])c(C([H])([H])N3C([H])([H])C([H])([H])N(C([H])([H])[H])C([H])([H])C3([H])[H])c(C(F)(F)F)c2[H])c([H])c([H])c1C([H])([H])[H]


 40 44  0  0  0  0  0  0  0  0999 V2000
    4.5501    3.8165   15.3919 N   0  0  0  0  0  0  0  0  0  0  0  0
    3.3342    3.7445   14.7443 C   0  0  0  0  0  0  0  0  0  0  0  0
    2.2498    3.9148   15.3546 O   0  0  0  0  0  0  0  0  0  0  0  0
    5.4192    3.6649   14.7699 H   0  0  0  0  0  0  0  0  0  0  0  0
    3.2397    3.4649   13.2988 C   0  0  0  0  0  0  0  0  0  0  0  0
    2.7649    2.2791   12.7963 C   0  0  0  0  0  0  0  0  0  0  0  0
    2.7189    2.0956   11.4448 C   0  0  0  0  0  0  0  0  0  0  0  0
    3.1403    3.0807   10.5963 C   0  0  0  0  0  0  0  0  0  0  0  0
    3.1025    2.9100    9.1003 C   0  0  0  0  0  0  0  0  0  0  0  0
    3.6310    4.3027   11.0408 C   0  0  0  0  0  0  0  0  0  0  0  0
    3.6619    4.4501   12.4105 C   0  0  0  0  0  0  0  0  0  0  0  0
    4.0766    5.3423   10.1530 C   0  0  0  0  0  0  0  0  0  0  0  0
    4.4484    6.2028    9.3897 C   0  0  0  0  0  0  0  0  0  0  0  0
    4.8902    7.2090    8.4621 C   0  0  0  0  0  0  0  0  0  0  0  0
    4.5234    8.5330    8.5966 C   0  0  0  0  0  0  0  0  0  0  0  0
    4.9410    9.4703    7.7237 N   0  0  0  0  0  0  0  0  0  0  0  0
    5.7340    9.1619    6.6809 C   0  0  0  0  0  0  0  0  0  0  0  0
    6.2974    9.9230    5.6512 C   0  0  0  0  0  0  0  0  0  0  0  0
    7.0173    9.0334    4.8838 C   0  0  0  0  0  0  0  0  0  0  0  0
    6.8744    7.8407    5.4393 N   0  0  0  0  0  0  0  0  0  0  0  0
    6.1114    7.8818    6.5181 N   0  0  0  0  0  0  0  0  0  0  0  0
    5.7095    6.9219    7.3752 C   0  0  0  0  0  0  0  0  0  0  0  0
    5.2147    4.7234   19.4932 C   0  0  0  0  0  0  0  0  0  0  0  0
    5.2258    5.6917   18.4907 C   0  0  0  0  0  0  0  0  0  0  0  0
    5.0054    5.3939   17.1768 C   0  0  0  0  0  0  0  0  0  0  0  0
    4.7519    4.0692   16.7725 C   0  0  0  0  0  0  0  0  0  0  0  0
    4.7452    3.1443   17.7581 C   0  0  0  0  0  0  0  0  0  0  0  0
    4.9689    3.4203   19.1197 C   0  0  0  0  0  0  0  0  0  0  0  0
    4.9447    2.3407   20.1061 C   0  0  0  0  0  0  0  0  0  0  0  0
    3.8684    2.3435   20.9589 F   0  0  0  0  0  0  0  0  0  0  0  0
    4.8287    1.1118   19.4256 F   0  0  0  0  0  0  0  0  0  0  0  0
    6.1618    2.1896   20.7891 F   0  0  0  0  0  0  0  0  0  0  0  0
    5.4085    5.0185   20.9122 C   0  0  0  0  0  0  0  0  0  0  0  0
    8.6211    7.6408   20.8149 C   0  0  0  0  0  0  0  0  0  0  0  0
    8.4761    7.2953   22.2027 N   0  0  0  0  0  0  0  0  0  0  0  0
    7.1951    7.6971   22.6963 C   0  0  0  0  0  0  0  0  0  0  0  0
    6.1085    7.0484   21.8977 C   0  0  0  0  0  0  0  0  0  0  0  0
    6.5877    5.8214   21.2146 N   0  0  0  0  0  0  0  0  0  0  0  0
    7.4050    5.1170   22.2141 C   0  0  0  0  0  0  0  0  0  0  0  0
    8.6921    5.8642   22.3797 C   0  0  0  0  0  0  0  0  0  0  0  0
 34 35  1  0  0  0
 35 36  1  0  0  0
 36 37  1  0  0  0
 37 38  1  0  0  0
 38 33  1  0  0  0
 33 23  1  0  0  0
 23 24  2  0  0  0
 24 25  1  0  0  0
 25 26  2  0  0  0
 26  1  1  0  0  0
  1  2  1  0  0  0
  2  3  2  0  0  0
  2  5  1  0  0  0
  5  6  2  0  0  0
  6  7  1  0  0  0
  7  8  2  0  0  0
  8  9  1  0  0  0
  8 10  1  0  0  0
 10 11  2  0  0  0
 10 12  1  0  0  0
 12 13  3  0  0  0
 13 14  1  0  0  0
 14 15  1  0  0  0
 15 16  2  0  0  0
 16 17  1  0  0  0
 17 18  2  0  0  0
 18 19  1  0  0  0
 19 20  2  0  0  0
 20 21  1  0  0  0
 21 22  1  0  0  0
 26 27  1  0  0  0
 27 28  2  0  0  0
 28 29  1  0  0  0
 29 30  1  0  0  0
 29 31  1  0  0  0
 29 32  1  0  0  0
 38 39  1  0  0  0
 39 40  1  0  0  0
 40 35  1  0  0  0
 28 23  1  0  0  0
 11  5  1  0  0  0
 22 14  2  0  0  0
 21 17  1  0  0  0
  1  4  1  0  0  0
M  END
> <minimizedAffinity>
-8.54086

> <CNNscore>
0.2120239735

> <CNNaffinity>
5.9602060318

> <CNN_VS>
1.2637065649

> <CNNaffinity_variance>
0.2235408574

$$$$
[H]c1nc2c([H])c([H])nn2c([H])c1C#Cc1c([H])c(C(=O)N([H])c2c([H])c([H])c(C([H])([H])N3C([H])([H])C([H])([H])N(C([H])([H])[H])C([H])([H])C3([H])[H])c(C(F)(F)F)c2[H])c([H])c([H])c1C([H])([H])[H]


 40 44  0  0  0  0  0  0  0  0999 V2000
    3.2942    7.1131   16.0087 N   0  0  0  0  0  0  0  0  0  0  0  0
    3.9040    7.3738   14.7992 C   0  0  0  0  0  0  0  0  0  0  0  0
    5.0027    7.9784   14.7302 O   0  0  0  0  0  0  0  0  0  0  0  0
    2.3582    6.5784   15.9532 H   0  0  0  0  0  0  0  0  0  0  0  0
    3.3005    6.9562   13.5193 C   0  0  0  0  0  0  0  0  0  0  0  0
    2.1994    6.1402   13.4431 C   0  0  0  0  0  0  0  0  0  0  0  0
    1.7078    5.7921   12.2186 C   0  0  0  0  0  0  0  0  0  0  0  0
    2.3031    6.2497   11.0765 C   0  0  0  0  0  0  0  0  0  0  0  0
    1.7855    5.8843    9.7101 C   0  0  0  0  0  0  0  0  0  0  0  0
    3.4192    7.0780   11.0852 C   0  0  0  0  0  0  0  0  0  0  0  0
    3.8857    7.4070   12.3393 C   0  0  0  0  0  0  0  0  0  0  0  0
    4.0502    7.5617    9.8872 C   0  0  0  0  0  0  0  0  0  0  0  0
    4.5936    7.9812    8.8922 C   0  0  0  0  0  0  0  0  0  0  0  0
    5.2530    8.4975    7.7232 C   0  0  0  0  0  0  0  0  0  0  0  0
    5.2855    9.8490    7.4441 C   0  0  0  0  0  0  0  0  0  0  0  0
    5.9050   10.3256    6.3469 N   0  0  0  0  0  0  0  0  0  0  0  0
    6.5207    9.5090    5.4719 C   0  0  0  0  0  0  0  0  0  0  0  0
    7.2213    9.7369    4.2827 C   0  0  0  0  0  0  0  0  0  0  0  0
    7.6165    8.4931    3.8410 C   0  0  0  0  0  0  0  0  0  0  0  0
    7.1703    7.6112    4.7211 N   0  0  0  0  0  0  0  0  0  0  0  0
    6.5094    8.1861    5.7112 N   0  0  0  0  0  0  0  0  0  0  0  0
    5.8976    7.6798    6.8007 C   0  0  0  0  0  0  0  0  0  0  0  0
    4.6924    8.0635   19.9109 C   0  0  0  0  0  0  0  0  0  0  0  0
    4.2588    6.7890   19.5499 C   0  0  0  0  0  0  0  0  0  0  0  0
    3.8172    6.4898   18.2933 C   0  0  0  0  0  0  0  0  0  0  0  0
    3.7815    7.4767   17.2897 C   0  0  0  0  0  0  0  0  0  0  0  0
    4.2054    8.7062   17.6582 C   0  0  0  0  0  0  0  0  0  0  0  0
    4.6656    9.0448   18.9442 C   0  0  0  0  0  0  0  0  0  0  0  0
    5.0973   10.4108   19.2385 C   0  0  0  0  0  0  0  0  0  0  0  0
    4.6954   10.9087   20.4534 F   0  0  0  0  0  0  0  0  0  0  0  0
    6.5045   10.4308   19.3182 F   0  0  0  0  0  0  0  0  0  0  0  0
    4.8454   11.3078   18.1884 F   0  0  0  0  0  0  0  0  0  0  0  0
    5.2070    8.4032   21.2368 C   0  0  0  0  0  0  0  0  0  0  0  0
    9.2747    7.6207   21.0188 C   0  0  0  0  0  0  0  0  0  0  0  0
    8.9329    7.3859   22.3952 N   0  0  0  0  0  0  0  0  0  0  0  0
    8.4303    8.5779   23.0056 C   0  0  0  0  0  0  0  0  0  0  0  0
    7.2280    9.0697   22.2630 C   0  0  0  0  0  0  0  0  0  0  0  0
    6.5812    7.9837   21.4856 N   0  0  0  0  0  0  0  0  0  0  0  0
    6.5727    6.8186   22.3832 C   0  0  0  0  0  0  0  0  0  0  0  0
    7.9713    6.2935   22.4848 C   0  0  0  0  0  0  0  0  0  0  0  0
 34 35  1  0  0  0
 35 36  1  0  0  0
 36 37  1  0  0  0
 37 38  1  0  0  0
 38 33  1  0  0  0
 33 23  1  0  0  0
 23 24  2  0  0  0
 24 25  1  0  0  0
 25 26  2  0  0  0
 26  1  1  0  0  0
  1  2  1  0  0  0
  2  3  2  0  0  0
  2  5  1  0  0  0
  5  6  2  0  0  0
  6  7  1  0  0  0
  7  8  2  0  0  0
  8  9  1  0  0  0
  8 10  1  0  0  0
 10 11  2  0  0  0
 10 12  1  0  0  0
 12 13  3  0  0  0
 13 14  1  0  0  0
 14 15  1  0  0  0
 15 16  2  0  0  0
 16 17  1  0  0  0
 17 18  2  0  0  0
 18 19  1  0  0  0
 19 20  2  0  0  0
 20 21  1  0  0  0
 21 22  1  0  0  0
 26 27  1  0  0  0
 27 28  2  0  0  0
 28 29  1  0  0  0
 29 30  1  0  0  0
 29 31  1  0  0  0
 29 32  1  0  0  0
 38 39  1  0  0  0
 39 40  1  0  0  0
 40 35  1  0  0  0
 28 23  1  0  0  0
 11  5  1  0  0  0
 22 14  2  0  0  0
 21 17  1  0  0  0
  1  4  1  0  0  0
M  END
> <minimizedAffinity>
-7.93654

> <CNNscore>
0.2032843530

> <CNNaffinity>
5.3878760338

> <CNN_VS>
1.0952708721

> <CNNaffinity_variance>
0.4063535631

$$$$
[H]c1nc2c([H])c([H])nn2c([H])c1C#Cc1c([H])c(C(=O)N([H])c2c([H])c([H])c(C([H])([H])N3C([H])([H])C([H])([H])N(C([H])([H])[H])C([H])([H])C3([H])[H])c(C(F)(F)F)c2[H])c([H])c([H])c1C([H])([H])[H]


 40 44  0  0  0  0  0  0  0  0999 V2000
    6.1025    4.3770   21.3570 N   0  0  0  0  0  0  0  0  0  0  0  0
    5.6980    3.1545   21.8518 C   0  0  0  0  0  0  0  0  0  0  0  0
    6.0004    2.7785   23.0113 O   0  0  0  0  0  0  0  0  0  0  0  0
    5.7782    4.6040   20.3528 H   0  0  0  0  0  0  0  0  0  0  0  0
    4.8868    2.2212   21.0471 C   0  0  0  0  0  0  0  0  0  0  0  0
    4.3237    1.0818   21.5656 C   0  0  0  0  0  0  0  0  0  0  0  0
    3.5945    0.2652   20.7510 C   0  0  0  0  0  0  0  0  0  0  0  0
    3.4237    0.5754   19.4308 C   0  0  0  0  0  0  0  0  0  0  0  0
    2.6248   -0.3042   18.5053 C   0  0  0  0  0  0  0  0  0  0  0  0
    3.9668    1.7128   18.8450 C   0  0  0  0  0  0  0  0  0  0  0  0
    4.6959    2.5115   19.6989 C   0  0  0  0  0  0  0  0  0  0  0  0
    3.7914    2.0438   17.4568 C   0  0  0  0  0  0  0  0  0  0  0  0
    3.6403    2.3430   16.2954 C   0  0  0  0  0  0  0  0  0  0  0  0
    3.4531    2.7229   14.9211 C   0  0  0  0  0  0  0  0  0  0  0  0
    3.9569    3.9058   14.4187 C   0  0  0  0  0  0  0  0  0  0  0  0
    3.7776    4.2553   13.1301 N   0  0  0  0  0  0  0  0  0  0  0  0
    3.1002    3.4698   12.2723 C   0  0  0  0  0  0  0  0  0  0  0  0
    2.7769    3.5920   10.9167 C   0  0  0  0  0  0  0  0  0  0  0  0
    2.0636    2.4560   10.6019 C   0  0  0  0  0  0  0  0  0  0  0  0
    1.9844    1.7314   11.7065 N   0  0  0  0  0  0  0  0  0  0  0  0
    2.5950    2.3097   12.7264 N   0  0  0  0  0  0  0  0  0  0  0  0
    2.7583    1.9332   14.0107 C   0  0  0  0  0  0  0  0  0  0  0  0
    8.3344    7.3741   23.3872 C   0  0  0  0  0  0  0  0  0  0  0  0
    6.9637    7.4756   23.1550 C   0  0  0  0  0  0  0  0  0  0  0  0
    6.2527    6.5063   22.5080 C   0  0  0  0  0  0  0  0  0  0  0  0
    6.8878    5.3402   22.0397 C   0  0  0  0  0  0  0  0  0  0  0  0
    8.2167    5.2596   22.2736 C   0  0  0  0  0  0  0  0  0  0  0  0
    8.9762    6.2412   22.9369 C   0  0  0  0  0  0  0  0  0  0  0  0
   10.4136    6.0557   23.1330 C   0  0  0  0  0  0  0  0  0  0  0  0
   10.8076    5.8179   24.4268 F   0  0  0  0  0  0  0  0  0  0  0  0
   10.8160    4.8947   22.4424 F   0  0  0  0  0  0  0  0  0  0  0  0
   11.1878    7.0521   22.5178 F   0  0  0  0  0  0  0  0  0  0  0  0
    9.1139    8.3773   24.1110 C   0  0  0  0  0  0  0  0  0  0  0  0
    7.5436   11.9523   22.7108 C   0  0  0  0  0  0  0  0  0  0  0  0
    8.8144   12.3114   23.2786 N   0  0  0  0  0  0  0  0  0  0  0  0
    8.8528   12.0053   24.6754 C   0  0  0  0  0  0  0  0  0  0  0  0
    8.5970   10.5468   24.8907 C   0  0  0  0  0  0  0  0  0  0  0  0
    8.8980    9.7518   23.6744 N   0  0  0  0  0  0  0  0  0  0  0  0
   10.1635   10.2969   23.1600 C   0  0  0  0  0  0  0  0  0  0  0  0
    9.8859   11.6380   22.5545 C   0  0  0  0  0  0  0  0  0  0  0  0
 34 35  1  0  0  0
 35 36  1  0  0  0
 36 37  1  0  0  0
 37 38  1  0  0  0
 38 33  1  0  0  0
 33 23  1  0  0  0
 23 24  2  0  0  0
 24 25  1  0  0  0
 25 26  2  0  0  0
 26  1  1  0  0  0
  1  2  1  0  0  0
  2  3  2  0  0  0
  2  5  1  0  0  0
  5  6  2  0  0  0
  6  7  1  0  0  0
  7  8  2  0  0  0
  8  9  1  0  0  0
  8 10  1  0  0  0
 10 11  2  0  0  0
 10 12  1  0  0  0
 12 13  3  0  0  0
 13 14  1  0  0  0
 14 15  1  0  0  0
 15 16  2  0  0  0
 16 17  1  0  0  0
 17 18  2  0  0  0
 18 19  1  0  0  0
 19 20  2  0  0  0
 20 21  1  0  0  0
 21 22  1  0  0  0
 26 27  1  0  0  0
 27 28  2  0  0  0
 28 29  1  0  0  0
 29 30  1  0  0  0
 29 31  1  0  0  0
 29 32  1  0  0  0
 38 39  1  0  0  0
 39 40  1  0  0  0
 40 35  1  0  0  0
 28 23  1  0  0  0
 11  5  1  0  0  0
 22 14  2  0  0  0
 21 17  1  0  0  0
  1  4  1  0  0  0
M  END
> <minimizedAffinity>
-9.15909

> <CNNscore>
0.2026642114

> <CNNaffinity>
6.6150894165

> <CNN_VS>
1.3406418562

> <CNNaffinity_variance>
0.0328664035

$$$$
[H]c1nc2c([H])c([H])nn2c([H])c1C#Cc1c([H])c(C(=O)N([H])c2c([H])c([H])c(C([H])([H])N3C([H])([H])C([H])([H])N(C([H])([H])[H])C([H])([H])C3([H])[H])c(C(F)(F)F)c2[H])c([H])c([H])c1C([H])([H])[H]


 40 44  0  0  0  0  0  0  0  0999 V2000
    3.7092    2.4953   15.5460 N   0  0  0  0  0  0  0  0  0  0  0  0
    2.7174    3.1595   14.8546 C   0  0  0  0  0  0  0  0  0  0  0  0
    2.0510    4.0845   15.3815 O   0  0  0  0  0  0  0  0  0  0  0  0
    4.2262    1.7249   14.9943 H   0  0  0  0  0  0  0  0  0  0  0  0
    2.3849    2.8214   13.4575 C   0  0  0  0  0  0  0  0  0  0  0  0
    3.1358    1.9592   12.6980 C   0  0  0  0  0  0  0  0  0  0  0  0
    2.7654    1.7065   11.4091 C   0  0  0  0  0  0  0  0  0  0  0  0
    1.6578    2.3040   10.8759 C   0  0  0  0  0  0  0  0  0  0  0  0
    1.2220    2.0464    9.4573 C   0  0  0  0  0  0  0  0  0  0  0  0
    0.8559    3.1854   11.5912 C   0  0  0  0  0  0  0  0  0  0  0  0
    1.2619    3.4151   12.8877 C   0  0  0  0  0  0  0  0  0  0  0  0
   -0.3098    3.8176   11.0353 C   0  0  0  0  0  0  0  0  0  0  0  0
   -1.2924    4.3604   10.5866 C   0  0  0  0  0  0  0  0  0  0  0  0
   -2.4657    5.0167   10.0762 C   0  0  0  0  0  0  0  0  0  0  0  0
   -2.3875    5.9928    9.1033 C   0  0  0  0  0  0  0  0  0  0  0  0
   -3.4909    6.6036    8.6298 N   0  0  0  0  0  0  0  0  0  0  0  0
   -4.7200    6.2924    9.0816 C   0  0  0  0  0  0  0  0  0  0  0  0
   -6.0001    6.7619    8.7687 C   0  0  0  0  0  0  0  0  0  0  0  0
   -6.8630    6.0501    9.5730 C   0  0  0  0  0  0  0  0  0  0  0  0
   -6.1236    5.2269   10.2990 N   0  0  0  0  0  0  0  0  0  0  0  0
   -4.8349    5.3461   10.0296 N   0  0  0  0  0  0  0  0  0  0  0  0
   -3.7488    4.7175   10.5226 C   0  0  0  0  0  0  0  0  0  0  0  0
    4.9843    3.3296   19.5162 C   0  0  0  0  0  0  0  0  0  0  0  0
    5.2229    4.1904   18.4461 C   0  0  0  0  0  0  0  0  0  0  0  0
    4.8049    3.9187   17.1753 C   0  0  0  0  0  0  0  0  0  0  0  0
    4.1007    2.7338   16.8877 C   0  0  0  0  0  0  0  0  0  0  0  0
    3.8790    1.9117   17.9375 C   0  0  0  0  0  0  0  0  0  0  0  0
    4.2970    2.1640   19.2572 C   0  0  0  0  0  0  0  0  0  0  0  0
    4.0087    1.2019   20.3203 C   0  0  0  0  0  0  0  0  0  0  0  0
    3.2541    1.6815   21.3625 F   0  0  0  0  0  0  0  0  0  0  0  0
    3.2190    0.1639   19.7859 F   0  0  0  0  0  0  0  0  0  0  0  0
    5.1477    0.5117   20.7642 F   0  0  0  0  0  0  0  0  0  0  0  0
    5.3854    3.6126   20.8936 C   0  0  0  0  0  0  0  0  0  0  0  0
    7.3155    7.2506   20.3972 C   0  0  0  0  0  0  0  0  0  0  0  0
    7.2173    7.0829   21.8215 N   0  0  0  0  0  0  0  0  0  0  0  0
    5.8491    7.0099   22.2324 C   0  0  0  0  0  0  0  0  0  0  0  0
    5.1632    5.8738   21.5412 C   0  0  0  0  0  0  0  0  0  0  0  0
    6.1319    4.8527   21.0709 N   0  0  0  0  0  0  0  0  0  0  0  0
    7.0851    4.6855   22.1785 C   0  0  0  0  0  0  0  0  0  0  0  0
    7.9620    5.8981   22.2308 C   0  0  0  0  0  0  0  0  0  0  0  0
 34 35  1  0  0  0
 35 36  1  0  0  0
 36 37  1  0  0  0
 37 38  1  0  0  0
 38 33  1  0  0  0
 33 23  1  0  0  0
 23 24  2  0  0  0
 24 25  1  0  0  0
 25 26  2  0  0  0
 26  1  1  0  0  0
  1  2  1  0  0  0
  2  3  2  0  0  0
  2  5  1  0  0  0
  5  6  2  0  0  0
  6  7  1  0  0  0
  7  8  2  0  0  0
  8  9  1  0  0  0
  8 10  1  0  0  0
 10 11  2  0  0  0
 10 12  1  0  0  0
 12 13  3  0  0  0
 13 14  1  0  0  0
 14 15  1  0  0  0
 15 16  2  0  0  0
 16 17  1  0  0  0
 17 18  2  0  0  0
 18 19  1  0  0  0
 19 20  2  0  0  0
 20 21  1  0  0  0
 21 22  1  0  0  0
 26 27  1  0  0  0
 27 28  2  0  0  0
 28 29  1  0  0  0
 29 30  1  0  0  0
 29 31  1  0  0  0
 29 32  1  0  0  0
 38 39  1  0  0  0
 39 40  1  0  0  0
 40 35  1  0  0  0
 28 23  1  0  0  0
 11  5  1  0  0  0
 22 14  2  0  0  0
 21 17  1  0  0  0
  1  4  1  0  0  0
M  END
> <minimizedAffinity>
-8.55853

> <CNNscore>
0.1879582256

> <CNNaffinity>
6.3112015724

> <CNN_VS>
1.1862422228

> <CNNaffinity_variance>
0.3380881250

$$$$
[H]c1nc2c([H])c([H])nn2c([H])c1C#Cc1c([H])c(C(=O)N([H])c2c([H])c([H])c(C([H])([H])N3C([H])([H])C([H])([H])N(C([H])([H])[H])C([H])([H])C3([H])[H])c(C(F)(F)F)c2[H])c([H])c([H])c1C([H])([H])[H]


 40 44  0  0  0  0  0  0  0  0999 V2000
    5.4018    6.9450   17.3433 N   0  0  0  0  0  0  0  0  0  0  0  0
    4.5303    7.9608   17.0093 C   0  0  0  0  0  0  0  0  0  0  0  0
    4.1956    8.8430   17.8382 O   0  0  0  0  0  0  0  0  0  0  0  0
    5.6294    6.2471   16.5519 H   0  0  0  0  0  0  0  0  0  0  0  0
    3.9436    8.0682   15.6599 C   0  0  0  0  0  0  0  0  0  0  0  0
    3.4263    9.2375   15.1606 C   0  0  0  0  0  0  0  0  0  0  0  0
    2.8924    9.2507   13.9048 C   0  0  0  0  0  0  0  0  0  0  0  0
    2.8713    8.1126   13.1481 C   0  0  0  0  0  0  0  0  0  0  0  0
    2.2896    8.0935   11.7588 C   0  0  0  0  0  0  0  0  0  0  0  0
    3.3784    6.8981   13.5947 C   0  0  0  0  0  0  0  0  0  0  0  0
    3.9084    6.9249   14.8663 C   0  0  0  0  0  0  0  0  0  0  0  0
    3.3580    5.6976   12.8036 C   0  0  0  0  0  0  0  0  0  0  0  0
    3.3606    4.6936   12.1303 C   0  0  0  0  0  0  0  0  0  0  0  0
    3.3853    3.5076   11.3175 C   0  0  0  0  0  0  0  0  0  0  0  0
    2.5477    2.4388   11.5655 C   0  0  0  0  0  0  0  0  0  0  0  0
    2.5764    1.3307   10.7999 N   0  0  0  0  0  0  0  0  0  0  0  0
    3.4212    1.2125    9.7587 C   0  0  0  0  0  0  0  0  0  0  0  0
    3.6507    0.1962    8.8252 C   0  0  0  0  0  0  0  0  0  0  0  0
    4.6482    0.6685    8.0006 C   0  0  0  0  0  0  0  0  0  0  0  0
    4.9683    1.8770    8.4349 N   0  0  0  0  0  0  0  0  0  0  0  0
    4.2521    2.2339    9.4872 N   0  0  0  0  0  0  0  0  0  0  0  0
    4.2463    3.3554   10.2355 C   0  0  0  0  0  0  0  0  0  0  0  0
    7.3685    6.4211   21.0773 C   0  0  0  0  0  0  0  0  0  0  0  0
    7.8249    7.2997   20.0962 C   0  0  0  0  0  0  0  0  0  0  0  0
    7.1847    7.4672   18.9022 C   0  0  0  0  0  0  0  0  0  0  0  0
    6.0125    6.7450   18.6072 C   0  0  0  0  0  0  0  0  0  0  0  0
    5.5853    5.8981   19.5701 C   0  0  0  0  0  0  0  0  0  0  0  0
    6.2231    5.7039   20.8094 C   0  0  0  0  0  0  0  0  0  0  0  0
    5.6778    4.7559   21.7805 C   0  0  0  0  0  0  0  0  0  0  0  0
    5.0977    5.3164   22.8917 F   0  0  0  0  0  0  0  0  0  0  0  0
    4.6213    4.0474   21.1734 F   0  0  0  0  0  0  0  0  0  0  0  0
    6.5745    3.7279   22.1120 F   0  0  0  0  0  0  0  0  0  0  0  0
    8.0110    6.2502   22.3796 C   0  0  0  0  0  0  0  0  0  0  0  0
    8.7867   10.1965   23.3953 C   0  0  0  0  0  0  0  0  0  0  0  0
    8.7333    9.5016   24.6525 N   0  0  0  0  0  0  0  0  0  0  0  0
    7.4448    8.9145   24.8555 C   0  0  0  0  0  0  0  0  0  0  0  0
    7.1284    7.9677   23.7408 C   0  0  0  0  0  0  0  0  0  0  0  0
    8.3578    7.4933   23.0586 N   0  0  0  0  0  0  0  0  0  0  0  0
    9.3109    7.2003   24.1397 C   0  0  0  0  0  0  0  0  0  0  0  0
    9.7914    8.4999   24.7075 C   0  0  0  0  0  0  0  0  0  0  0  0
 34 35  1  0  0  0
 35 36  1  0  0  0
 36 37  1  0  0  0
 37 38  1  0  0  0
 38 33  1  0  0  0
 33 23  1  0  0  0
 23 24  2  0  0  0
 24 25  1  0  0  0
 25 26  2  0  0  0
 26  1  1  0  0  0
  1  2  1  0  0  0
  2  3  2  0  0  0
  2  5  1  0  0  0
  5  6  2  0  0  0
  6  7  1  0  0  0
  7  8  2  0  0  0
  8  9  1  0  0  0
  8 10  1  0  0  0
 10 11  2  0  0  0
 10 12  1  0  0  0
 12 13  3  0  0  0
 13 14  1  0  0  0
 14 15  1  0  0  0
 15 16  2  0  0  0
 16 17  1  0  0  0
 17 18  2  0  0  0
 18 19  1  0  0  0
 19 20  2  0  0  0
 20 21  1  0  0  0
 21 22  1  0  0  0
 26 27  1  0  0  0
 27 28  2  0  0  0
 28 29  1  0  0  0
 29 30  1  0  0  0
 29 31  1  0  0  0
 29 32  1  0  0  0
 38 39  1  0  0  0
 39 40  1  0  0  0
 40 35  1  0  0  0
 28 23  1  0  0  0
 11  5  1  0  0  0
 22 14  2  0  0  0
 21 17  1  0  0  0
  1  4  1  0  0  0
M  END
> <minimizedAffinity>
-7.74501

> <CNNscore>
0.1852330863

> <CNNaffinity>
5.9814610481

> <CNN_VS>
1.1079645157

> <CNNaffinity_variance>
0.6720584035

$$$$
[H]c1nc(N([H])[H])nc([H])c1C#Cc1c([H])c(C(=O)N([H])c2c([H])c([H])c(C([H])([H])N3C([H])([H])C([H])([H])N(C([H])([H])[H])C([H])([H])C3([H])[H])c(C(F)(F)F)c2[H])c([H])c([H])c1C([H])([H])[H]


 40 43  0  0  0  0  0  0  0  0999 V2000
    3.4898    2.4474   16.9643 N   0  0  0  0  0  0  0  0  0  0  0  0
    3.6361    1.3585   17.8194 C   0  0  0  0  0  0  0  0  0  0  0  0
    3.3600    0.2343   17.6068 O   0  0  0  0  0  0  0  0  0  0  0  0
    3.5640    3.3822   17.6481 H   0  0  0  0  0  0  0  0  0  0  0  0
    4.2577    1.8411   19.1045 C   0  0  0  0  0  0  0  0  0  0  0  0
    4.3490    0.7550   20.0335 C   0  0  0  0  0  0  0  0  0  0  0  0
    4.8928    0.9173   21.2554 C   0  0  0  0  0  0  0  0  0  0  0  0
    5.3524    2.1582   21.5783 C   0  0  0  0  0  0  0  0  0  0  0  0
    6.0120    2.3667   22.8574 C   0  0  0  0  0  0  0  0  0  0  0  0
    5.2640    3.2715   20.6747 C   0  0  0  0  0  0  0  0  0  0  0  0
    4.7117    3.0472   19.4471 C   0  0  0  0  0  0  0  0  0  0  0  0
    5.6649    4.5025   21.2219 C   0  0  0  0  0  0  0  0  0  0  0  0
    5.8986    5.6052   21.6188 C   0  0  0  0  0  0  0  0  0  0  0  0
    6.0418    6.9688   21.9994 C   0  0  0  0  0  0  0  0  0  0  0  0
    7.1341    7.3415   22.8025 C   0  0  0  0  0  0  0  0  0  0  0  0
    7.3737    8.6106   23.1078 N   0  0  0  0  0  0  0  0  0  0  0  0
    6.5925    9.6180   22.6747 C   0  0  0  0  0  0  0  0  0  0  0  0
    6.8923   10.9549   23.0084 N   0  0  0  0  0  0  0  0  0  0  0  0
    5.5437    9.2804   21.9088 N   0  0  0  0  0  0  0  0  0  0  0  0
    5.2576    7.9885   21.5649 C   0  0  0  0  0  0  0  0  0  0  0  0
    6.2407   11.5099   23.5892 H   0  0  0  0  0  0  0  0  0  0  0  0
    7.7594   11.4236   22.6742 H   0  0  0  0  0  0  0  0  0  0  0  0
    2.9233    4.1110   13.1381 C   0  0  0  0  0  0  0  0  0  0  0  0
    2.9251    2.7338   13.2721 C   0  0  0  0  0  0  0  0  0  0  0  0
    3.0610    2.1091   14.5280 C   0  0  0  0  0  0  0  0  0  0  0  0
    3.2047    2.8062   15.6773 C   0  0  0  0  0  0  0  0  0  0  0  0
    3.2042    4.2452   15.4962 C   0  0  0  0  0  0  0  0  0  0  0  0
    3.0755    4.8653   14.3099 C   0  0  0  0  0  0  0  0  0  0  0  0
    3.2751    6.3333   14.2172 C   0  0  0  0  0  0  0  0  0  0  0  0
    4.2372    6.8516   13.4624 F   0  0  0  0  0  0  0  0  0  0  0  0
    3.3221    6.8262   15.5823 F   0  0  0  0  0  0  0  0  0  0  0  0
    2.0499    6.8922   13.7906 F   0  0  0  0  0  0  0  0  0  0  0  0
    2.4896    4.8538   11.9757 C   0  0  0  0  0  0  0  0  0  0  0  0
    6.3961    5.9890    9.3894 C   0  0  0  0  0  0  0  0  0  0  0  0
    5.1790    5.3731    8.9044 N   0  0  0  0  0  0  0  0  0  0  0  0
    4.0592    6.2547    8.9075 C   0  0  0  0  0  0  0  0  0  0  0  0
    3.4945    6.4669   10.3530 C   0  0  0  0  0  0  0  0  0  0  0  0
    3.1976    5.2710   10.9224 N   0  0  0  0  0  0  0  0  0  0  0  0
    4.4481    4.4472   10.9452 C   0  0  0  0  0  0  0  0  0  0  0  0
    4.9103    4.1179    9.5823 C   0  0  0  0  0  0  0  0  0  0  0  0
 34 35  1  0  0  0
 35 36  1  0  0  0
 36 37  1  0  0  0
 37 38  1  0  0  0
 38 33  1  0  0  0
 33 23  1  0  0  0
 23 24  2  0  0  0
 24 25  1  0  0  0
 25 26  2  0  0  0
 26  1  1  0  0  0
  1  2  1  0  0  0
  2  3  2  0  0  0
  2  5  1  0  0  0
  5  6  2  0  0  0
  6  7  1  0  0  0
  7  8  2  0  0  0
  8  9  1  0  0  0
  8 10  1  0  0  0
 10 11  2  0  0  0
 10 12  1  0  0  0
 12 13  3  0  0  0
 13 14  1  0  0  0
 14 15  2  0  0  0
 15 16  1  0  0  0
 16 17  2  0  0  0
 17 18  1  0  0  0
 17 19  1  0  0  0
 19 20  2  0  0  0
 26 27  1  0  0  0
 27 28  2  0  0  0
 28 29  1  0  0  0
 29 30  1  0  0  0
 29 31  1  0  0  0
 29 32  1  0  0  0
 38 39  1  0  0  0
 39 40  1  0  0  0
 40 35  1  0  0  0
 28 23  1  0  0  0
 11  5  1  0  0  0
 20 14  1  0  0  0
  1  4  1  0  0  0
 18 21  1  0  0  0
 18 22  1  0  0  0
M  END
> <minimizedAffinity>
-8.85740

> <CNNscore>
0.3094446361

> <CNNaffinity>
6.4112443924

> <CNN_VS>
1.9839252234

> <CNNaffinity_variance>
0.6286582351

$$$$
[H]c1nc(N([H])[H])nc([H])c1C#Cc1c([H])c(C(=O)N([H])c2c([H])c([H])c(C([H])([H])N3C([H])([H])C([H])([H])N(C([H])([H])[H])C([H])([H])C3([H])[H])c(C(F)(F)F)c2[H])c([H])c([H])c1C([H])([H])[H]


 40 43  0  0  0  0  0  0  0  0999 V2000
    4.0057    3.3101   16.7714 N   0  0  0  0  0  0  0  0  0  0  0  0
    4.1587    2.1395   17.5095 C   0  0  0  0  0  0  0  0  0  0  0  0
    3.9800    1.0334   17.1497 O   0  0  0  0  0  0  0  0  0  0  0  0
    3.9590    4.1613   17.5589 H   0  0  0  0  0  0  0  0  0  0  0  0
    4.6397    2.5053   18.8899 C   0  0  0  0  0  0  0  0  0  0  0  0
    4.5361    1.3677   19.7537 C   0  0  0  0  0  0  0  0  0  0  0  0
    4.9266    1.4238   21.0419 C   0  0  0  0  0  0  0  0  0  0  0  0
    5.4233    2.6078   21.4964 C   0  0  0  0  0  0  0  0  0  0  0  0
    5.9242    2.6980   22.8587 C   0  0  0  0  0  0  0  0  0  0  0  0
    5.5284    3.7709   20.6599 C   0  0  0  0  0  0  0  0  0  0  0  0
    5.1260    3.6540   19.3611 C   0  0  0  0  0  0  0  0  0  0  0  0
    5.9373    4.9376   21.3286 C   0  0  0  0  0  0  0  0  0  0  0  0
    6.1913    5.9970   21.8198 C   0  0  0  0  0  0  0  0  0  0  0  0
    6.3750    7.3237   22.3003 C   0  0  0  0  0  0  0  0  0  0  0  0
    7.3465    7.5627   23.2883 C   0  0  0  0  0  0  0  0  0  0  0  0
    7.6300    8.7907   23.7042 N   0  0  0  0  0  0  0  0  0  0  0  0
    7.0104    9.8808   23.2140 C   0  0  0  0  0  0  0  0  0  0  0  0
    7.3537   11.1697   23.6716 N   0  0  0  0  0  0  0  0  0  0  0  0
    6.0783    9.6713   22.2717 N   0  0  0  0  0  0  0  0  0  0  0  0
    5.7535    8.4264   21.8090 C   0  0  0  0  0  0  0  0  0  0  0  0
    6.6605   11.7506   24.1737 H   0  0  0  0  0  0  0  0  0  0  0  0
    8.2973   11.5774   23.5088 H   0  0  0  0  0  0  0  0  0  0  0  0
    2.8821    4.3855   12.8587 C   0  0  0  0  0  0  0  0  0  0  0  0
    3.5364    5.3182   13.6440 C   0  0  0  0  0  0  0  0  0  0  0  0
    3.9841    5.0120   14.9447 C   0  0  0  0  0  0  0  0  0  0  0  0
    3.8005    3.7990   15.5123 C   0  0  0  0  0  0  0  0  0  0  0  0
    3.1065    2.8509   14.6621 C   0  0  0  0  0  0  0  0  0  0  0  0
    2.6702    3.1178   13.4183 C   0  0  0  0  0  0  0  0  0  0  0  0
    1.8102    2.1370   12.7098 C   0  0  0  0  0  0  0  0  0  0  0  0
    2.2604    1.4562   11.6621 F   0  0  0  0  0  0  0  0  0  0  0  0
    0.5605    2.8198   12.4257 F   0  0  0  0  0  0  0  0  0  0  0  0
    1.3712    1.1999   13.6714 F   0  0  0  0  0  0  0  0  0  0  0  0
    2.6584    4.4782   11.4331 C   0  0  0  0  0  0  0  0  0  0  0  0
    0.8234    6.9705    7.7373 C   0  0  0  0  0  0  0  0  0  0  0  0
    0.8810    7.3837    9.1235 N   0  0  0  0  0  0  0  0  0  0  0  0
    2.2027    7.6683    9.5742 C   0  0  0  0  0  0  0  0  0  0  0  0
    3.0222    6.3575    9.8266 C   0  0  0  0  0  0  0  0  0  0  0  0
    2.3582    5.5461   10.6888 N   0  0  0  0  0  0  0  0  0  0  0  0
    1.0174    5.2406   10.0957 C   0  0  0  0  0  0  0  0  0  0  0  0
    0.1794    6.4512    9.9870 C   0  0  0  0  0  0  0  0  0  0  0  0
 34 35  1  0  0  0
 35 36  1  0  0  0
 36 37  1  0  0  0
 37 38  1  0  0  0
 38 33  1  0  0  0
 33 23  1  0  0  0
 23 24  2  0  0  0
 24 25  1  0  0  0
 25 26  2  0  0  0
 26  1  1  0  0  0
  1  2  1  0  0  0
  2  3  2  0  0  0
  2  5  1  0  0  0
  5  6  2  0  0  0
  6  7  1  0  0  0
  7  8  2  0  0  0
  8  9  1  0  0  0
  8 10  1  0  0  0
 10 11  2  0  0  0
 10 12  1  0  0  0
 12 13  3  0  0  0
 13 14  1  0  0  0
 14 15  2  0  0  0
 15 16  1  0  0  0
 16 17  2  0  0  0
 17 18  1  0  0  0
 17 19  1  0  0  0
 19 20  2  0  0  0
 26 27  1  0  0  0
 27 28  2  0  0  0
 28 29  1  0  0  0
 29 30  1  0  0  0
 29 31  1  0  0  0
 29 32  1  0  0  0
 38 39  1  0  0  0
 39 40  1  0  0  0
 40 35  1  0  0  0
 28 23  1  0  0  0
 11  5  1  0  0  0
 20 14  1  0  0  0
  1  4  1  0  0  0
 18 21  1  0  0  0
 18 22  1  0  0  0
M  END
> <minimizedAffinity>
-8.85044

> <CNNscore>
0.3050884008

> <CNNaffinity>
6.1633453369

> <CNN_VS>
1.8803651333

> <CNNaffinity_variance>
0.2049740255

$$$$
[H]c1nc(N([H])[H])nc([H])c1C#Cc1c([H])c(C(=O)N([H])c2c([H])c([H])c(C([H])([H])N3C([H])([H])C([H])([H])N(C([H])([H])[H])C([H])([H])C3([H])[H])c(C(F)(F)F)c2[H])c([H])c([H])c1C([H])([H])[H]


 40 43  0  0  0  0  0  0  0  0999 V2000
    3.0843    3.5947   16.7881 N   0  0  0  0  0  0  0  0  0  0  0  0
    3.5807    2.3908   17.2806 C   0  0  0  0  0  0  0  0  0  0  0  0
    3.5188    1.3278   16.7792 O   0  0  0  0  0  0  0  0  0  0  0  0
    3.0604    4.3095   17.7021 H   0  0  0  0  0  0  0  0  0  0  0  0
    4.2695    2.6601   18.5936 C   0  0  0  0  0  0  0  0  0  0  0  0
    4.4118    1.4360   19.3234 C   0  0  0  0  0  0  0  0  0  0  0  0
    5.0199    1.3992   20.5250 C   0  0  0  0  0  0  0  0  0  0  0  0
    5.4945    2.5741   21.0248 C   0  0  0  0  0  0  0  0  0  0  0  0
    6.2213    2.5744   22.2843 C   0  0  0  0  0  0  0  0  0  0  0  0
    5.3565    3.8207   20.3244 C   0  0  0  0  0  0  0  0  0  0  0  0
    4.7396    3.7972   19.1073 C   0  0  0  0  0  0  0  0  0  0  0  0
    5.7844    4.9481   21.0465 C   0  0  0  0  0  0  0  0  0  0  0  0
    6.0545    5.9787   21.5878 C   0  0  0  0  0  0  0  0  0  0  0  0
    6.2569    7.2775   22.1326 C   0  0  0  0  0  0  0  0  0  0  0  0
    7.2883    7.4713   23.0685 C   0  0  0  0  0  0  0  0  0  0  0  0
    7.5870    8.6766   23.5367 N   0  0  0  0  0  0  0  0  0  0  0  0
    6.9269    9.7853   23.1523 C   0  0  0  0  0  0  0  0  0  0  0  0
    7.2874   11.0498   23.6619 N   0  0  0  0  0  0  0  0  0  0  0  0
    5.9375    9.6187   22.2613 N   0  0  0  0  0  0  0  0  0  0  0  0
    5.5947    8.3988   21.7480 C   0  0  0  0  0  0  0  0  0  0  0  0
    6.6230   11.5915   24.2408 H   0  0  0  0  0  0  0  0  0  0  0  0
    8.2147   11.4784   23.4630 H   0  0  0  0  0  0  0  0  0  0  0  0
    1.3176    4.8337   13.1727 C   0  0  0  0  0  0  0  0  0  0  0  0
    1.2622    5.6804   14.2657 C   0  0  0  0  0  0  0  0  0  0  0  0
    1.8732    5.3519   15.4924 C   0  0  0  0  0  0  0  0  0  0  0  0
    2.5436    4.1942   15.6860 C   0  0  0  0  0  0  0  0  0  0  0  0
    2.5749    3.3309   14.5211 C   0  0  0  0  0  0  0  0  0  0  0  0
    2.0011    3.6212   13.3401 C   0  0  0  0  0  0  0  0  0  0  0  0
    1.9344    2.5880   12.2763 C   0  0  0  0  0  0  0  0  0  0  0  0
    0.7692    2.1473   11.8159 F   0  0  0  0  0  0  0  0  0  0  0  0
    2.8014    1.5046   12.7042 F   0  0  0  0  0  0  0  0  0  0  0  0
    2.6706    3.0787   11.1751 F   0  0  0  0  0  0  0  0  0  0  0  0
    1.0080    5.1861   11.8049 C   0  0  0  0  0  0  0  0  0  0  0  0
   -3.6124    4.1481   10.9034 C   0  0  0  0  0  0  0  0  0  0  0  0
   -2.9726    5.4420   10.7925 N   0  0  0  0  0  0  0  0  0  0  0  0
   -2.0483    5.5248    9.7109 C   0  0  0  0  0  0  0  0  0  0  0  0
   -0.7097    4.7791   10.0361 C   0  0  0  0  0  0  0  0  0  0  0  0
   -0.1776    5.2501   11.1925 N   0  0  0  0  0  0  0  0  0  0  0  0
   -1.1870    5.0499   12.2806 C   0  0  0  0  0  0  0  0  0  0  0  0
   -2.3990    5.8629   12.0579 C   0  0  0  0  0  0  0  0  0  0  0  0
 34 35  1  0  0  0
 35 36  1  0  0  0
 36 37  1  0  0  0
 37 38  1  0  0  0
 38 33  1  0  0  0
 33 23  1  0  0  0
 23 24  2  0  0  0
 24 25  1  0  0  0
 25 26  2  0  0  0
 26  1  1  0  0  0
  1  2  1  0  0  0
  2  3  2  0  0  0
  2  5  1  0  0  0
  5  6  2  0  0  0
  6  7  1  0  0  0
  7  8  2  0  0  0
  8  9  1  0  0  0
  8 10  1  0  0  0
 10 11  2  0  0  0
 10 12  1  0  0  0
 12 13  3  0  0  0
 13 14  1  0  0  0
 14 15  2  0  0  0
 15 16  1  0  0  0
 16 17  2  0  0  0
 17 18  1  0  0  0
 17 19  1  0  0  0
 19 20  2  0  0  0
 26 27  1  0  0  0
 27 28  2  0  0  0
 28 29  1  0  0  0
 29 30  1  0  0  0
 29 31  1  0  0  0
 29 32  1  0  0  0
 38 39  1  0  0  0
 39 40  1  0  0  0
 40 35  1  0  0  0
 28 23  1  0  0  0
 11  5  1  0  0  0
 20 14  1  0  0  0
  1  4  1  0  0  0
 18 21  1  0  0  0
 18 22  1  0  0  0
M  END
> <minimizedAffinity>
-9.02576

> <CNNscore>
0.2734355628

> <CNNaffinity>
6.2058687210

> <CNN_VS>
1.6969052553

> <CNNaffinity_variance>
0.2528980374

$$$$
[H]c1nc(N([H])[H])nc([H])c1C#Cc1c([H])c(C(=O)N([H])c2c([H])c([H])c(C([H])([H])N3C([H])([H])C([H])([H])N(C([H])([H])[H])C([H])([H])C3([H])[H])c(C(F)(F)F)c2[H])c([H])c([H])c1C([H])([H])[H]


 40 43  0  0  0  0  0  0  0  0999 V2000
    3.4563    2.3657   17.2777 N   0  0  0  0  0  0  0  0  0  0  0  0
    3.6350    1.2756   18.1251 C   0  0  0  0  0  0  0  0  0  0  0  0
    3.4226    0.1415   17.8935 O   0  0  0  0  0  0  0  0  0  0  0  0
    3.4642    3.2949   17.9729 H   0  0  0  0  0  0  0  0  0  0  0  0
    4.1964    1.7740   19.4318 C   0  0  0  0  0  0  0  0  0  0  0  0
    4.1910    0.7137   20.3945 C   0  0  0  0  0  0  0  0  0  0  0  0
    4.6665    0.8932   21.6422 C   0  0  0  0  0  0  0  0  0  0  0  0
    5.1523    2.1260   21.9578 C   0  0  0  0  0  0  0  0  0  0  0  0
    5.7416    2.3490   23.2685 C   0  0  0  0  0  0  0  0  0  0  0  0
    5.1601    3.2140   21.0199 C   0  0  0  0  0  0  0  0  0  0  0  0
    4.6741    2.9728   19.7676 C   0  0  0  0  0  0  0  0  0  0  0  0
    5.5735    4.4458   21.5560 C   0  0  0  0  0  0  0  0  0  0  0  0
    5.8994    5.5470   21.8864 C   0  0  0  0  0  0  0  0  0  0  0  0
    6.2518    6.9057   22.1194 C   0  0  0  0  0  0  0  0  0  0  0  0
    5.3849    7.9206   21.6770 C   0  0  0  0  0  0  0  0  0  0  0  0
    5.6116    9.1992   21.9508 N   0  0  0  0  0  0  0  0  0  0  0  0
    6.6789    9.6076   22.6626 C   0  0  0  0  0  0  0  0  0  0  0  0
    6.8738   10.9753   22.9457 N   0  0  0  0  0  0  0  0  0  0  0  0
    7.5185    8.6526   23.0910 N   0  0  0  0  0  0  0  0  0  0  0  0
    7.3262    7.3230   22.8371 C   0  0  0  0  0  0  0  0  0  0  0  0
    7.6969   11.4771   22.5707 H   0  0  0  0  0  0  0  0  0  0  0  0
    6.2127   11.5122   23.5439 H   0  0  0  0  0  0  0  0  0  0  0  0
    3.0065    3.9929   13.4205 C   0  0  0  0  0  0  0  0  0  0  0  0
    2.8522    2.6283   13.5900 C   0  0  0  0  0  0  0  0  0  0  0  0
    2.9411    2.0219   14.8590 C   0  0  0  0  0  0  0  0  0  0  0  0
    3.1880    2.7246   15.9871 C   0  0  0  0  0  0  0  0  0  0  0  0
    3.3497    4.1492   15.7690 C   0  0  0  0  0  0  0  0  0  0  0  0
    3.2689    4.7520   14.5696 C   0  0  0  0  0  0  0  0  0  0  0  0
    3.6347    6.1844   14.4355 C   0  0  0  0  0  0  0  0  0  0  0  0
    4.2083    6.6486   13.3313 F   0  0  0  0  0  0  0  0  0  0  0  0
    4.3846    6.5282   15.6305 F   0  0  0  0  0  0  0  0  0  0  0  0
    2.4578    6.9348   14.6531 F   0  0  0  0  0  0  0  0  0  0  0  0
    2.6375    4.7533   12.2473 C   0  0  0  0  0  0  0  0  0  0  0  0
   -2.1181    4.9858   11.4932 C   0  0  0  0  0  0  0  0  0  0  0  0
   -1.0738    5.5056   10.6359 N   0  0  0  0  0  0  0  0  0  0  0  0
   -0.3106    4.4876    9.9937 C   0  0  0  0  0  0  0  0  0  0  0  0
    0.6990    3.8116   10.9822 C   0  0  0  0  0  0  0  0  0  0  0  0
    1.4924    4.7497   11.5591 N   0  0  0  0  0  0  0  0  0  0  0  0
    0.6090    5.7268   12.2717 C   0  0  0  0  0  0  0  0  0  0  0  0
   -0.2475    6.4758   11.3311 C   0  0  0  0  0  0  0  0  0  0  0  0
 34 35  1  0  0  0
 35 36  1  0  0  0
 36 37  1  0  0  0
 37 38  1  0  0  0
 38 33  1  0  0  0
 33 23  1  0  0  0
 23 24  2  0  0  0
 24 25  1  0  0  0
 25 26  2  0  0  0
 26  1  1  0  0  0
  1  2  1  0  0  0
  2  3  2  0  0  0
  2  5  1  0  0  0
  5  6  2  0  0  0
  6  7  1  0  0  0
  7  8  2  0  0  0
  8  9  1  0  0  0
  8 10  1  0  0  0
 10 11  2  0  0  0
 10 12  1  0  0  0
 12 13  3  0  0  0
 13 14  1  0  0  0
 14 15  2  0  0  0
 15 16  1  0  0  0
 16 17  2  0  0  0
 17 18  1  0  0  0
 17 19  1  0  0  0
 19 20  2  0  0  0
 26 27  1  0  0  0
 27 28  2  0  0  0
 28 29  1  0  0  0
 29 30  1  0  0  0
 29 31  1  0  0  0
 29 32  1  0  0  0
 38 39  1  0  0  0
 39 40  1  0  0  0
 40 35  1  0  0  0
 28 23  1  0  0  0
 11  5  1  0  0  0
 20 14  1  0  0  0
  1  4  1  0  0  0
 18 21  1  0  0  0
 18 22  1  0  0  0
M  END
> <minimizedAffinity>
-9.15324

> <CNNscore>
0.2416061610

> <CNNaffinity>
6.3840894699

> <CNN_VS>
1.5424354076

> <CNNaffinity_variance>
0.3997665644

$$$$
[H]c1nc(N([H])[H])nc([H])c1C#Cc1c([H])c(C(=O)N([H])c2c([H])c([H])c(C([H])([H])N3C([H])([H])C([H])([H])N(C([H])([H])[H])C([H])([H])C3([H])[H])c(C(F)(F)F)c2[H])c([H])c([H])c1C([H])([H])[H]


 40 43  0  0  0  0  0  0  0  0999 V2000
    2.4715    2.2240   13.1811 N   0  0  0  0  0  0  0  0  0  0  0  0
    2.0172    2.7729   11.9850 C   0  0  0  0  0  0  0  0  0  0  0  0
    1.8463    3.9100   11.7341 O   0  0  0  0  0  0  0  0  0  0  0  0
    2.1905    1.0993   13.1248 H   0  0  0  0  0  0  0  0  0  0  0  0
    1.7959    1.6540   11.0002 C   0  0  0  0  0  0  0  0  0  0  0  0
    3.0554    1.2134   10.4801 C   0  0  0  0  0  0  0  0  0  0  0  0
    3.1363    0.2014    9.5945 C   0  0  0  0  0  0  0  0  0  0  0  0
    1.9714   -0.3888    9.2072 C   0  0  0  0  0  0  0  0  0  0  0  0
    2.0122   -1.5313    8.3085 C   0  0  0  0  0  0  0  0  0  0  0  0
    0.6911    0.0377    9.6998 C   0  0  0  0  0  0  0  0  0  0  0  0
    0.6697    1.0617   10.6016 C   0  0  0  0  0  0  0  0  0  0  0  0
   -0.4088   -0.5934    9.0935 C   0  0  0  0  0  0  0  0  0  0  0  0
   -1.3268   -1.2314    8.6712 C   0  0  0  0  0  0  0  0  0  0  0  0
   -2.3820   -2.1062    8.2893 C   0  0  0  0  0  0  0  0  0  0  0  0
   -2.1555   -3.4939    8.3010 C   0  0  0  0  0  0  0  0  0  0  0  0
   -3.1281   -4.3610    8.0494 N   0  0  0  0  0  0  0  0  0  0  0  0
   -4.3861   -3.9737    7.7663 C   0  0  0  0  0  0  0  0  0  0  0  0
   -5.3945   -4.9287    7.5214 N   0  0  0  0  0  0  0  0  0  0  0  0
   -4.6201   -2.6526    7.7484 N   0  0  0  0  0  0  0  0  0  0  0  0
   -3.6524   -1.7211    8.0036 C   0  0  0  0  0  0  0  0  0  0  0  0
   -5.8521   -4.9835    6.5954 H   0  0  0  0  0  0  0  0  0  0  0  0
   -5.7158   -5.5899    8.2582 H   0  0  0  0  0  0  0  0  0  0  0  0
    4.1001    2.5268   17.0520 C   0  0  0  0  0  0  0  0  0  0  0  0
    4.4543    3.4710   16.1046 C   0  0  0  0  0  0  0  0  0  0  0  0
    3.9112    3.4595   14.8042 C   0  0  0  0  0  0  0  0  0  0  0  0
    3.0200    2.5293   14.3945 C   0  0  0  0  0  0  0  0  0  0  0  0
    2.6782    1.5540   15.4121 C   0  0  0  0  0  0  0  0  0  0  0  0
    3.1813    1.5435   16.6592 C   0  0  0  0  0  0  0  0  0  0  0  0
    2.9063    0.3946   17.5580 C   0  0  0  0  0  0  0  0  0  0  0  0
    3.3895    0.3561   18.7945 F   0  0  0  0  0  0  0  0  0  0  0  0
    3.2328   -0.8020   16.8030 F   0  0  0  0  0  0  0  0  0  0  0  0
    1.5026    0.2621   17.6438 F   0  0  0  0  0  0  0  0  0  0  0  0
    4.3423    2.6145   18.4749 C   0  0  0  0  0  0  0  0  0  0  0  0
    3.9616    5.2114   22.5184 C   0  0  0  0  0  0  0  0  0  0  0  0
    4.9574    5.3600   21.4783 N   0  0  0  0  0  0  0  0  0  0  0  0
    4.4295    5.8775   20.2598 C   0  0  0  0  0  0  0  0  0  0  0  0
    3.6231    4.7905   19.4714 C   0  0  0  0  0  0  0  0  0  0  0  0
    4.3934    3.6926   19.2622 N   0  0  0  0  0  0  0  0  0  0  0  0
    4.8348    3.1770   20.5972 C   0  0  0  0  0  0  0  0  0  0  0  0
    5.7170    4.1374   21.2893 C   0  0  0  0  0  0  0  0  0  0  0  0
 34 35  1  0  0  0
 35 36  1  0  0  0
 36 37  1  0  0  0
 37 38  1  0  0  0
 38 33  1  0  0  0
 33 23  1  0  0  0
 23 24  2  0  0  0
 24 25  1  0  0  0
 25 26  2  0  0  0
 26  1  1  0  0  0
  1  2  1  0  0  0
  2  3  2  0  0  0
  2  5  1  0  0  0
  5  6  2  0  0  0
  6  7  1  0  0  0
  7  8  2  0  0  0
  8  9  1  0  0  0
  8 10  1  0  0  0
 10 11  2  0  0  0
 10 12  1  0  0  0
 12 13  3  0  0  0
 13 14  1  0  0  0
 14 15  2  0  0  0
 15 16  1  0  0  0
 16 17  2  0  0  0
 17 18  1  0  0  0
 17 19  1  0  0  0
 19 20  2  0  0  0
 26 27  1  0  0  0
 27 28  2  0  0  0
 28 29  1  0  0  0
 29 30  1  0  0  0
 29 31  1  0  0  0
 29 32  1  0  0  0
 38 39  1  0  0  0
 39 40  1  0  0  0
 40 35  1  0  0  0
 28 23  1  0  0  0
 11  5  1  0  0  0
 20 14  1  0  0  0
  1  4  1  0  0  0
 18 21  1  0  0  0
 18 22  1  0  0  0
M  END
> <minimizedAffinity>
-8.39069

> <CNNscore>
0.2332555205

> <CNNaffinity>
6.1025729179

> <CNN_VS>
1.4234588146

> <CNNaffinity_variance>
0.1548265517

$$$$
[H]c1nc(N([H])[H])nc([H])c1C#Cc1c([H])c(C(=O)N([H])c2c([H])c([H])c(C([H])([H])N3C([H])([H])C([H])([H])N(C([H])([H])[H])C([H])([H])C3([H])[H])c(C(F)(F)F)c2[H])c([H])c([H])c1C([H])([H])[H]


 40 43  0  0  0  0  0  0  0  0999 V2000
    3.5068    7.1237   16.4275 N   0  0  0  0  0  0  0  0  0  0  0  0
    3.6346    7.2852   15.0505 C   0  0  0  0  0  0  0  0  0  0  0  0
    4.3231    8.0475   14.4762 O   0  0  0  0  0  0  0  0  0  0  0  0
    2.5225    6.5261   16.5727 H   0  0  0  0  0  0  0  0  0  0  0  0
    2.7489    6.2754   14.3674 C   0  0  0  0  0  0  0  0  0  0  0  0
    3.4632    5.0462   14.1945 C   0  0  0  0  0  0  0  0  0  0  0  0
    2.8849    3.9694   13.6279 C   0  0  0  0  0  0  0  0  0  0  0  0
    1.5910    4.0930   13.2207 C   0  0  0  0  0  0  0  0  0  0  0  0
    0.9010    2.9380   12.6688 C   0  0  0  0  0  0  0  0  0  0  0  0
    0.8507    5.3153   13.3676 C   0  0  0  0  0  0  0  0  0  0  0  0
    1.4840    6.3711   13.9563 C   0  0  0  0  0  0  0  0  0  0  0  0
   -0.4229    5.3031   12.7732 C   0  0  0  0  0  0  0  0  0  0  0  0
   -1.4758    5.4195   12.2201 C   0  0  0  0  0  0  0  0  0  0  0  0
   -2.6752    5.7131   11.5130 C   0  0  0  0  0  0  0  0  0  0  0  0
   -2.6597    5.6957   10.1071 C   0  0  0  0  0  0  0  0  0  0  0  0
   -3.7672    5.8651    9.3958 N   0  0  0  0  0  0  0  0  0  0  0  0
   -4.9696    6.0656    9.9674 C   0  0  0  0  0  0  0  0  0  0  0  0
   -6.1250    6.2245    9.1747 N   0  0  0  0  0  0  0  0  0  0  0  0
   -5.0028    6.0877   11.3086 N   0  0  0  0  0  0  0  0  0  0  0  0
   -3.8903    5.9152   12.0843 C   0  0  0  0  0  0  0  0  0  0  0  0
   -6.6506    7.1153    9.1852 H   0  0  0  0  0  0  0  0  0  0  0  0
   -6.4886    5.4569    8.5732 H   0  0  0  0  0  0  0  0  0  0  0  0
    5.1775    7.5800   20.2652 C   0  0  0  0  0  0  0  0  0  0  0  0
    5.3940    8.5694   19.3225 C   0  0  0  0  0  0  0  0  0  0  0  0
    4.8260    8.5062   18.0343 C   0  0  0  0  0  0  0  0  0  0  0  0
    4.0431    7.4801   17.6323 C   0  0  0  0  0  0  0  0  0  0  0  0
    3.8442    6.4607   18.6445 C   0  0  0  0  0  0  0  0  0  0  0  0
    4.3739    6.4978   19.8800 C   0  0  0  0  0  0  0  0  0  0  0  0
    4.2593    5.3151   20.7697 C   0  0  0  0  0  0  0  0  0  0  0  0
    3.6371    5.3915   21.9406 F   0  0  0  0  0  0  0  0  0  0  0  0
    5.5979    4.7659   20.8936 F   0  0  0  0  0  0  0  0  0  0  0  0
    3.6365    4.2919   20.0211 F   0  0  0  0  0  0  0  0  0  0  0  0
    5.4407    7.6816   21.6834 C   0  0  0  0  0  0  0  0  0  0  0  0
    9.6289    9.0061   23.6691 C   0  0  0  0  0  0  0  0  0  0  0  0
    8.6948    8.0248   24.1792 N   0  0  0  0  0  0  0  0  0  0  0  0
    8.6357    6.8380   23.3923 C   0  0  0  0  0  0  0  0  0  0  0  0
    7.8311    7.0623   22.0673 C   0  0  0  0  0  0  0  0  0  0  0  0
    6.5938    7.5469   22.3444 N   0  0  0  0  0  0  0  0  0  0  0  0
    6.7586    8.8286   23.1013 C   0  0  0  0  0  0  0  0  0  0  0  0
    7.3873    8.6081   24.4188 C   0  0  0  0  0  0  0  0  0  0  0  0
 34 35  1  0  0  0
 35 36  1  0  0  0
 36 37  1  0  0  0
 37 38  1  0  0  0
 38 33  1  0  0  0
 33 23  1  0  0  0
 23 24  2  0  0  0
 24 25  1  0  0  0
 25 26  2  0  0  0
 26  1  1  0  0  0
  1  2  1  0  0  0
  2  3  2  0  0  0
  2  5  1  0  0  0
  5  6  2  0  0  0
  6  7  1  0  0  0
  7  8  2  0  0  0
  8  9  1  0  0  0
  8 10  1  0  0  0
 10 11  2  0  0  0
 10 12  1  0  0  0
 12 13  3  0  0  0
 13 14  1  0  0  0
 14 15  2  0  0  0
 15 16  1  0  0  0
 16 17  2  0  0  0
 17 18  1  0  0  0
 17 19  1  0  0  0
 19 20  2  0  0  0
 26 27  1  0  0  0
 27 28  2  0  0  0
 28 29  1  0  0  0
 29 30  1  0  0  0
 29 31  1  0  0  0
 29 32  1  0  0  0
 38 39  1  0  0  0
 39 40  1  0  0  0
 40 35  1  0  0  0
 28 23  1  0  0  0
 11  5  1  0  0  0
 20 14  1  0  0  0
  1  4  1  0  0  0
 18 21  1  0  0  0
 18 22  1  0  0  0
M  END
> <minimizedAffinity>
-8.26666

> <CNNscore>
0.2287455797

> <CNNaffinity>
5.7011036873

> <CNN_VS>
1.3041023016

> <CNNaffinity_variance>
0.4072903097

$$$$
[H]c1nc(N([H])[H])nc([H])c1C#Cc1c([H])c(C(=O)N([H])c2c([H])c([H])c(C([H])([H])N3C([H])([H])C([H])([H])N(C([H])([H])[H])C([H])([H])C3([H])[H])c(C(F)(F)F)c2[H])c([H])c([H])c1C([H])([H])[H]


 40 43  0  0  0  0  0  0  0  0999 V2000
    4.2272    3.5648   16.5060 N   0  0  0  0  0  0  0  0  0  0  0  0
    3.4110    2.5340   16.0479 C   0  0  0  0  0  0  0  0  0  0  0  0
    2.9087    1.6784   16.6808 O   0  0  0  0  0  0  0  0  0  0  0  0
    4.7593    3.9739   15.5592 H   0  0  0  0  0  0  0  0  0  0  0  0
    3.2269    2.6961   14.5611 C   0  0  0  0  0  0  0  0  0  0  0  0
    3.9017    3.8790   14.1178 C   0  0  0  0  0  0  0  0  0  0  0  0
    3.9113    4.2397   12.8198 C   0  0  0  0  0  0  0  0  0  0  0  0
    3.2505    3.4367   11.9401 C   0  0  0  0  0  0  0  0  0  0  0  0
    3.2921    3.7448   10.5195 C   0  0  0  0  0  0  0  0  0  0  0  0
    2.5531    2.2509   12.3538 C   0  0  0  0  0  0  0  0  0  0  0  0
    2.5841    1.9293   13.6797 C   0  0  0  0  0  0  0  0  0  0  0  0
    1.8183    1.6190   11.3357 C   0  0  0  0  0  0  0  0  0  0  0  0
    1.0856    1.0848   10.5574 C   0  0  0  0  0  0  0  0  0  0  0  0
    0.0929    0.4603    9.7517 C   0  0  0  0  0  0  0  0  0  0  0  0
   -0.8265    1.2653    9.0561 C   0  0  0  0  0  0  0  0  0  0  0  0
   -1.7111    0.7452    8.2146 N   0  0  0  0  0  0  0  0  0  0  0  0
   -1.7887   -0.5772    7.9738 C   0  0  0  0  0  0  0  0  0  0  0  0
   -2.7328   -1.0873    7.0589 N   0  0  0  0  0  0  0  0  0  0  0  0
   -0.9203   -1.3612    8.6311 N   0  0  0  0  0  0  0  0  0  0  0  0
    0.0106   -0.8724    9.5050 C   0  0  0  0  0  0  0  0  0  0  0  0
   -3.4866   -1.7189    7.3795 H   0  0  0  0  0  0  0  0  0  0  0  0
   -2.6936   -0.8591    6.0442 H   0  0  0  0  0  0  0  0  0  0  0  0
    5.8233    4.8805   20.1733 C   0  0  0  0  0  0  0  0  0  0  0  0
    5.7772    5.7659   19.1109 C   0  0  0  0  0  0  0  0  0  0  0  0
    5.2130    5.4092   17.8697 C   0  0  0  0  0  0  0  0  0  0  0  0
    4.6888    4.1861   17.6316 C   0  0  0  0  0  0  0  0  0  0  0  0
    4.7608    3.2847   18.7655 C   0  0  0  0  0  0  0  0  0  0  0  0
    5.2929    3.6006   19.9594 C   0  0  0  0  0  0  0  0  0  0  0  0
    5.4829    2.5461   20.9868 C   0  0  0  0  0  0  0  0  0  0  0  0
    6.5953    2.4806   21.7094 F   0  0  0  0  0  0  0  0  0  0  0  0
    5.1734    1.2839   20.3389 F   0  0  0  0  0  0  0  0  0  0  0  0
    4.3959    2.6408   21.8840 F   0  0  0  0  0  0  0  0  0  0  0  0
    6.0852    5.2192   21.5544 C   0  0  0  0  0  0  0  0  0  0  0  0
    9.4920    7.0175   24.4525 C   0  0  0  0  0  0  0  0  0  0  0  0
    9.2980    7.3125   23.0485 N   0  0  0  0  0  0  0  0  0  0  0  0
    8.1233    8.0765   22.7884 C   0  0  0  0  0  0  0  0  0  0  0  0
    6.8296    7.1988   22.8856 C   0  0  0  0  0  0  0  0  0  0  0  0
    6.9265    6.1247   22.0613 N   0  0  0  0  0  0  0  0  0  0  0  0
    8.1412    5.3447   22.4601 C   0  0  0  0  0  0  0  0  0  0  0  0
    9.3818    6.1127   22.2355 C   0  0  0  0  0  0  0  0  0  0  0  0
 34 35  1  0  0  0
 35 36  1  0  0  0
 36 37  1  0  0  0
 37 38  1  0  0  0
 38 33  1  0  0  0
 33 23  1  0  0  0
 23 24  2  0  0  0
 24 25  1  0  0  0
 25 26  2  0  0  0
 26  1  1  0  0  0
  1  2  1  0  0  0
  2  3  2  0  0  0
  2  5  1  0  0  0
  5  6  2  0  0  0
  6  7  1  0  0  0
  7  8  2  0  0  0
  8  9  1  0  0  0
  8 10  1  0  0  0
 10 11  2  0  0  0
 10 12  1  0  0  0
 12 13  3  0  0  0
 13 14  1  0  0  0
 14 15  2  0  0  0
 15 16  1  0  0  0
 16 17  2  0  0  0
 17 18  1  0  0  0
 17 19  1  0  0  0
 19 20  2  0  0  0
 26 27  1  0  0  0
 27 28  2  0  0  0
 28 29  1  0  0  0
 29 30  1  0  0  0
 29 31  1  0  0  0
 29 32  1  0  0  0
 38 39  1  0  0  0
 39 40  1  0  0  0
 40 35  1  0  0  0
 28 23  1  0  0  0
 11  5  1  0  0  0
 20 14  1  0  0  0
  1  4  1  0  0  0
 18 21  1  0  0  0
 18 22  1  0  0  0
M  END
> <minimizedAffinity>
-8.38836

> <CNNscore>
0.2257000208

> <CNNaffinity>
6.1394147873

> <CNN_VS>
1.3856660128

> <CNNaffinity_variance>
0.4730505347

$$$$
[H]c1nc(N([H])[H])nc([H])c1C#Cc1c([H])c(C(=O)N([H])c2c([H])c([H])c(C([H])([H])N3C([H])([H])C([H])([H])N(C([H])([H])[H])C([H])([H])C3([H])[H])c(C(F)(F)F)c2[H])c([H])c([H])c1C([H])([H])[H]


 40 43  0  0  0  0  0  0  0  0999 V2000
    3.6051    8.9977   15.7028 N   0  0  0  0  0  0  0  0  0  0  0  0
    3.3759   10.0584   16.5750 C   0  0  0  0  0  0  0  0  0  0  0  0
    2.8398   11.0797   16.3409 O   0  0  0  0  0  0  0  0  0  0  0  0
    4.4212    8.3527   16.2175 H   0  0  0  0  0  0  0  0  0  0  0  0
    3.9077    9.6824   17.9338 C   0  0  0  0  0  0  0  0  0  0  0  0
    4.3509   10.8585   18.6206 C   0  0  0  0  0  0  0  0  0  0  0  0
    4.8499   10.7981   19.8705 C   0  0  0  0  0  0  0  0  0  0  0  0
    4.9211    9.5721   20.4596 C   0  0  0  0  0  0  0  0  0  0  0  0
    5.3855    9.4641   21.8335 C   0  0  0  0  0  0  0  0  0  0  0  0
    4.4974    8.3718   19.7937 C   0  0  0  0  0  0  0  0  0  0  0  0
    3.9919    8.4936   18.5319 C   0  0  0  0  0  0  0  0  0  0  0  0
    4.7658    7.1857   20.4985 C   0  0  0  0  0  0  0  0  0  0  0  0
    4.8617    6.1821   21.1400 C   0  0  0  0  0  0  0  0  0  0  0  0
    4.8119    5.0106   21.9461 C   0  0  0  0  0  0  0  0  0  0  0  0
    5.8707    4.0880   21.8745 C   0  0  0  0  0  0  0  0  0  0  0  0
    5.9269    3.0285   22.6718 N   0  0  0  0  0  0  0  0  0  0  0  0
    4.9811    2.7666   23.5934 C   0  0  0  0  0  0  0  0  0  0  0  0
    5.0876    1.6382   24.4325 N   0  0  0  0  0  0  0  0  0  0  0  0
    3.9616    3.6354   23.6741 N   0  0  0  0  0  0  0  0  0  0  0  0
    3.8611    4.7419   22.8774 C   0  0  0  0  0  0  0  0  0  0  0  0
    4.3866    0.8792   24.3833 H   0  0  0  0  0  0  0  0  0  0  0  0
    5.8560    1.5410   25.1277 H   0  0  0  0  0  0  0  0  0  0  0  0
    3.3126    7.3298   11.8479 C   0  0  0  0  0  0  0  0  0  0  0  0
    2.1870    7.3492   12.6525 C   0  0  0  0  0  0  0  0  0  0  0  0
    2.1995    7.9344   13.9345 C   0  0  0  0  0  0  0  0  0  0  0  0
    3.3040    8.5057   14.4644 C   0  0  0  0  0  0  0  0  0  0  0  0
    4.4640    8.4607   13.5951 C   0  0  0  0  0  0  0  0  0  0  0  0
    4.4780    7.9094   12.3686 C   0  0  0  0  0  0  0  0  0  0  0  0
    5.7634    7.7528   11.6427 C   0  0  0  0  0  0  0  0  0  0  0  0
    5.9782    8.3623   10.4825 F   0  0  0  0  0  0  0  0  0  0  0  0
    6.0197    6.3253   11.5692 F   0  0  0  0  0  0  0  0  0  0  0  0
    6.7905    8.1469   12.5287 F   0  0  0  0  0  0  0  0  0  0  0  0
    3.3423    7.0465   10.4302 C   0  0  0  0  0  0  0  0  0  0  0  0
    3.2459    3.9465    6.7398 C   0  0  0  0  0  0  0  0  0  0  0  0
    3.6032    3.6561    8.1123 N   0  0  0  0  0  0  0  0  0  0  0  0
    2.4968    3.7140    9.0088 C   0  0  0  0  0  0  0  0  0  0  0  0
    2.0847    5.1921    9.3237 C   0  0  0  0  0  0  0  0  0  0  0  0
    3.1515    5.8885    9.7920 N   0  0  0  0  0  0  0  0  0  0  0  0
    4.2291    5.8365    8.7532 C   0  0  0  0  0  0  0  0  0  0  0  0
    4.7279    4.4617    8.5519 C   0  0  0  0  0  0  0  0  0  0  0  0
 34 35  1  0  0  0
 35 36  1  0  0  0
 36 37  1  0  0  0
 37 38  1  0  0  0
 38 33  1  0  0  0
 33 23  1  0  0  0
 23 24  2  0  0  0
 24 25  1  0  0  0
 25 26  2  0  0  0
 26  1  1  0  0  0
  1  2  1  0  0  0
  2  3  2  0  0  0
  2  5  1  0  0  0
  5  6  2  0  0  0
  6  7  1  0  0  0
  7  8  2  0  0  0
  8  9  1  0  0  0
  8 10  1  0  0  0
 10 11  2  0  0  0
 10 12  1  0  0  0
 12 13  3  0  0  0
 13 14  1  0  0  0
 14 15  2  0  0  0
 15 16  1  0  0  0
 16 17  2  0  0  0
 17 18  1  0  0  0
 17 19  1  0  0  0
 19 20  2  0  0  0
 26 27  1  0  0  0
 27 28  2  0  0  0
 28 29  1  0  0  0
 29 30  1  0  0  0
 29 31  1  0  0  0
 29 32  1  0  0  0
 38 39  1  0  0  0
 39 40  1  0  0  0
 40 35  1  0  0  0
 28 23  1  0  0  0
 11  5  1  0  0  0
 20 14  1  0  0  0
  1  4  1  0  0  0
 18 21  1  0  0  0
 18 22  1  0  0  0
M  END
> <minimizedAffinity>
-8.18131

> <CNNscore>
0.1981809586

> <CNNaffinity>
5.5332293510

> <CNN_VS>
1.0965807438

> <CNNaffinity_variance>
0.7893186808

$$$$
[H]c1nc(N([H])[H])nc([H])c1C#Cc1c([H])c(C(=O)N([H])c2c([H])c([H])c(C([H])([H])N3C([H])([H])C([H])([H])N(C([H])([H])[H])C([H])([H])C3([H])[H])c(C(F)(F)F)c2[H])c([H])c([H])c1C([H])([H])[H]


 40 43  0  0  0  0  0  0  0  0999 V2000
    4.0618    5.2336   17.6670 N   0  0  0  0  0  0  0  0  0  0  0  0
    3.8547    3.8582   17.6051 C   0  0  0  0  0  0  0  0  0  0  0  0
    3.8382    3.0919   18.4982 O   0  0  0  0  0  0  0  0  0  0  0  0
    4.3223    5.5503   16.5813 H   0  0  0  0  0  0  0  0  0  0  0  0
    3.6105    3.4767   16.1678 C   0  0  0  0  0  0  0  0  0  0  0  0
    2.7812    2.3104   16.1128 C   0  0  0  0  0  0  0  0  0  0  0  0
    2.3938    1.7767   14.9380 C   0  0  0  0  0  0  0  0  0  0  0  0
    2.8236    2.3872   13.7988 C   0  0  0  0  0  0  0  0  0  0  0  0
    2.3741    1.8914   12.5077 C   0  0  0  0  0  0  0  0  0  0  0  0
    3.6666    3.5502   13.8193 C   0  0  0  0  0  0  0  0  0  0  0  0
    4.0208    4.0530   15.0375 C   0  0  0  0  0  0  0  0  0  0  0  0
    4.1204    3.9663   12.5557 C   0  0  0  0  0  0  0  0  0  0  0  0
    4.5572    4.4321   11.5456 C   0  0  0  0  0  0  0  0  0  0  0  0
    5.1315    5.1176   10.4389 C   0  0  0  0  0  0  0  0  0  0  0  0
    6.5068    5.4100   10.4568 C   0  0  0  0  0  0  0  0  0  0  0  0
    7.1162    5.9592    9.4136 N   0  0  0  0  0  0  0  0  0  0  0  0
    6.4640    6.2727    8.2783 C   0  0  0  0  0  0  0  0  0  0  0  0
    7.1530    6.8399    7.1864 N   0  0  0  0  0  0  0  0  0  0  0  0
    5.1500    6.0028    8.2443 N   0  0  0  0  0  0  0  0  0  0  0  0
    4.4787    5.4354    9.2915 C   0  0  0  0  0  0  0  0  0  0  0  0
    6.9261    7.7953    6.8614 H   0  0  0  0  0  0  0  0  0  0  0  0
    7.8913    6.3176    6.6713 H   0  0  0  0  0  0  0  0  0  0  0  0
    4.9347    8.2285   20.4948 C   0  0  0  0  0  0  0  0  0  0  0  0
    4.1269    8.5452   19.4169 C   0  0  0  0  0  0  0  0  0  0  0  0
    3.7544    7.5815   18.4585 C   0  0  0  0  0  0  0  0  0  0  0  0
    4.1627    6.2944   18.5219 C   0  0  0  0  0  0  0  0  0  0  0  0
    5.0118    6.0023   19.6608 C   0  0  0  0  0  0  0  0  0  0  0  0
    5.3808    6.9028   20.5889 C   0  0  0  0  0  0  0  0  0  0  0  0
    6.4003    6.5417   21.6057 C   0  0  0  0  0  0  0  0  0  0  0  0
    6.1668    6.7033   22.9031 F   0  0  0  0  0  0  0  0  0  0  0  0
    7.6376    7.1761   21.1869 F   0  0  0  0  0  0  0  0  0  0  0  0
    6.7311    5.1843   21.3971 F   0  0  0  0  0  0  0  0  0  0  0  0
    5.1252    9.0315   21.6822 C   0  0  0  0  0  0  0  0  0  0  0  0
    9.0879   11.6957   21.0208 C   0  0  0  0  0  0  0  0  0  0  0  0
    7.8131   12.1444   21.5399 N   0  0  0  0  0  0  0  0  0  0  0  0
    7.5198   11.6337   22.8376 C   0  0  0  0  0  0  0  0  0  0  0  0
    7.0814   10.1309   22.7820 C   0  0  0  0  0  0  0  0  0  0  0  0
    6.0358    9.9770   21.9302 N   0  0  0  0  0  0  0  0  0  0  0  0
    6.4633   10.4667   20.5810 C   0  0  0  0  0  0  0  0  0  0  0  0
    6.7406   11.9167   20.5886 C   0  0  0  0  0  0  0  0  0  0  0  0
 34 35  1  0  0  0
 35 36  1  0  0  0
 36 37  1  0  0  0
 37 38  1  0  0  0
 38 33  1  0  0  0
 33 23  1  0  0  0
 23 24  2  0  0  0
 24 25  1  0  0  0
 25 26  2  0  0  0
 26  1  1  0  0  0
  1  2  1  0  0  0
  2  3  2  0  0  0
  2  5  1  0  0  0
  5  6  2  0  0  0
  6  7  1  0  0  0
  7  8  2  0  0  0
  8  9  1  0  0  0
  8 10  1  0  0  0
 10 11  2  0  0  0
 10 12  1  0  0  0
 12 13  3  0  0  0
 13 14  1  0  0  0
 14 15  2  0  0  0
 15 16  1  0  0  0
 16 17  2  0  0  0
 17 18  1  0  0  0
 17 19  1  0  0  0
 19 20  2  0  0  0
 26 27  1  0  0  0
 27 28  2  0  0  0
 28 29  1  0  0  0
 29 30  1  0  0  0
 29 31  1  0  0  0
 29 32  1  0  0  0
 38 39  1  0  0  0
 39 40  1  0  0  0
 40 35  1  0  0  0
 28 23  1  0  0  0
 11  5  1  0  0  0
 20 14  1  0  0  0
  1  4  1  0  0  0
 18 21  1  0  0  0
 18 22  1  0  0  0
M  END
> <minimizedAffinity>
-8.46890

> <CNNscore>
0.1923919022

> <CNNaffinity>
5.8934016228

> <CNN_VS>
1.1338427067

> <CNNaffinity_variance>
0.5059224963

$$$$
[H]c1nc(N([H])c2c([H])c(C(=O)N([H])c3c([H])c([H])c(C([H])([H])N4C([H])([H])C([H])([H])N(C([H])([H])[H])C([H])([H])C4([H])[H])c(C(F)(F)F)c3[H])c([H])c([H])c2C([H])([H])[H])nc(-c2c([H])nc([H])c([H])c2[H])c1[H]


 43 47  0  0  0  0  0  0  0  0999 V2000
    3.5917    6.2751   17.4267 N   0  0  0  0  0  0  0  0  0  0  0  0
    3.4179    6.2765   15.9655 C   0  0  0  0  0  0  0  0  0  0  0  0
    3.7617    7.1700   15.2759 O   0  0  0  0  0  0  0  0  0  0  0  0
    3.0931    5.5968   18.0126 H   0  0  0  0  0  0  0  0  0  0  0  0
    2.8225    4.9415   15.6028 C   0  0  0  0  0  0  0  0  0  0  0  0
    2.0052    5.1602   14.4211 C   0  0  0  0  0  0  0  0  0  0  0  0
    1.5378    4.1629   13.6616 C   0  0  0  0  0  0  0  0  0  0  0  0
    1.8373    2.8322   14.0168 C   0  0  0  0  0  0  0  0  0  0  0  0
    1.3145    1.7856   13.0872 C   0  0  0  0  0  0  0  0  0  0  0  0
    2.5889    2.6517   15.1306 C   0  0  0  0  0  0  0  0  0  0  0  0
    3.0897    3.7193   15.9422 C   0  0  0  0  0  0  0  0  0  0  0  0
    3.0390    1.3369   15.4723 N   0  0  0  0  0  0  0  0  0  0  0  0
    3.3414    0.6708   14.7690 H   0  0  0  0  0  0  0  0  0  0  0  0
    3.0642    1.0430   16.8875 C   0  0  0  0  0  0  0  0  0  0  0  0
    2.2692    0.0675   17.3919 N   0  0  0  0  0  0  0  0  0  0  0  0
    2.3202   -0.3312   18.6416 C   0  0  0  0  0  0  0  0  0  0  0  0
    3.2600    0.2999   19.4874 C   0  0  0  0  0  0  0  0  0  0  0  0
    4.0656    1.3085   18.9786 C   0  0  0  0  0  0  0  0  0  0  0  0
    3.9412    1.6535   17.6785 N   0  0  0  0  0  0  0  0  0  0  0  0
    4.8535    2.1716   19.8497 C   0  0  0  0  0  0  0  0  0  0  0  0
    5.5628    1.7238   20.9394 C   0  0  0  0  0  0  0  0  0  0  0  0
    6.0927    2.5902   21.8744 C   0  0  0  0  0  0  0  0  0  0  0  0
    5.8671    3.9341   21.6515 C   0  0  0  0  0  0  0  0  0  0  0  0
    5.1742    4.3953   20.5842 N   0  0  0  0  0  0  0  0  0  0  0  0
    4.6667    3.5698   19.6882 C   0  0  0  0  0  0  0  0  0  0  0  0
    5.5630    9.0329   19.7579 C   0  0  0  0  0  0  0  0  0  0  0  0
    4.2363    8.6547   19.8980 C   0  0  0  0  0  0  0  0  0  0  0  0
    3.6594    7.7946   19.0629 C   0  0  0  0  0  0  0  0  0  0  0  0
    4.4393    7.2293   17.9540 C   0  0  0  0  0  0  0  0  0  0  0  0
    5.7060    7.6331   17.8399 C   0  0  0  0  0  0  0  0  0  0  0  0
    6.3062    8.5447   18.7380 C   0  0  0  0  0  0  0  0  0  0  0  0
    7.7075    8.9179   18.5221 C   0  0  0  0  0  0  0  0  0  0  0  0
    8.6103    8.2885   19.3142 F   0  0  0  0  0  0  0  0  0  0  0  0
    7.8493   10.2789   18.7104 F   0  0  0  0  0  0  0  0  0  0  0  0
    8.0546    8.7474   17.1637 F   0  0  0  0  0  0  0  0  0  0  0  0
    6.1092    9.9378   20.8121 C   0  0  0  0  0  0  0  0  0  0  0  0
    9.0189    8.0790   24.9484 C   0  0  0  0  0  0  0  0  0  0  0  0
    7.7498    7.9756   24.2196 N   0  0  0  0  0  0  0  0  0  0  0  0
    8.0099    7.5782   22.9004 C   0  0  0  0  0  0  0  0  0  0  0  0
    6.7366    7.8636   22.0245 C   0  0  0  0  0  0  0  0  0  0  0  0
    6.5765    9.1941   21.9356 N   0  0  0  0  0  0  0  0  0  0  0  0
    7.0328    9.9820   23.0283 C   0  0  0  0  0  0  0  0  0  0  0  0
    6.9623    9.1826   24.3183 C   0  0  0  0  0  0  0  0  0  0  0  0
 37 38  1  0  0  0
 38 39  1  0  0  0
 39 40  1  0  0  0
 40 41  1  0  0  0
 41 36  1  0  0  0
 36 26  1  0  0  0
 26 27  2  0  0  0
 27 28  1  0  0  0
 28 29  2  0  0  0
 29  1  1  0  0  0
  1  2  1  0  0  0
  2  3  2  0  0  0
  2  5  1  0  0  0
  5  6  2  0  0  0
  6  7  1  0  0  0
  7  8  2  0  0  0
  8  9  1  0  0  0
  8 10  1  0  0  0
 10 12  1  0  0  0
 12 14  1  0  0  0
 14 15  2  0  0  0
 15 16  1  0  0  0
 16 17  2  0  0  0
 17 18  1  0  0  0
 18 19  2  0  0  0
 18 20  1  0  0  0
 20 21  2  0  0  0
 21 22  1  0  0  0
 22 23  2  0  0  0
 23 24  1  0  0  0
 24 25  2  0  0  0
 10 11  2  0  0  0
 29 30  1  0  0  0
 30 31  2  0  0  0
 31 32  1  0  0  0
 32 33  1  0  0  0
 32 34  1  0  0  0
 32 35  1  0  0  0
 41 42  1  0  0  0
 42 43  1  0  0  0
 43 38  1  0  0  0
 31 26  1  0  0  0
 11  5  1  0  0  0
 19 14  1  0  0  0
 25 20  1  0  0  0
  1  4  1  0  0  0
 12 13  1  0  0  0
M  END
> <minimizedAffinity>
-9.56565

> <CNNscore>
0.5156744719

> <CNNaffinity>
7.6920633316

> <CNN_VS>
3.9666006565

> <CNNaffinity_variance>
0.1976413578

$$$$
[H]c1nc(N([H])c2c([H])c(C(=O)N([H])c3c([H])c([H])c(C([H])([H])N4C([H])([H])C([H])([H])N(C([H])([H])[H])C([H])([H])C4([H])[H])c(C(F)(F)F)c3[H])c([H])c([H])c2C([H])([H])[H])nc(-c2c([H])nc([H])c([H])c2[H])c1[H]


 43 47  0  0  0  0  0  0  0  0999 V2000
    3.4541    6.7698   18.0779 N   0  0  0  0  0  0  0  0  0  0  0  0
    4.4202    6.2261   17.1102 C   0  0  0  0  0  0  0  0  0  0  0  0
    5.4652    6.7279   16.8908 O   0  0  0  0  0  0  0  0  0  0  0  0
    2.4815    6.4442   18.0859 H   0  0  0  0  0  0  0  0  0  0  0  0
    3.8266    4.9457   16.5843 C   0  0  0  0  0  0  0  0  0  0  0  0
    3.2255    5.2651   15.3002 C   0  0  0  0  0  0  0  0  0  0  0  0
    2.8396    4.3324   14.4222 C   0  0  0  0  0  0  0  0  0  0  0  0
    3.0106    2.9716   14.7479 C   0  0  0  0  0  0  0  0  0  0  0  0
    2.5956    2.0007   13.6906 C   0  0  0  0  0  0  0  0  0  0  0  0
    3.5600    2.6973   15.9566 C   0  0  0  0  0  0  0  0  0  0  0  0
    3.9737    3.6959   16.8951 C   0  0  0  0  0  0  0  0  0  0  0  0
    3.8822    1.3444   16.2940 N   0  0  0  0  0  0  0  0  0  0  0  0
    4.3928    0.7378   15.6609 H   0  0  0  0  0  0  0  0  0  0  0  0
    3.4599    0.9206   17.6100 C   0  0  0  0  0  0  0  0  0  0  0  0
    2.4431    0.0338   17.7433 N   0  0  0  0  0  0  0  0  0  0  0  0
    2.0811   -0.4818   18.8950 C   0  0  0  0  0  0  0  0  0  0  0  0
    2.8020   -0.0804   20.0422 C   0  0  0  0  0  0  0  0  0  0  0  0
    3.8340    0.8378   19.9121 C   0  0  0  0  0  0  0  0  0  0  0  0
    4.1348    1.3162   18.6851 N   0  0  0  0  0  0  0  0  0  0  0  0
    4.4309    1.4881   21.0720 C   0  0  0  0  0  0  0  0  0  0  0  0
    5.7384    1.9103   21.1295 C   0  0  0  0  0  0  0  0  0  0  0  0
    6.3317    2.2959   22.3148 C   0  0  0  0  0  0  0  0  0  0  0  0
    5.5347    2.2312   23.4405 C   0  0  0  0  0  0  0  0  0  0  0  0
    4.2453    1.8213   23.4048 N   0  0  0  0  0  0  0  0  0  0  0  0
    3.6748    1.4524   22.2733 C   0  0  0  0  0  0  0  0  0  0  0  0
    5.2814    8.9086   21.0800 C   0  0  0  0  0  0  0  0  0  0  0  0
    4.9757    7.5567   21.1195 C   0  0  0  0  0  0  0  0  0  0  0  0
    4.3308    6.9532   20.1245 C   0  0  0  0  0  0  0  0  0  0  0  0
    3.9210    7.7337   18.9496 C   0  0  0  0  0  0  0  0  0  0  0  0
    4.2146    9.0353   18.9576 C   0  0  0  0  0  0  0  0  0  0  0  0
    4.9042    9.6614   20.0207 C   0  0  0  0  0  0  0  0  0  0  0  0
    5.1793   11.0983   19.9249 C   0  0  0  0  0  0  0  0  0  0  0  0
    5.8827   11.6303   20.9549 F   0  0  0  0  0  0  0  0  0  0  0  0
    3.9843   11.7839   19.8246 F   0  0  0  0  0  0  0  0  0  0  0  0
    5.8181   11.3927   18.7002 F   0  0  0  0  0  0  0  0  0  0  0  0
    6.0820    9.4409   22.2221 C   0  0  0  0  0  0  0  0  0  0  0  0
   10.5606    6.6536   21.1252 C   0  0  0  0  0  0  0  0  0  0  0  0
    9.8603    7.4746   22.1193 N   0  0  0  0  0  0  0  0  0  0  0  0
    8.6670    6.8348   22.4832 C   0  0  0  0  0  0  0  0  0  0  0  0
    7.7359    7.8730   23.2082 C   0  0  0  0  0  0  0  0  0  0  0  0
    7.3487    8.7915   22.3080 N   0  0  0  0  0  0  0  0  0  0  0  0
    8.2413    9.0745   21.2373 C   0  0  0  0  0  0  0  0  0  0  0  0
    9.6770    8.8362   21.6731 C   0  0  0  0  0  0  0  0  0  0  0  0
 37 38  1  0  0  0
 38 39  1  0  0  0
 39 40  1  0  0  0
 40 41  1  0  0  0
 41 36  1  0  0  0
 36 26  1  0  0  0
 26 27  2  0  0  0
 27 28  1  0  0  0
 28 29  2  0  0  0
 29  1  1  0  0  0
  1  2  1  0  0  0
  2  3  2  0  0  0
  2  5  1  0  0  0
  5  6  2  0  0  0
  6  7  1  0  0  0
  7  8  2  0  0  0
  8  9  1  0  0  0
  8 10  1  0  0  0
 10 12  1  0  0  0
 12 14  1  0  0  0
 14 15  2  0  0  0
 15 16  1  0  0  0
 16 17  2  0  0  0
 17 18  1  0  0  0
 18 19  2  0  0  0
 18 20  1  0  0  0
 20 21  2  0  0  0
 21 22  1  0  0  0
 22 23  2  0  0  0
 23 24  1  0  0  0
 24 25  2  0  0  0
 10 11  2  0  0  0
 29 30  1  0  0  0
 30 31  2  0  0  0
 31 32  1  0  0  0
 32 33  1  0  0  0
 32 34  1  0  0  0
 32 35  1  0  0  0
 41 42  1  0  0  0
 42 43  1  0  0  0
 43 38  1  0  0  0
 31 26  1  0  0  0
 11  5  1  0  0  0
 19 14  1  0  0  0
 25 20  1  0  0  0
  1  4  1  0  0  0
 12 13  1  0  0  0
M  END
> <minimizedAffinity>
-10.66716

> <CNNscore>
0.5061765313

> <CNNaffinity>
7.5306510925

> <CNN_VS>
3.8118388653

> <CNNaffinity_variance>
0.0337907523

$$$$
[H]c1nc(N([H])c2c([H])c(C(=O)N([H])c3c([H])c([H])c(C([H])([H])N4C([H])([H])C([H])([H])N(C([H])([H])[H])C([H])([H])C4([H])[H])c(C(F)(F)F)c3[H])c([H])c([H])c2C([H])([H])[H])nc(-c2c([H])nc([H])c([H])c2[H])c1[H]


 43 47  0  0  0  0  0  0  0  0999 V2000
    4.1966    2.4577   15.7434 N   0  0  0  0  0  0  0  0  0  0  0  0
    2.8348    2.1208   15.2991 C   0  0  0  0  0  0  0  0  0  0  0  0
    2.0436    1.5872   15.9929 O   0  0  0  0  0  0  0  0  0  0  0  0
    4.9204    2.7152   15.0637 H   0  0  0  0  0  0  0  0  0  0  0  0
    2.6966    2.6533   13.8971 C   0  0  0  0  0  0  0  0  0  0  0  0
    3.3234    3.9644   13.8887 C   0  0  0  0  0  0  0  0  0  0  0  0
    3.6275    4.6213   12.7637 C   0  0  0  0  0  0  0  0  0  0  0  0
    3.3239    4.0298   11.5208 C   0  0  0  0  0  0  0  0  0  0  0  0
    3.7405    4.8120   10.3178 C   0  0  0  0  0  0  0  0  0  0  0  0
    2.7265    2.8132   11.5532 C   0  0  0  0  0  0  0  0  0  0  0  0
    2.4024    2.1103   12.7574 C   0  0  0  0  0  0  0  0  0  0  0  0
    2.5118    2.1002   10.3311 N   0  0  0  0  0  0  0  0  0  0  0  0
    1.6272    2.1342    9.8352 H   0  0  0  0  0  0  0  0  0  0  0  0
    3.6534    1.3614    9.8404 C   0  0  0  0  0  0  0  0  0  0  0  0
    3.8066    0.0543   10.1664 N   0  0  0  0  0  0  0  0  0  0  0  0
    4.7522   -0.7079    9.6683 C   0  0  0  0  0  0  0  0  0  0  0  0
    5.6445   -0.1173    8.7453 C   0  0  0  0  0  0  0  0  0  0  0  0
    5.4999    1.2237    8.4199 C   0  0  0  0  0  0  0  0  0  0  0  0
    4.4967    1.9305    8.9846 N   0  0  0  0  0  0  0  0  0  0  0  0
    6.5336    1.9510    7.6939 C   0  0  0  0  0  0  0  0  0  0  0  0
    6.7126    1.8796    6.3323 C   0  0  0  0  0  0  0  0  0  0  0  0
    7.8400    2.3830    5.7148 C   0  0  0  0  0  0  0  0  0  0  0  0
    8.7788    2.9616    6.5458 C   0  0  0  0  0  0  0  0  0  0  0  0
    8.6203    3.0443    7.8874 N   0  0  0  0  0  0  0  0  0  0  0  0
    7.5435    2.5645    8.4810 C   0  0  0  0  0  0  0  0  0  0  0  0
    4.9691    3.2162   19.7125 C   0  0  0  0  0  0  0  0  0  0  0  0
    5.2977    4.0453   18.6507 C   0  0  0  0  0  0  0  0  0  0  0  0
    5.0617    3.6969   17.3886 C   0  0  0  0  0  0  0  0  0  0  0  0
    4.4419    2.3967   17.1010 C   0  0  0  0  0  0  0  0  0  0  0  0
    4.1592    1.6184   18.1473 C   0  0  0  0  0  0  0  0  0  0  0  0
    4.4123    2.0045   19.4832 C   0  0  0  0  0  0  0  0  0  0  0  0
    4.0584    1.0729   20.5587 C   0  0  0  0  0  0  0  0  0  0  0  0
    3.3681    1.6093   21.5952 F   0  0  0  0  0  0  0  0  0  0  0  0
    5.2108    0.5019   21.0627 F   0  0  0  0  0  0  0  0  0  0  0  0
    3.3580   -0.0356   20.0337 F   0  0  0  0  0  0  0  0  0  0  0  0
    5.2092    3.7640   21.0803 C   0  0  0  0  0  0  0  0  0  0  0  0
    6.8537    8.7559   22.2665 C   0  0  0  0  0  0  0  0  0  0  0  0
    6.3085    7.8778   21.2251 N   0  0  0  0  0  0  0  0  0  0  0  0
    5.0577    7.3981   21.6388 C   0  0  0  0  0  0  0  0  0  0  0  0
    4.6675    6.1643   20.7469 C   0  0  0  0  0  0  0  0  0  0  0  0
    5.5097    5.1572   21.0300 N   0  0  0  0  0  0  0  0  0  0  0  0
    6.8241    5.5024   21.4501 C   0  0  0  0  0  0  0  0  0  0  0  0
    7.2349    6.8355   20.8482 C   0  0  0  0  0  0  0  0  0  0  0  0
 37 38  1  0  0  0
 38 39  1  0  0  0
 39 40  1  0  0  0
 40 41  1  0  0  0
 41 36  1  0  0  0
 36 26  1  0  0  0
 26 27  2  0  0  0
 27 28  1  0  0  0
 28 29  2  0  0  0
 29  1  1  0  0  0
  1  2  1  0  0  0
  2  3  2  0  0  0
  2  5  1  0  0  0
  5  6  2  0  0  0
  6  7  1  0  0  0
  7  8  2  0  0  0
  8  9  1  0  0  0
  8 10  1  0  0  0
 10 12  1  0  0  0
 12 14  1  0  0  0
 14 15  2  0  0  0
 15 16  1  0  0  0
 16 17  2  0  0  0
 17 18  1  0  0  0
 18 19  2  0  0  0
 18 20  1  0  0  0
 20 21  2  0  0  0
 21 22  1  0  0  0
 22 23  2  0  0  0
 23 24  1  0  0  0
 24 25  2  0  0  0
 10 11  2  0  0  0
 29 30  1  0  0  0
 30 31  2  0  0  0
 31 32  1  0  0  0
 32 33  1  0  0  0
 32 34  1  0  0  0
 32 35  1  0  0  0
 41 42  1  0  0  0
 42 43  1  0  0  0
 43 38  1  0  0  0
 31 26  1  0  0  0
 11  5  1  0  0  0
 19 14  1  0  0  0
 25 20  1  0  0  0
  1  4  1  0  0  0
 12 13  1  0  0  0
M  END
> <minimizedAffinity>
-9.06694

> <CNNscore>
0.2697100341

> <CNNaffinity>
6.9627737999

> <CNN_VS>
1.8779299259

> <CNNaffinity_variance>
0.1571397632

$$$$
[H]c1nc(N([H])c2c([H])c(C(=O)N([H])c3c([H])c([H])c(C([H])([H])N4C([H])([H])C([H])([H])N(C([H])([H])[H])C([H])([H])C4([H])[H])c(C(F)(F)F)c3[H])c([H])c([H])c2C([H])([H])[H])nc(-c2c([H])nc([H])c([H])c2[H])c1[H]


 43 47  0  0  0  0  0  0  0  0999 V2000
    4.7175    2.9712   16.8358 N   0  0  0  0  0  0  0  0  0  0  0  0
    3.5954    2.1236   16.4025 C   0  0  0  0  0  0  0  0  0  0  0  0
    3.0887    1.3182   17.1001 O   0  0  0  0  0  0  0  0  0  0  0  0
    5.2719    3.4963   16.1510 H   0  0  0  0  0  0  0  0  0  0  0  0
    3.2406    2.5619   15.0060 C   0  0  0  0  0  0  0  0  0  0  0  0
    2.1781    1.6799   14.5528 C   0  0  0  0  0  0  0  0  0  0  0  0
    1.4315    1.9315   13.4717 C   0  0  0  0  0  0  0  0  0  0  0  0
    1.6812    3.0990   12.7224 C   0  0  0  0  0  0  0  0  0  0  0  0
    0.7700    3.3237   11.5597 C   0  0  0  0  0  0  0  0  0  0  0  0
    2.6862    3.8993   13.1555 C   0  0  0  0  0  0  0  0  0  0  0  0
    3.4840    3.6301   14.3131 C   0  0  0  0  0  0  0  0  0  0  0  0
    2.9052    5.1628   12.5201 N   0  0  0  0  0  0  0  0  0  0  0  0
    2.2960    5.9587   12.6783 H   0  0  0  0  0  0  0  0  0  0  0  0
    4.0721    5.2302   11.6694 C   0  0  0  0  0  0  0  0  0  0  0  0
    4.8616    6.3323   11.6871 N   0  0  0  0  0  0  0  0  0  0  0  0
    5.9948    6.4191   11.0303 C   0  0  0  0  0  0  0  0  0  0  0  0
    6.3954    5.2949   10.2736 C   0  0  0  0  0  0  0  0  0  0  0  0
    5.5833    4.1704   10.2414 C   0  0  0  0  0  0  0  0  0  0  0  0
    4.4324    4.1727   10.9488 N   0  0  0  0  0  0  0  0  0  0  0  0
    5.8012    3.0960    9.2808 C   0  0  0  0  0  0  0  0  0  0  0  0
    7.0431    2.6612    8.8813 C   0  0  0  0  0  0  0  0  0  0  0  0
    7.2112    1.8188    7.8006 C   0  0  0  0  0  0  0  0  0  0  0  0
    6.0578    1.4394    7.1430 C   0  0  0  0  0  0  0  0  0  0  0  0
    4.8263    1.8539    7.5219 N   0  0  0  0  0  0  0  0  0  0  0  0
    4.6621    2.6589    8.5548 C   0  0  0  0  0  0  0  0  0  0  0  0
    5.2630    3.9893   20.7845 C   0  0  0  0  0  0  0  0  0  0  0  0
    5.3142    4.8624   19.7086 C   0  0  0  0  0  0  0  0  0  0  0  0
    5.1823    4.4395   18.4541 C   0  0  0  0  0  0  0  0  0  0  0  0
    4.9833    3.0083   18.1904 C   0  0  0  0  0  0  0  0  0  0  0  0
    4.9603    2.1972   19.2497 C   0  0  0  0  0  0  0  0  0  0  0  0
    5.0977    2.6624   20.5773 C   0  0  0  0  0  0  0  0  0  0  0  0
    5.0537    1.6840   21.6684 C   0  0  0  0  0  0  0  0  0  0  0  0
    4.9321    0.3879   21.2889 F   0  0  0  0  0  0  0  0  0  0  0  0
    3.9973    1.9848   22.5060 F   0  0  0  0  0  0  0  0  0  0  0  0
    6.1787    1.8381   22.5082 F   0  0  0  0  0  0  0  0  0  0  0  0
    5.3393    4.6051   22.1423 C   0  0  0  0  0  0  0  0  0  0  0  0
    9.5440    7.6703   23.5405 C   0  0  0  0  0  0  0  0  0  0  0  0
    8.5065    7.4281   22.5317 N   0  0  0  0  0  0  0  0  0  0  0  0
    7.2457    7.5964   23.1217 C   0  0  0  0  0  0  0  0  0  0  0  0
    6.1591    6.9485   22.1891 C   0  0  0  0  0  0  0  0  0  0  0  0
    6.3420    5.6180   22.1911 N   0  0  0  0  0  0  0  0  0  0  0  0
    7.6674    5.1404   22.3869 C   0  0  0  0  0  0  0  0  0  0  0  0
    8.6732    6.1549   21.8701 C   0  0  0  0  0  0  0  0  0  0  0  0
 37 38  1  0  0  0
 38 39  1  0  0  0
 39 40  1  0  0  0
 40 41  1  0  0  0
 41 36  1  0  0  0
 36 26  1  0  0  0
 26 27  2  0  0  0
 27 28  1  0  0  0
 28 29  2  0  0  0
 29  1  1  0  0  0
  1  2  1  0  0  0
  2  3  2  0  0  0
  2  5  1  0  0  0
  5  6  2  0  0  0
  6  7  1  0  0  0
  7  8  2  0  0  0
  8  9  1  0  0  0
  8 10  1  0  0  0
 10 12  1  0  0  0
 12 14  1  0  0  0
 14 15  2  0  0  0
 15 16  1  0  0  0
 16 17  2  0  0  0
 17 18  1  0  0  0
 18 19  2  0  0  0
 18 20  1  0  0  0
 20 21  2  0  0  0
 21 22  1  0  0  0
 22 23  2  0  0  0
 23 24  1  0  0  0
 24 25  2  0  0  0
 10 11  2  0  0  0
 29 30  1  0  0  0
 30 31  2  0  0  0
 31 32  1  0  0  0
 32 33  1  0  0  0
 32 34  1  0  0  0
 32 35  1  0  0  0
 41 42  1  0  0  0
 42 43  1  0  0  0
 43 38  1  0  0  0
 31 26  1  0  0  0
 11  5  1  0  0  0
 19 14  1  0  0  0
 25 20  1  0  0  0
  1  4  1  0  0  0
 12 13  1  0  0  0
M  END
> <minimizedAffinity>
-8.91779

> <CNNscore>
0.2112601995

> <CNNaffinity>
6.8567199707

> <CNN_VS>
1.4485520124

> <CNNaffinity_variance>
0.1156952530

$$$$
[H]c1nc(N([H])c2c([H])c(C(=O)N([H])c3c([H])c([H])c(C([H])([H])N4C([H])([H])C([H])([H])N(C([H])([H])[H])C([H])([H])C4([H])[H])c(C(F)(F)F)c3[H])c([H])c([H])c2C([H])([H])[H])nc(-c2c([H])nc([H])c([H])c2[H])c1[H]


 43 47  0  0  0  0  0  0  0  0999 V2000
    4.8310    3.2048   16.7382 N   0  0  0  0  0  0  0  0  0  0  0  0
    3.7050    2.3938   16.2487 C   0  0  0  0  0  0  0  0  0  0  0  0
    3.1123    1.6350   16.9306 O   0  0  0  0  0  0  0  0  0  0  0  0
    5.4572    3.6820   16.0807 H   0  0  0  0  0  0  0  0  0  0  0  0
    3.4728    2.8010   14.8175 C   0  0  0  0  0  0  0  0  0  0  0  0
    2.4916    1.8748   14.2776 C   0  0  0  0  0  0  0  0  0  0  0  0
    1.8455    2.0850   13.1252 C   0  0  0  0  0  0  0  0  0  0  0  0
    2.1255    3.2514   12.3849 C   0  0  0  0  0  0  0  0  0  0  0  0
    1.3247    3.4277   11.1358 C   0  0  0  0  0  0  0  0  0  0  0  0
    3.0544    4.0936   12.9005 C   0  0  0  0  0  0  0  0  0  0  0  0
    3.7446    3.8687   14.1343 C   0  0  0  0  0  0  0  0  0  0  0  0
    3.2895    5.3562   12.2690 N   0  0  0  0  0  0  0  0  0  0  0  0
    2.7852    6.1951   12.5367 H   0  0  0  0  0  0  0  0  0  0  0  0
    4.3175    5.3546   11.2527 C   0  0  0  0  0  0  0  0  0  0  0  0
    5.3384    4.4651   11.3220 N   0  0  0  0  0  0  0  0  0  0  0  0
    6.2423    4.3289   10.3798 C   0  0  0  0  0  0  0  0  0  0  0  0
    6.1264    5.1596    9.2426 C   0  0  0  0  0  0  0  0  0  0  0  0
    5.0913    6.0810    9.1743 C   0  0  0  0  0  0  0  0  0  0  0  0
    4.2080    6.1512   10.1940 N   0  0  0  0  0  0  0  0  0  0  0  0
    5.0714    7.1369    8.1697 C   0  0  0  0  0  0  0  0  0  0  0  0
    5.2993    6.9285    6.8296 C   0  0  0  0  0  0  0  0  0  0  0  0
    5.5126    7.9726    5.9522 C   0  0  0  0  0  0  0  0  0  0  0  0
    5.4853    9.2397    6.5001 C   0  0  0  0  0  0  0  0  0  0  0  0
    5.2601    9.4663    7.8153 N   0  0  0  0  0  0  0  0  0  0  0  0
    5.0552    8.4704    8.6569 C   0  0  0  0  0  0  0  0  0  0  0  0
    5.1257    4.3252   20.6858 C   0  0  0  0  0  0  0  0  0  0  0  0
    5.2847    5.1628   19.5922 C   0  0  0  0  0  0  0  0  0  0  0  0
    5.2289    4.7061   18.3439 C   0  0  0  0  0  0  0  0  0  0  0  0
    4.9996    3.2748   18.1070 C   0  0  0  0  0  0  0  0  0  0  0  0
    4.8722    2.4978   19.1842 C   0  0  0  0  0  0  0  0  0  0  0  0
    4.9296    2.9987   20.5047 C   0  0  0  0  0  0  0  0  0  0  0  0
    4.7731    2.0563   21.6168 C   0  0  0  0  0  0  0  0  0  0  0  0
    4.6390    0.7533   21.2664 F   0  0  0  0  0  0  0  0  0  0  0  0
    3.6671    2.4139   22.3631 F   0  0  0  0  0  0  0  0  0  0  0  0
    5.8365    2.2029   22.5346 F   0  0  0  0  0  0  0  0  0  0  0  0
    5.1254    4.9797   22.0276 C   0  0  0  0  0  0  0  0  0  0  0  0
    9.6173    7.3777   23.7890 C   0  0  0  0  0  0  0  0  0  0  0  0
    8.6154    7.3238   22.7185 N   0  0  0  0  0  0  0  0  0  0  0  0
    7.3572    7.6368   23.2523 C   0  0  0  0  0  0  0  0  0  0  0  0
    6.2480    7.1848   22.2346 C   0  0  0  0  0  0  0  0  0  0  0  0
    6.2504    5.8430   22.1781 N   0  0  0  0  0  0  0  0  0  0  0  0
    7.4867    5.1807   22.4155 C   0  0  0  0  0  0  0  0  0  0  0  0
    8.6470    6.0699   22.0021 C   0  0  0  0  0  0  0  0  0  0  0  0
 37 38  1  0  0  0
 38 39  1  0  0  0
 39 40  1  0  0  0
 40 41  1  0  0  0
 41 36  1  0  0  0
 36 26  1  0  0  0
 26 27  2  0  0  0
 27 28  1  0  0  0
 28 29  2  0  0  0
 29  1  1  0  0  0
  1  2  1  0  0  0
  2  3  2  0  0  0
  2  5  1  0  0  0
  5  6  2  0  0  0
  6  7  1  0  0  0
  7  8  2  0  0  0
  8  9  1  0  0  0
  8 10  1  0  0  0
 10 12  1  0  0  0
 12 14  1  0  0  0
 14 15  2  0  0  0
 15 16  1  0  0  0
 16 17  2  0  0  0
 17 18  1  0  0  0
 18 19  2  0  0  0
 18 20  1  0  0  0
 20 21  2  0  0  0
 21 22  1  0  0  0
 22 23  2  0  0  0
 23 24  1  0  0  0
 24 25  2  0  0  0
 10 11  2  0  0  0
 29 30  1  0  0  0
 30 31  2  0  0  0
 31 32  1  0  0  0
 32 33  1  0  0  0
 32 34  1  0  0  0
 32 35  1  0  0  0
 41 42  1  0  0  0
 42 43  1  0  0  0
 43 38  1  0  0  0
 31 26  1  0  0  0
 11  5  1  0  0  0
 19 14  1  0  0  0
 25 20  1  0  0  0
  1  4  1  0  0  0
 12 13  1  0  0  0
M  END
> <minimizedAffinity>
-8.72943

> <CNNscore>
0.1993684620

> <CNNaffinity>
6.6604776382

> <CNN_VS>
1.3278892040

> <CNNaffinity_variance>
0.2155868262

$$$$
[H]c1nc(N([H])c2c([H])c(C(=O)N([H])c3c([H])c([H])c(C([H])([H])N4C([H])([H])C([H])([H])N(C([H])([H])[H])C([H])([H])C4([H])[H])c(C(F)(F)F)c3[H])c([H])c([H])c2C([H])([H])[H])nc(-c2c([H])nc([H])c([H])c2[H])c1[H]


 43 47  0  0  0  0  0  0  0  0999 V2000
    2.7724    1.5905   15.5248 N   0  0  0  0  0  0  0  0  0  0  0  0
    3.8312    2.2783   16.2805 C   0  0  0  0  0  0  0  0  0  0  0  0
    4.5725    3.0548   15.7910 O   0  0  0  0  0  0  0  0  0  0  0  0
    2.2956    0.7720   15.9183 H   0  0  0  0  0  0  0  0  0  0  0  0
    3.6873    1.8423   17.7149 C   0  0  0  0  0  0  0  0  0  0  0  0
    2.8022    0.6895   17.7102 C   0  0  0  0  0  0  0  0  0  0  0  0
    2.6561   -0.1234   18.7627 C   0  0  0  0  0  0  0  0  0  0  0  0
    3.3823    0.1432   19.9410 C   0  0  0  0  0  0  0  0  0  0  0  0
    3.1938   -0.8416   21.0488 C   0  0  0  0  0  0  0  0  0  0  0  0
    4.1904    1.2317   19.9272 C   0  0  0  0  0  0  0  0  0  0  0  0
    4.3472    2.1005   18.8004 C   0  0  0  0  0  0  0  0  0  0  0  0
    5.0532    1.4835   21.0409 N   0  0  0  0  0  0  0  0  0  0  0  0
    5.7161    0.7924   21.3765 H   0  0  0  0  0  0  0  0  0  0  0  0
    4.9358    2.8004   21.6256 C   0  0  0  0  0  0  0  0  0  0  0  0
    3.8615    3.1084   22.3932 N   0  0  0  0  0  0  0  0  0  0  0  0
    3.7424    4.2403   23.0473 C   0  0  0  0  0  0  0  0  0  0  0  0
    4.7995    5.1710   22.9340 C   0  0  0  0  0  0  0  0  0  0  0  0
    5.8942    4.8656   22.1380 C   0  0  0  0  0  0  0  0  0  0  0  0
    5.9290    3.6753   21.5002 N   0  0  0  0  0  0  0  0  0  0  0  0
    6.8776    5.8760   21.7683 C   0  0  0  0  0  0  0  0  0  0  0  0
    7.9771    6.1948   22.5303 C   0  0  0  0  0  0  0  0  0  0  0  0
    8.7457    7.3126   22.2748 C   0  0  0  0  0  0  0  0  0  0  0  0
    8.3442    8.0933   21.2089 C   0  0  0  0  0  0  0  0  0  0  0  0
    7.2672    7.7956   20.4452 N   0  0  0  0  0  0  0  0  0  0  0  0
    6.5305    6.7274   20.6864 C   0  0  0  0  0  0  0  0  0  0  0  0
    1.8588    3.9166   12.2566 C   0  0  0  0  0  0  0  0  0  0  0  0
    1.5900    4.2364   13.5788 C   0  0  0  0  0  0  0  0  0  0  0  0
    1.8687    3.3991   14.5745 C   0  0  0  0  0  0  0  0  0  0  0  0
    2.4720    2.0940   14.2745 C   0  0  0  0  0  0  0  0  0  0  0  0
    2.6966    1.8142   12.9893 C   0  0  0  0  0  0  0  0  0  0  0  0
    2.3988    2.7162   11.9426 C   0  0  0  0  0  0  0  0  0  0  0  0
    2.6901    2.3084   10.5648 C   0  0  0  0  0  0  0  0  0  0  0  0
    1.6189    2.2338    9.7368 F   0  0  0  0  0  0  0  0  0  0  0  0
    3.3071    1.0726   10.5776 F   0  0  0  0  0  0  0  0  0  0  0  0
    3.6763    3.1500   10.0045 F   0  0  0  0  0  0  0  0  0  0  0  0
    1.5760    4.9791   11.2468 C   0  0  0  0  0  0  0  0  0  0  0  0
   -3.7804    4.3985   11.2976 C   0  0  0  0  0  0  0  0  0  0  0  0
   -2.6351    4.9939   10.6000 N   0  0  0  0  0  0  0  0  0  0  0  0
   -1.7889    3.9699   10.1514 C   0  0  0  0  0  0  0  0  0  0  0  0
   -0.3925    4.5905    9.7841 C   0  0  0  0  0  0  0  0  0  0  0  0
    0.1892    5.0177   10.9167 N   0  0  0  0  0  0  0  0  0  0  0  0
   -0.6657    5.4478   11.9690 C   0  0  0  0  0  0  0  0  0  0  0  0
   -1.9653    5.9922   11.4008 C   0  0  0  0  0  0  0  0  0  0  0  0
 37 38  1  0  0  0
 38 39  1  0  0  0
 39 40  1  0  0  0
 40 41  1  0  0  0
 41 36  1  0  0  0
 36 26  1  0  0  0
 26 27  2  0  0  0
 27 28  1  0  0  0
 28 29  2  0  0  0
 29  1  1  0  0  0
  1  2  1  0  0  0
  2  3  2  0  0  0
  2  5  1  0  0  0
  5  6  2  0  0  0
  6  7  1  0  0  0
  7  8  2  0  0  0
  8  9  1  0  0  0
  8 10  1  0  0  0
 10 12  1  0  0  0
 12 14  1  0  0  0
 14 15  2  0  0  0
 15 16  1  0  0  0
 16 17  2  0  0  0
 17 18  1  0  0  0
 18 19  2  0  0  0
 18 20  1  0  0  0
 20 21  2  0  0  0
 21 22  1  0  0  0
 22 23  2  0  0  0
 23 24  1  0  0  0
 24 25  2  0  0  0
 10 11  2  0  0  0
 29 30  1  0  0  0
 30 31  2  0  0  0
 31 32  1  0  0  0
 32 33  1  0  0  0
 32 34  1  0  0  0
 32 35  1  0  0  0
 41 42  1  0  0  0
 42 43  1  0  0  0
 43 38  1  0  0  0
 31 26  1  0  0  0
 11  5  1  0  0  0
 19 14  1  0  0  0
 25 20  1  0  0  0
  1  4  1  0  0  0
 12 13  1  0  0  0
M  END
> <minimizedAffinity>
-8.66398

> <CNNscore>
0.1911470294

> <CNNaffinity>
6.8302373886

> <CNN_VS>
1.3055795431

> <CNNaffinity_variance>
0.0999055058

$$$$
[H]c1nc(N([H])c2c([H])c(C(=O)N([H])c3c([H])c([H])c(C([H])([H])N4C([H])([H])C([H])([H])N(C([H])([H])[H])C([H])([H])C4([H])[H])c(C(F)(F)F)c3[H])c([H])c([H])c2C([H])([H])[H])nc(-c2c([H])nc([H])c([H])c2[H])c1[H]


 43 47  0  0  0  0  0  0  0  0999 V2000
    2.7708    1.6127   15.6763 N   0  0  0  0  0  0  0  0  0  0  0  0
    3.8585    2.2046   16.4712 C   0  0  0  0  0  0  0  0  0  0  0  0
    4.6591    2.9439   16.0190 O   0  0  0  0  0  0  0  0  0  0  0  0
    2.2331    0.8166   16.0357 H   0  0  0  0  0  0  0  0  0  0  0  0
    3.6584    1.7361   17.8885 C   0  0  0  0  0  0  0  0  0  0  0  0
    2.7904    0.5724   17.8211 C   0  0  0  0  0  0  0  0  0  0  0  0
    2.6100   -0.2646   18.8490 C   0  0  0  0  0  0  0  0  0  0  0  0
    3.2805   -0.0140   20.0632 C   0  0  0  0  0  0  0  0  0  0  0  0
    3.0578   -1.0247   21.1410 C   0  0  0  0  0  0  0  0  0  0  0  0
    4.0734    1.0849   20.1075 C   0  0  0  0  0  0  0  0  0  0  0  0
    4.2669    1.9795   19.0069 C   0  0  0  0  0  0  0  0  0  0  0  0
    4.8835    1.3239   21.2628 N   0  0  0  0  0  0  0  0  0  0  0  0
    5.4736    0.6035   21.6659 H   0  0  0  0  0  0  0  0  0  0  0  0
    4.8258    2.6696   21.7878 C   0  0  0  0  0  0  0  0  0  0  0  0
    3.8009    3.0396   22.5945 N   0  0  0  0  0  0  0  0  0  0  0  0
    3.7412    4.2040   23.1978 C   0  0  0  0  0  0  0  0  0  0  0  0
    4.8107    5.1025   22.9840 C   0  0  0  0  0  0  0  0  0  0  0  0
    5.8545    4.7332   22.1478 C   0  0  0  0  0  0  0  0  0  0  0  0
    5.8295    3.5133   21.5681 N   0  0  0  0  0  0  0  0  0  0  0  0
    6.8383    5.7008   21.6783 C   0  0  0  0  0  0  0  0  0  0  0  0
    8.0161    5.9791   22.3312 C   0  0  0  0  0  0  0  0  0  0  0  0
    8.8013    7.0635   21.9945 C   0  0  0  0  0  0  0  0  0  0  0  0
    8.3331    7.8536   20.9634 C   0  0  0  0  0  0  0  0  0  0  0  0
    7.1783    7.5953   20.3064 N   0  0  0  0  0  0  0  0  0  0  0  0
    6.4255    6.5593   20.6255 C   0  0  0  0  0  0  0  0  0  0  0  0
    2.0512    4.0905   12.4718 C   0  0  0  0  0  0  0  0  0  0  0  0
    1.7569    4.3740   13.7968 C   0  0  0  0  0  0  0  0  0  0  0  0
    1.9711    3.4907   14.7683 C   0  0  0  0  0  0  0  0  0  0  0  0
    2.5287    2.1727   14.4374 C   0  0  0  0  0  0  0  0  0  0  0  0
    2.7794    1.9297   13.1496 C   0  0  0  0  0  0  0  0  0  0  0  0
    2.5502    2.8803   12.1290 C   0  0  0  0  0  0  0  0  0  0  0  0
    2.8651    2.5099   10.7458 C   0  0  0  0  0  0  0  0  0  0  0  0
    1.8554    2.6631    9.8538 F   0  0  0  0  0  0  0  0  0  0  0  0
    3.2703    1.1899   10.7099 F   0  0  0  0  0  0  0  0  0  0  0  0
    4.0112    3.2062   10.3026 F   0  0  0  0  0  0  0  0  0  0  0  0
    1.8426    5.1994   11.4943 C   0  0  0  0  0  0  0  0  0  0  0  0
    5.2621    8.6220   13.8657 C   0  0  0  0  0  0  0  0  0  0  0  0
    4.2788    8.4452   12.7912 N   0  0  0  0  0  0  0  0  0  0  0  0
    3.0319    8.1422   13.3563 C   0  0  0  0  0  0  0  0  0  0  0  0
    2.0974    7.5550   12.2373 C   0  0  0  0  0  0  0  0  0  0  0  0
    2.5839    6.3591   11.8675 N   0  0  0  0  0  0  0  0  0  0  0  0
    3.9893    6.1649   11.9694 C   0  0  0  0  0  0  0  0  0  0  0  0
    4.7161    7.4884   11.8013 C   0  0  0  0  0  0  0  0  0  0  0  0
 37 38  1  0  0  0
 38 39  1  0  0  0
 39 40  1  0  0  0
 40 41  1  0  0  0
 41 36  1  0  0  0
 36 26  1  0  0  0
 26 27  2  0  0  0
 27 28  1  0  0  0
 28 29  2  0  0  0
 29  1  1  0  0  0
  1  2  1  0  0  0
  2  3  2  0  0  0
  2  5  1  0  0  0
  5  6  2  0  0  0
  6  7  1  0  0  0
  7  8  2  0  0  0
  8  9  1  0  0  0
  8 10  1  0  0  0
 10 12  1  0  0  0
 12 14  1  0  0  0
 14 15  2  0  0  0
 15 16  1  0  0  0
 16 17  2  0  0  0
 17 18  1  0  0  0
 18 19  2  0  0  0
 18 20  1  0  0  0
 20 21  2  0  0  0
 21 22  1  0  0  0
 22 23  2  0  0  0
 23 24  1  0  0  0
 24 25  2  0  0  0
 10 11  2  0  0  0
 29 30  1  0  0  0
 30 31  2  0  0  0
 31 32  1  0  0  0
 32 33  1  0  0  0
 32 34  1  0  0  0
 32 35  1  0  0  0
 41 42  1  0  0  0
 42 43  1  0  0  0
 43 38  1  0  0  0
 31 26  1  0  0  0
 11  5  1  0  0  0
 19 14  1  0  0  0
 25 20  1  0  0  0
  1  4  1  0  0  0
 12 13  1  0  0  0
M  END
> <minimizedAffinity>
-8.82489

> <CNNscore>
0.1835268289

> <CNNaffinity>
6.9566545486

> <CNN_VS>
1.2767328024

> <CNNaffinity_variance>
0.0971126929

$$$$
[H]c1nc(N([H])c2c([H])c(C(=O)N([H])c3c([H])c([H])c(C([H])([H])N4C([H])([H])C([H])([H])N(C([H])([H])[H])C([H])([H])C4([H])[H])c(C(F)(F)F)c3[H])c([H])c([H])c2C([H])([H])[H])nc(-c2c([H])nc([H])c([H])c2[H])c1[H]


 43 47  0  0  0  0  0  0  0  0999 V2000
    4.3567    3.3325   16.3863 N   0  0  0  0  0  0  0  0  0  0  0  0
    3.0439    2.7502   16.0659 C   0  0  0  0  0  0  0  0  0  0  0  0
    2.3935    2.1552   16.8501 O   0  0  0  0  0  0  0  0  0  0  0  0
    4.9865    3.6462   15.6399 H   0  0  0  0  0  0  0  0  0  0  0  0
    2.7364    3.1408   14.6442 C   0  0  0  0  0  0  0  0  0  0  0  0
    2.5454    1.9030   13.9070 C   0  0  0  0  0  0  0  0  0  0  0  0
    2.0001    1.8566   12.6863 C   0  0  0  0  0  0  0  0  0  0  0  0
    1.5944    3.0579   12.0705 C   0  0  0  0  0  0  0  0  0  0  0  0
    0.9534    2.9080   10.7290 C   0  0  0  0  0  0  0  0  0  0  0  0
    1.7954    4.2013   12.7707 C   0  0  0  0  0  0  0  0  0  0  0  0
    2.3779    4.2501   14.0773 C   0  0  0  0  0  0  0  0  0  0  0  0
    1.2875    5.4386   12.2614 N   0  0  0  0  0  0  0  0  0  0  0  0
    1.8041    5.9983   11.5910 H   0  0  0  0  0  0  0  0  0  0  0  0
   -0.0236    5.8110   12.7431 C   0  0  0  0  0  0  0  0  0  0  0  0
   -0.1480    6.5214   13.8911 N   0  0  0  0  0  0  0  0  0  0  0  0
   -1.2929    6.9912   14.3289 C   0  0  0  0  0  0  0  0  0  0  0  0
   -2.4423    6.7342   13.5482 C   0  0  0  0  0  0  0  0  0  0  0  0
   -2.3216    5.9954   12.3799 C   0  0  0  0  0  0  0  0  0  0  0  0
   -1.1011    5.5508   12.0089 N   0  0  0  0  0  0  0  0  0  0  0  0
   -3.4888    5.4727   11.6806 C   0  0  0  0  0  0  0  0  0  0  0  0
   -4.7834    5.8409   11.9625 C   0  0  0  0  0  0  0  0  0  0  0  0
   -5.8672    5.1533   11.4544 C   0  0  0  0  0  0  0  0  0  0  0  0
   -5.5745    4.0722   10.6468 C   0  0  0  0  0  0  0  0  0  0  0  0
   -4.3077    3.6953   10.3550 N   0  0  0  0  0  0  0  0  0  0  0  0
   -3.2693    4.3507   10.8388 C   0  0  0  0  0  0  0  0  0  0  0  0
    4.8563    4.3951   20.3293 C   0  0  0  0  0  0  0  0  0  0  0  0
    4.5926    5.2661   19.2830 C   0  0  0  0  0  0  0  0  0  0  0  0
    4.5012    4.8445   18.0244 C   0  0  0  0  0  0  0  0  0  0  0  0
    4.6900    3.4193   17.7235 C   0  0  0  0  0  0  0  0  0  0  0  0
    4.9625    2.6161   18.7537 C   0  0  0  0  0  0  0  0  0  0  0  0
    5.0523    3.0785   20.0863 C   0  0  0  0  0  0  0  0  0  0  0  0
    5.3531    2.1083   21.1436 C   0  0  0  0  0  0  0  0  0  0  0  0
    6.5653    2.2440   21.7359 F   0  0  0  0  0  0  0  0  0  0  0  0
    5.2718    0.8309   20.6245 F   0  0  0  0  0  0  0  0  0  0  0  0
    4.3337    2.1195   22.1211 F   0  0  0  0  0  0  0  0  0  0  0  0
    4.8478    4.9847   21.7007 C   0  0  0  0  0  0  0  0  0  0  0  0
    8.5910    8.8376   21.2842 C   0  0  0  0  0  0  0  0  0  0  0  0
    8.0963    7.7141   22.0877 N   0  0  0  0  0  0  0  0  0  0  0  0
    8.1612    6.5405   21.3234 C   0  0  0  0  0  0  0  0  0  0  0  0
    7.2695    5.4409   22.0060 C   0  0  0  0  0  0  0  0  0  0  0  0
    5.9848    5.8201   21.9077 N   0  0  0  0  0  0  0  0  0  0  0  0
    5.7155    7.2165   21.8810 C   0  0  0  0  0  0  0  0  0  0  0  0
    6.7889    7.9734   22.6445 C   0  0  0  0  0  0  0  0  0  0  0  0
 37 38  1  0  0  0
 38 39  1  0  0  0
 39 40  1  0  0  0
 40 41  1  0  0  0
 41 36  1  0  0  0
 36 26  1  0  0  0
 26 27  2  0  0  0
 27 28  1  0  0  0
 28 29  2  0  0  0
 29  1  1  0  0  0
  1  2  1  0  0  0
  2  3  2  0  0  0
  2  5  1  0  0  0
  5  6  2  0  0  0
  6  7  1  0  0  0
  7  8  2  0  0  0
  8  9  1  0  0  0
  8 10  1  0  0  0
 10 12  1  0  0  0
 12 14  1  0  0  0
 14 15  2  0  0  0
 15 16  1  0  0  0
 16 17  2  0  0  0
 17 18  1  0  0  0
 18 19  2  0  0  0
 18 20  1  0  0  0
 20 21  2  0  0  0
 21 22  1  0  0  0
 22 23  2  0  0  0
 23 24  1  0  0  0
 24 25  2  0  0  0
 10 11  2  0  0  0
 29 30  1  0  0  0
 30 31  2  0  0  0
 31 32  1  0  0  0
 32 33  1  0  0  0
 32 34  1  0  0  0
 32 35  1  0  0  0
 41 42  1  0  0  0
 42 43  1  0  0  0
 43 38  1  0  0  0
 31 26  1  0  0  0
 11  5  1  0  0  0
 19 14  1  0  0  0
 25 20  1  0  0  0
  1  4  1  0  0  0
 12 13  1  0  0  0
M  END
> <minimizedAffinity>
-9.57234

> <CNNscore>
0.1532376856

> <CNNaffinity>
6.6250371933

> <CNN_VS>
1.0152053833

> <CNNaffinity_variance>
0.0948839709

$$$$
[H]c1nc(N([H])c2c([H])c(C(=O)N([H])c3c([H])c([H])c(C([H])([H])N4C([H])([H])C([H])([H])N(C([H])([H])[H])C([H])([H])C4([H])[H])c(C(F)(F)F)c3[H])c([H])c([H])c2C([H])([H])[H])nc(-c2c([H])nc([H])c([H])c2[H])c1[H]


 43 47  0  0  0  0  0  0  0  0999 V2000
    4.2345    2.4455   16.0933 N   0  0  0  0  0  0  0  0  0  0  0  0
    2.8102    2.5767   15.7477 C   0  0  0  0  0  0  0  0  0  0  0  0
    1.9459    2.5403   16.5500 O   0  0  0  0  0  0  0  0  0  0  0  0
    4.9348    2.2620   15.3666 H   0  0  0  0  0  0  0  0  0  0  0  0
    2.7498    2.8275   14.2639 C   0  0  0  0  0  0  0  0  0  0  0  0
    1.7664    1.9016   13.7274 C   0  0  0  0  0  0  0  0  0  0  0  0
    1.2540    2.0126   12.4966 C   0  0  0  0  0  0  0  0  0  0  0  0
    1.6849    3.0675   11.6670 C   0  0  0  0  0  0  0  0  0  0  0  0
    1.0262    3.1424   10.3279 C   0  0  0  0  0  0  0  0  0  0  0  0
    2.6131    3.9102   12.1832 C   0  0  0  0  0  0  0  0  0  0  0  0
    3.1602    3.7916   13.5007 C   0  0  0  0  0  0  0  0  0  0  0  0
    2.9951    5.0757   11.4457 N   0  0  0  0  0  0  0  0  0  0  0  0
    2.3594    5.8527   11.2981 H   0  0  0  0  0  0  0  0  0  0  0  0
    4.3569    5.0786   10.9606 C   0  0  0  0  0  0  0  0  0  0  0  0
    4.7721    4.1175   10.0992 N   0  0  0  0  0  0  0  0  0  0  0  0
    5.9551    4.1204    9.5301 C   0  0  0  0  0  0  0  0  0  0  0  0
    6.8244    5.1896    9.8429 C   0  0  0  0  0  0  0  0  0  0  0  0
    6.4086    6.1676   10.7350 C   0  0  0  0  0  0  0  0  0  0  0  0
    5.1726    6.0808   11.2732 N   0  0  0  0  0  0  0  0  0  0  0  0
    7.3411    7.1353   11.2992 C   0  0  0  0  0  0  0  0  0  0  0  0
    8.7082    6.9879   11.2806 C   0  0  0  0  0  0  0  0  0  0  0  0
    9.5417    7.7931   12.0306 C   0  0  0  0  0  0  0  0  0  0  0  0
    8.9211    8.7554   12.8024 C   0  0  0  0  0  0  0  0  0  0  0  0
    7.5779    8.9185   12.8326 N   0  0  0  0  0  0  0  0  0  0  0  0
    6.7781    8.1507   12.1165 C   0  0  0  0  0  0  0  0  0  0  0  0
    5.3231    3.7264   19.8483 C   0  0  0  0  0  0  0  0  0  0  0  0
    5.6369    4.3582   18.6546 C   0  0  0  0  0  0  0  0  0  0  0  0
    5.2928    3.8445   17.4766 C   0  0  0  0  0  0  0  0  0  0  0  0
    4.5656    2.5693   17.4282 C   0  0  0  0  0  0  0  0  0  0  0  0
    4.3000    1.9815   18.5963 C   0  0  0  0  0  0  0  0  0  0  0  0
    4.6686    2.5421   19.8404 C   0  0  0  0  0  0  0  0  0  0  0  0
    4.3234    1.8132   21.0648 C   0  0  0  0  0  0  0  0  0  0  0  0
    3.5026    0.7465   20.9002 F   0  0  0  0  0  0  0  0  0  0  0  0
    3.7227    2.6810   21.9560 F   0  0  0  0  0  0  0  0  0  0  0  0
    5.4963    1.4198   21.7462 F   0  0  0  0  0  0  0  0  0  0  0  0
    5.6923    4.4521   21.0996 C   0  0  0  0  0  0  0  0  0  0  0  0
    6.5343    9.7523   21.5792 C   0  0  0  0  0  0  0  0  0  0  0  0
    5.9996    8.6851   20.7259 N   0  0  0  0  0  0  0  0  0  0  0  0
    4.9494    8.0439   21.3980 C   0  0  0  0  0  0  0  0  0  0  0  0
    4.6572    6.6716   20.6897 C   0  0  0  0  0  0  0  0  0  0  0  0
    5.7103    5.8624   20.8889 N   0  0  0  0  0  0  0  0  0  0  0  0
    6.9867    6.4737   21.0324 C   0  0  0  0  0  0  0  0  0  0  0  0
    7.0308    7.7844   20.2655 C   0  0  0  0  0  0  0  0  0  0  0  0
 37 38  1  0  0  0
 38 39  1  0  0  0
 39 40  1  0  0  0
 40 41  1  0  0  0
 41 36  1  0  0  0
 36 26  1  0  0  0
 26 27  2  0  0  0
 27 28  1  0  0  0
 28 29  2  0  0  0
 29  1  1  0  0  0
  1  2  1  0  0  0
  2  3  2  0  0  0
  2  5  1  0  0  0
  5  6  2  0  0  0
  6  7  1  0  0  0
  7  8  2  0  0  0
  8  9  1  0  0  0
  8 10  1  0  0  0
 10 12  1  0  0  0
 12 14  1  0  0  0
 14 15  2  0  0  0
 15 16  1  0  0  0
 16 17  2  0  0  0
 17 18  1  0  0  0
 18 19  2  0  0  0
 18 20  1  0  0  0
 20 21  2  0  0  0
 21 22  1  0  0  0
 22 23  2  0  0  0
 23 24  1  0  0  0
 24 25  2  0  0  0
 10 11  2  0  0  0
 29 30  1  0  0  0
 30 31  2  0  0  0
 31 32  1  0  0  0
 32 33  1  0  0  0
 32 34  1  0  0  0
 32 35  1  0  0  0
 41 42  1  0  0  0
 42 43  1  0  0  0
 43 38  1  0  0  0
 31 26  1  0  0  0
 11  5  1  0  0  0
 19 14  1  0  0  0
 25 20  1  0  0  0
  1  4  1  0  0  0
 12 13  1  0  0  0
M  END
> <minimizedAffinity>
-8.95971

> <CNNscore>
0.1486423612

> <CNNaffinity>
6.9047966003

> <CNN_VS>
1.0263452530

> <CNNaffinity_variance>
0.2371406108

$$$$
[H]c1c([H])c(F)c([H])c(C(=C2C(=O)N([H])c3c([H])c([H])c(N([H])C4([H])C([H])([H])C([H])([H])N(C([H])([H])C([H])([H])[H])C([H])([H])C4([H])[H])c([H])c32)c2nc3c([H])c([H])c([H])c([H])c3n2[H])c1[H]


 39 44  0  0  0  0  0  0  0  0999 V2000
    4.9363    1.8996   21.2055 C   0  0  0  0  0  0  0  0  0  0  0  0
    4.5059    0.6904   21.6453 C   0  0  0  0  0  0  0  0  0  0  0  0
    3.7680   -0.0882   20.7982 C   0  0  0  0  0  0  0  0  0  0  0  0
    3.4326    0.2905   19.5065 C   0  0  0  0  0  0  0  0  0  0  0  0
    2.6824   -0.3594   18.4971 N   0  0  0  0  0  0  0  0  0  0  0  0
    2.6550    0.5108   17.3683 C   0  0  0  0  0  0  0  0  0  0  0  0
    2.0413    0.1538   16.3413 O   0  0  0  0  0  0  0  0  0  0  0  0
    3.3979    1.7301   17.6597 C   0  0  0  0  0  0  0  0  0  0  0  0
    3.5841    2.7382   16.8651 C   0  0  0  0  0  0  0  0  0  0  0  0
    3.8754    1.5325   19.0546 C   0  0  0  0  0  0  0  0  0  0  0  0
    4.6112    2.3035   19.9087 C   0  0  0  0  0  0  0  0  0  0  0  0
    2.2531   -1.3017   18.6144 H   0  0  0  0  0  0  0  0  0  0  0  0
    3.0224    2.7461   15.4947 C   0  0  0  0  0  0  0  0  0  0  0  0
    1.9963    3.4648   15.0718 N   0  0  0  0  0  0  0  0  0  0  0  0
    1.7310    3.2344   13.7766 C   0  0  0  0  0  0  0  0  0  0  0  0
    0.7819    3.7332   12.9122 C   0  0  0  0  0  0  0  0  0  0  0  0
    0.7101    3.3340   11.5991 C   0  0  0  0  0  0  0  0  0  0  0  0
    1.6401    2.3966   11.1659 C   0  0  0  0  0  0  0  0  0  0  0  0
    2.5850    1.9049   12.0404 C   0  0  0  0  0  0  0  0  0  0  0  0
    2.6588    2.3043   13.3584 C   0  0  0  0  0  0  0  0  0  0  0  0
    3.4396    2.0184   14.4229 N   0  0  0  0  0  0  0  0  0  0  0  0
    4.2310    1.3524   14.4288 H   0  0  0  0  0  0  0  0  0  0  0  0
    4.3785    3.9447   17.1066 C   0  0  0  0  0  0  0  0  0  0  0  0
    5.7618    3.9436   17.2138 C   0  0  0  0  0  0  0  0  0  0  0  0
    6.4757    5.1059   17.4087 C   0  0  0  0  0  0  0  0  0  0  0  0
    5.8040    6.3224   17.5024 C   0  0  0  0  0  0  0  0  0  0  0  0
    4.4203    6.3412   17.3972 C   0  0  0  0  0  0  0  0  0  0  0  0
    3.7719    7.5271   17.4913 F   0  0  0  0  0  0  0  0  0  0  0  0
    3.7175    5.1446   17.1992 C   0  0  0  0  0  0  0  0  0  0  0  0
    5.7185    2.7852   22.0090 N   0  0  0  0  0  0  0  0  0  0  0  0
    6.3917    2.4431   22.7248 H   0  0  0  0  0  0  0  0  0  0  0  0
    5.2810    6.5129   21.1363 N   0  0  0  0  0  0  0  0  0  0  0  0
    4.3511    6.2739   22.2300 C   0  0  0  0  0  0  0  0  0  0  0  0
    4.5334    4.8431   22.7027 C   0  0  0  0  0  0  0  0  0  0  0  0
    5.5728    4.1969   21.8247 C   0  0  0  0  0  0  0  0  0  0  0  0
    6.8635    4.9758   22.0898 C   0  0  0  0  0  0  0  0  0  0  0  0
    6.6183    6.4042   21.6470 C   0  0  0  0  0  0  0  0  0  0  0  0
    5.0259    8.9061   21.6438 C   0  0  0  0  0  0  0  0  0  0  0  0
    4.9772    7.8184   20.5884 C   0  0  0  0  0  0  0  0  0  0  0  0
 38 39  1  0  0  0
 39 32  1  0  0  0
 32 33  1  0  0  0
 33 34  1  0  0  0
 34 35  1  0  0  0
 35 36  1  0  0  0
 36 37  1  0  0  0
 35 30  1  0  0  0
 30  1  1  0  0  0
  1  2  2  0  0  0
  2  3  1  0  0  0
  3  4  2  0  0  0
  4  5  1  0  0  0
  5  6  1  0  0  0
  6  7  2  0  0  0
  6  8  1  0  0  0
  8  9  2  0  0  0
  9 13  1  0  0  0
 13 14  2  0  0  0
 14 15  1  0  0  0
 15 16  2  0  0  0
 16 17  1  0  0  0
 17 18  2  0  0  0
 18 19  1  0  0  0
 19 20  2  0  0  0
 20 21  1  0  0  0
  9 23  1  0  0  0
 23 24  2  0  0  0
 24 25  1  0  0  0
 25 26  2  0  0  0
 26 27  1  0  0  0
 27 28  1  0  0  0
 27 29  2  0  0  0
  8 10  1  0  0  0
 10 11  2  0  0  0
 37 32  1  0  0  0
 11  1  1  0  0  0
 10  4  1  0  0  0
 21 13  1  0  0  0
 29 23  1  0  0  0
 20 15  1  0  0  0
 30 31  1  0  0  0
  5 12  1  0  0  0
 21 22  1  0  0  0
M  END
> <minimizedAffinity>
-10.00823

> <CNNscore>
0.6360973716

> <CNNaffinity>
7.5573549271

> <CNN_VS>
4.8072137833

> <CNNaffinity_variance>
0.1001367941

$$$$
[H]c1c([H])c(F)c([H])c(C(=C2C(=O)N([H])c3c([H])c([H])c(N([H])C4([H])C([H])([H])C([H])([H])N(C([H])([H])C([H])([H])[H])C([H])([H])C4([H])[H])c([H])c32)c2nc3c([H])c([H])c([H])c([H])c3n2[H])c1[H]


 39 44  0  0  0  0  0  0  0  0999 V2000
    3.0695    4.3791   13.7338 C   0  0  0  0  0  0  0  0  0  0  0  0
    2.5464    3.2410   13.2126 C   0  0  0  0  0  0  0  0  0  0  0  0
    2.4501    2.1388   14.0150 C   0  0  0  0  0  0  0  0  0  0  0  0
    2.8594    2.1181   15.3403 C   0  0  0  0  0  0  0  0  0  0  0  0
    2.8511    1.0915   16.3150 N   0  0  0  0  0  0  0  0  0  0  0  0
    3.4046    1.6407   17.5082 C   0  0  0  0  0  0  0  0  0  0  0  0
    3.5070    0.9159   18.5196 O   0  0  0  0  0  0  0  0  0  0  0  0
    3.7693    3.0352   17.2937 C   0  0  0  0  0  0  0  0  0  0  0  0
    4.2952    3.8455   18.1592 C   0  0  0  0  0  0  0  0  0  0  0  0
    3.3963    3.2877   15.8760 C   0  0  0  0  0  0  0  0  0  0  0  0
    3.4891    4.3833   15.0659 C   0  0  0  0  0  0  0  0  0  0  0  0
    2.4928    0.1294   16.1357 H   0  0  0  0  0  0  0  0  0  0  0  0
    4.5946    3.4010   19.5399 C   0  0  0  0  0  0  0  0  0  0  0  0
    3.8830    3.6688   20.6217 N   0  0  0  0  0  0  0  0  0  0  0  0
    4.4304    3.1271   21.7208 C   0  0  0  0  0  0  0  0  0  0  0  0
    4.0640    3.1310   23.0484 C   0  0  0  0  0  0  0  0  0  0  0  0
    4.8048    2.4881   24.0110 C   0  0  0  0  0  0  0  0  0  0  0  0
    5.9528    1.8246   23.5948 C   0  0  0  0  0  0  0  0  0  0  0  0
    6.3089    1.8279   22.2635 C   0  0  0  0  0  0  0  0  0  0  0  0
    5.5668    2.4723   21.2959 C   0  0  0  0  0  0  0  0  0  0  0  0
    5.6499    2.6511   19.9595 N   0  0  0  0  0  0  0  0  0  0  0  0
    6.3956    2.2793   19.3466 H   0  0  0  0  0  0  0  0  0  0  0  0
    4.6109    5.2658   17.9921 C   0  0  0  0  0  0  0  0  0  0  0  0
    5.7191    5.7287   17.2973 C   0  0  0  0  0  0  0  0  0  0  0  0
    5.9635    7.0749   17.1343 C   0  0  0  0  0  0  0  0  0  0  0  0
    5.0829    8.0080   17.6763 C   0  0  0  0  0  0  0  0  0  0  0  0
    3.9693    7.5619   18.3742 C   0  0  0  0  0  0  0  0  0  0  0  0
    3.1173    8.4740   18.9011 F   0  0  0  0  0  0  0  0  0  0  0  0
    3.7436    6.1867   18.5258 C   0  0  0  0  0  0  0  0  0  0  0  0
    3.2074    5.5863   12.9820 N   0  0  0  0  0  0  0  0  0  0  0  0
    2.5184    6.3636   13.0414 H   0  0  0  0  0  0  0  0  0  0  0  0
    6.4139    6.1822   10.9295 N   0  0  0  0  0  0  0  0  0  0  0  0
    6.1635    4.7525   10.8242 C   0  0  0  0  0  0  0  0  0  0  0  0
    4.8534    4.4478   11.5275 C   0  0  0  0  0  0  0  0  0  0  0  0
    4.3351    5.7351   12.1133 C   0  0  0  0  0  0  0  0  0  0  0  0
    4.0545    6.6397   10.9110 C   0  0  0  0  0  0  0  0  0  0  0  0
    5.3799    6.8768   10.2156 C   0  0  0  0  0  0  0  0  0  0  0  0
    8.5999    7.2180   11.3745 C   0  0  0  0  0  0  0  0  0  0  0  0
    7.7414    6.4281   10.4060 C   0  0  0  0  0  0  0  0  0  0  0  0
 38 39  1  0  0  0
 39 32  1  0  0  0
 32 33  1  0  0  0
 33 34  1  0  0  0
 34 35  1  0  0  0
 35 36  1  0  0  0
 36 37  1  0  0  0
 35 30  1  0  0  0
 30  1  1  0  0  0
  1  2  2  0  0  0
  2  3  1  0  0  0
  3  4  2  0  0  0
  4  5  1  0  0  0
  5  6  1  0  0  0
  6  7  2  0  0  0
  6  8  1  0  0  0
  8  9  2  0  0  0
  9 13  1  0  0  0
 13 14  2  0  0  0
 14 15  1  0  0  0
 15 16  2  0  0  0
 16 17  1  0  0  0
 17 18  2  0  0  0
 18 19  1  0  0  0
 19 20  2  0  0  0
 20 21  1  0  0  0
  9 23  1  0  0  0
 23 24  2  0  0  0
 24 25  1  0  0  0
 25 26  2  0  0  0
 26 27  1  0  0  0
 27 28  1  0  0  0
 27 29  2  0  0  0
  8 10  1  0  0  0
 10 11  2  0  0  0
 37 32  1  0  0  0
 11  1  1  0  0  0
 10  4  1  0  0  0
 21 13  1  0  0  0
 29 23  1  0  0  0
 20 15  1  0  0  0
 30 31  1  0  0  0
  5 12  1  0  0  0
 21 22  1  0  0  0
M  END
> <minimizedAffinity>
-9.51567

> <CNNscore>
0.4239089191

> <CNNaffinity>
6.9298591614

> <CNN_VS>
2.9376292229

> <CNNaffinity_variance>
0.4328733981

$$$$
[H]c1c([H])c(F)c([H])c(C(=C2C(=O)N([H])c3c([H])c([H])c(N([H])C4([H])C([H])([H])C([H])([H])N(C([H])([H])C([H])([H])[H])C([H])([H])C4([H])[H])c([H])c32)c2nc3c([H])c([H])c([H])c([H])c3n2[H])c1[H]


 39 44  0  0  0  0  0  0  0  0999 V2000
    3.5192    4.3850   13.7295 C   0  0  0  0  0  0  0  0  0  0  0  0
    3.0280    3.2437   13.1848 C   0  0  0  0  0  0  0  0  0  0  0  0
    2.8829    2.1465   13.9869 C   0  0  0  0  0  0  0  0  0  0  0  0
    3.2116    2.1341   15.3345 C   0  0  0  0  0  0  0  0  0  0  0  0
    3.1441    1.1136   16.3133 N   0  0  0  0  0  0  0  0  0  0  0  0
    3.6250    1.6702   17.5343 C   0  0  0  0  0  0  0  0  0  0  0  0
    3.6659    0.9518   18.5545 O   0  0  0  0  0  0  0  0  0  0  0  0
    4.0025    3.0633   17.3334 C   0  0  0  0  0  0  0  0  0  0  0  0
    4.4757    3.8789   18.2240 C   0  0  0  0  0  0  0  0  0  0  0  0
    3.7158    3.3070   15.8943 C   0  0  0  0  0  0  0  0  0  0  0  0
    3.8578    4.3975   15.0845 C   0  0  0  0  0  0  0  0  0  0  0  0
    2.7968    0.1505   16.1188 H   0  0  0  0  0  0  0  0  0  0  0  0
    4.6912    3.4431   19.6230 C   0  0  0  0  0  0  0  0  0  0  0  0
    3.9392    3.7529   20.6655 N   0  0  0  0  0  0  0  0  0  0  0  0
    4.4120    3.2065   21.7965 C   0  0  0  0  0  0  0  0  0  0  0  0
    3.9826    3.2430   23.1046 C   0  0  0  0  0  0  0  0  0  0  0  0
    4.6511    2.5864   24.1100 C   0  0  0  0  0  0  0  0  0  0  0  0
    5.7915    1.8742   23.7582 C   0  0  0  0  0  0  0  0  0  0  0  0
    6.2111    1.8452   22.4457 C   0  0  0  0  0  0  0  0  0  0  0  0
    5.5415    2.5033   21.4354 C   0  0  0  0  0  0  0  0  0  0  0  0
    5.6956    2.6599   20.1026 N   0  0  0  0  0  0  0  0  0  0  0  0
    6.4550    2.2516   19.5312 H   0  0  0  0  0  0  0  0  0  0  0  0
    4.8016    5.2982   18.0674 C   0  0  0  0  0  0  0  0  0  0  0  0
    5.9760    5.7561   17.4877 C   0  0  0  0  0  0  0  0  0  0  0  0
    6.2308    7.1009   17.3288 C   0  0  0  0  0  0  0  0  0  0  0  0
    5.2932    8.0375   17.7569 C   0  0  0  0  0  0  0  0  0  0  0  0
    4.1130    7.5964   18.3389 C   0  0  0  0  0  0  0  0  0  0  0  0
    3.2055    8.5120   18.7556 F   0  0  0  0  0  0  0  0  0  0  0  0
    3.8781    6.2226   18.4891 C   0  0  0  0  0  0  0  0  0  0  0  0
    3.7027    5.5875   12.9799 N   0  0  0  0  0  0  0  0  0  0  0  0
    4.5705    6.1581   13.0422 H   0  0  0  0  0  0  0  0  0  0  0  0
    0.8548    6.4032   10.5156 N   0  0  0  0  0  0  0  0  0  0  0  0
    0.4298    6.9811   11.7818 C   0  0  0  0  0  0  0  0  0  0  0  0
    1.5487    6.7894   12.7894 C   0  0  0  0  0  0  0  0  0  0  0  0
    2.6551    6.0264   12.1092 C   0  0  0  0  0  0  0  0  0  0  0  0
    3.1478    6.9458   10.9891 C   0  0  0  0  0  0  0  0  0  0  0  0
    1.9864    7.1453   10.0362 C   0  0  0  0  0  0  0  0  0  0  0  0
   -1.5186    5.8199   10.2384 C   0  0  0  0  0  0  0  0  0  0  0  0
   -0.2821    6.4423    9.6196 C   0  0  0  0  0  0  0  0  0  0  0  0
 38 39  1  0  0  0
 39 32  1  0  0  0
 32 33  1  0  0  0
 33 34  1  0  0  0
 34 35  1  0  0  0
 35 36  1  0  0  0
 36 37  1  0  0  0
 35 30  1  0  0  0
 30  1  1  0  0  0
  1  2  2  0  0  0
  2  3  1  0  0  0
  3  4  2  0  0  0
  4  5  1  0  0  0
  5  6  1  0  0  0
  6  7  2  0  0  0
  6  8  1  0  0  0
  8  9  2  0  0  0
  9 13  1  0  0  0
 13 14  2  0  0  0
 14 15  1  0  0  0
 15 16  2  0  0  0
 16 17  1  0  0  0
 17 18  2  0  0  0
 18 19  1  0  0  0
 19 20  2  0  0  0
 20 21  1  0  0  0
  9 23  1  0  0  0
 23 24  2  0  0  0
 24 25  1  0  0  0
 25 26  2  0  0  0
 26 27  1  0  0  0
 27 28  1  0  0  0
 27 29  2  0  0  0
  8 10  1  0  0  0
 10 11  2  0  0  0
 37 32  1  0  0  0
 11  1  1  0  0  0
 10  4  1  0  0  0
 21 13  1  0  0  0
 29 23  1  0  0  0
 20 15  1  0  0  0
 30 31  1  0  0  0
  5 12  1  0  0  0
 21 22  1  0  0  0
M  END
> <minimizedAffinity>
-9.56357

> <CNNscore>
0.3131616116

> <CNNaffinity>
6.7277288437

> <CNN_VS>
2.1068663597

> <CNNaffinity_variance>
0.4872012734

$$$$
[H]c1c([H])c(F)c([H])c(C(=C2C(=O)N([H])c3c([H])c([H])c(N([H])C4([H])C([H])([H])C([H])([H])N(C([H])([H])C([H])([H])[H])C([H])([H])C4([H])[H])c([H])c32)c2nc3c([H])c([H])c([H])c([H])c3n2[H])c1[H]


 39 44  0  0  0  0  0  0  0  0999 V2000
    6.0729    3.5498   21.5246 C   0  0  0  0  0  0  0  0  0  0  0  0
    5.8161    2.2412   21.7739 C   0  0  0  0  0  0  0  0  0  0  0  0
    5.0711    1.5376   20.8694 C   0  0  0  0  0  0  0  0  0  0  0  0
    4.5599    2.0894   19.7039 C   0  0  0  0  0  0  0  0  0  0  0  0
    3.7720    1.5381   18.6649 N   0  0  0  0  0  0  0  0  0  0  0  0
    3.5342    2.5791   17.7206 C   0  0  0  0  0  0  0  0  0  0  0  0
    2.8502    2.3334   16.7055 O   0  0  0  0  0  0  0  0  0  0  0  0
    4.1792    3.8095   18.1608 C   0  0  0  0  0  0  0  0  0  0  0  0
    4.1756    4.9534   17.5495 C   0  0  0  0  0  0  0  0  0  0  0  0
    4.8242    3.4338   19.4475 C   0  0  0  0  0  0  0  0  0  0  0  0
    5.5687    4.1285   20.3577 C   0  0  0  0  0  0  0  0  0  0  0  0
    3.4544    0.5458   18.6470 H   0  0  0  0  0  0  0  0  0  0  0  0
    3.4689    5.1295   16.2599 C   0  0  0  0  0  0  0  0  0  0  0  0
    3.9920    4.9901   15.0536 N   0  0  0  0  0  0  0  0  0  0  0  0
    3.0878    5.2297   14.0913 C   0  0  0  0  0  0  0  0  0  0  0  0
    3.1568    5.2107   12.7159 C   0  0  0  0  0  0  0  0  0  0  0  0
    2.0687    5.4983   11.9272 C   0  0  0  0  0  0  0  0  0  0  0  0
    0.8791    5.8140   12.5726 C   0  0  0  0  0  0  0  0  0  0  0  0
    0.8226    5.8297   13.9495 C   0  0  0  0  0  0  0  0  0  0  0  0
    1.9133    5.5411   14.7427 C   0  0  0  0  0  0  0  0  0  0  0  0
    2.1664    5.4743   16.0679 N   0  0  0  0  0  0  0  0  0  0  0  0
    1.4825    5.6556   16.8224 H   0  0  0  0  0  0  0  0  0  0  0  0
    4.8673    6.1858   17.9339 C   0  0  0  0  0  0  0  0  0  0  0  0
    4.2109    7.3431   18.3274 C   0  0  0  0  0  0  0  0  0  0  0  0
    4.8993    8.4726   18.7133 C   0  0  0  0  0  0  0  0  0  0  0  0
    6.2920    8.4671   18.7135 C   0  0  0  0  0  0  0  0  0  0  0  0
    6.9643    7.3176   18.3227 C   0  0  0  0  0  0  0  0  0  0  0  0
    8.3192    7.3186   18.3227 F   0  0  0  0  0  0  0  0  0  0  0  0
    6.2403    6.1817   17.9344 C   0  0  0  0  0  0  0  0  0  0  0  0
    6.8462    4.3708   22.4019 N   0  0  0  0  0  0  0  0  0  0  0  0
    7.5262    3.9753   23.0830 H   0  0  0  0  0  0  0  0  0  0  0  0
    6.3834    8.1894   22.6317 N   0  0  0  0  0  0  0  0  0  0  0  0
    7.5466    8.0051   21.7769 C   0  0  0  0  0  0  0  0  0  0  0  0
    7.7388    6.5162   21.5528 C   0  0  0  0  0  0  0  0  0  0  0  0
    6.6818    5.7913   22.3440 C   0  0  0  0  0  0  0  0  0  0  0  0
    5.3502    6.2191   21.7223 C   0  0  0  0  0  0  0  0  0  0  0  0
    5.2250    7.7152   21.9286 C   0  0  0  0  0  0  0  0  0  0  0  0
    6.4617   10.4857   21.7540 C   0  0  0  0  0  0  0  0  0  0  0  0
    6.3159    9.5951   22.9725 C   0  0  0  0  0  0  0  0  0  0  0  0
 38 39  1  0  0  0
 39 32  1  0  0  0
 32 33  1  0  0  0
 33 34  1  0  0  0
 34 35  1  0  0  0
 35 36  1  0  0  0
 36 37  1  0  0  0
 35 30  1  0  0  0
 30  1  1  0  0  0
  1  2  2  0  0  0
  2  3  1  0  0  0
  3  4  2  0  0  0
  4  5  1  0  0  0
  5  6  1  0  0  0
  6  7  2  0  0  0
  6  8  1  0  0  0
  8  9  2  0  0  0
  9 13  1  0  0  0
 13 14  2  0  0  0
 14 15  1  0  0  0
 15 16  2  0  0  0
 16 17  1  0  0  0
 17 18  2  0  0  0
 18 19  1  0  0  0
 19 20  2  0  0  0
 20 21  1  0  0  0
  9 23  1  0  0  0
 23 24  2  0  0  0
 24 25  1  0  0  0
 25 26  2  0  0  0
 26 27  1  0  0  0
 27 28  1  0  0  0
 27 29  2  0  0  0
  8 10  1  0  0  0
 10 11  2  0  0  0
 37 32  1  0  0  0
 11  1  1  0  0  0
 10  4  1  0  0  0
 21 13  1  0  0  0
 29 23  1  0  0  0
 20 15  1  0  0  0
 30 31  1  0  0  0
  5 12  1  0  0  0
 21 22  1  0  0  0
M  END
> <minimizedAffinity>
-8.98034

> <CNNscore>
0.2953365147

> <CNNaffinity>
6.7545175552

> <CNN_VS>
1.9948556423

> <CNNaffinity_variance>
0.1468975246

$$$$
[H]c1c([H])c(F)c([H])c(C(=C2C(=O)N([H])c3c([H])c([H])c(N([H])C4([H])C([H])([H])C([H])([H])N(C([H])([H])C([H])([H])[H])C([H])([H])C4([H])[H])c([H])c32)c2nc3c([H])c([H])c([H])c([H])c3n2[H])c1[H]


 39 44  0  0  0  0  0  0  0  0999 V2000
    3.4570    5.8822   18.6943 C   0  0  0  0  0  0  0  0  0  0  0  0
    3.8438    4.9365   19.5870 C   0  0  0  0  0  0  0  0  0  0  0  0
    3.9256    3.6378   19.1689 C   0  0  0  0  0  0  0  0  0  0  0  0
    3.6338    3.2297   17.8756 C   0  0  0  0  0  0  0  0  0  0  0  0
    3.6490    1.9540   17.2622 N   0  0  0  0  0  0  0  0  0  0  0  0
    3.2460    2.1347   15.9070 C   0  0  0  0  0  0  0  0  0  0  0  0
    3.1777    1.1397   15.1560 O   0  0  0  0  0  0  0  0  0  0  0  0
    2.9717    3.5429   15.6512 C   0  0  0  0  0  0  0  0  0  0  0  0
    2.5872    4.0712   14.5308 C   0  0  0  0  0  0  0  0  0  0  0  0
    3.2370    4.2014   16.9583 C   0  0  0  0  0  0  0  0  0  0  0  0
    3.1575    5.4961   17.3859 C   0  0  0  0  0  0  0  0  0  0  0  0
    3.9156    1.0782   17.7602 H   0  0  0  0  0  0  0  0  0  0  0  0
    2.3771    3.2382   13.3244 C   0  0  0  0  0  0  0  0  0  0  0  0
    3.2255    3.0805   12.3226 N   0  0  0  0  0  0  0  0  0  0  0  0
    2.7290    2.2683   11.3767 C   0  0  0  0  0  0  0  0  0  0  0  0
    3.2282    1.8145   10.1760 C   0  0  0  0  0  0  0  0  0  0  0  0
    2.5137    0.9680    9.3625 C   0  0  0  0  0  0  0  0  0  0  0  0
    1.2523    0.5795    9.7975 C   0  0  0  0  0  0  0  0  0  0  0  0
    0.7637    1.0404   11.0010 C   0  0  0  0  0  0  0  0  0  0  0  0
    1.4792    1.8897   11.8188 C   0  0  0  0  0  0  0  0  0  0  0  0
    1.2822    2.4928   13.0114 N   0  0  0  0  0  0  0  0  0  0  0  0
    0.4352    2.4057   13.5986 H   0  0  0  0  0  0  0  0  0  0  0  0
    2.3676    5.4871   14.2275 C   0  0  0  0  0  0  0  0  0  0  0  0
    1.1131    6.0786   14.1933 C   0  0  0  0  0  0  0  0  0  0  0  0
    0.9509    7.4226   13.9361 C   0  0  0  0  0  0  0  0  0  0  0  0
    2.0676    8.2214   13.7021 C   0  0  0  0  0  0  0  0  0  0  0  0
    3.3300    7.6455   13.7327 C   0  0  0  0  0  0  0  0  0  0  0  0
    4.4126    8.4269   13.5022 F   0  0  0  0  0  0  0  0  0  0  0  0
    3.4677    6.2757   13.9967 C   0  0  0  0  0  0  0  0  0  0  0  0
    3.3464    7.2670   19.0283 N   0  0  0  0  0  0  0  0  0  0  0  0
    2.4620    7.8019   18.9088 H   0  0  0  0  0  0  0  0  0  0  0  0
    6.4082    8.8683   20.7343 N   0  0  0  0  0  0  0  0  0  0  0  0
    6.8593    8.5390   19.3905 C   0  0  0  0  0  0  0  0  0  0  0  0
    5.6757    7.9908   18.6143 C   0  0  0  0  0  0  0  0  0  0  0  0
    4.4938    7.9471   19.5472 C   0  0  0  0  0  0  0  0  0  0  0  0
    4.2152    9.4074   19.9117 C   0  0  0  0  0  0  0  0  0  0  0  0
    5.4393    9.9236   20.6409 C   0  0  0  0  0  0  0  0  0  0  0  0
    8.3155    8.0078   22.0272 C   0  0  0  0  0  0  0  0  0  0  0  0
    7.5789    9.2269   21.5073 C   0  0  0  0  0  0  0  0  0  0  0  0
 38 39  1  0  0  0
 39 32  1  0  0  0
 32 33  1  0  0  0
 33 34  1  0  0  0
 34 35  1  0  0  0
 35 36  1  0  0  0
 36 37  1  0  0  0
 35 30  1  0  0  0
 30  1  1  0  0  0
  1  2  2  0  0  0
  2  3  1  0  0  0
  3  4  2  0  0  0
  4  5  1  0  0  0
  5  6  1  0  0  0
  6  7  2  0  0  0
  6  8  1  0  0  0
  8  9  2  0  0  0
  9 13  1  0  0  0
 13 14  2  0  0  0
 14 15  1  0  0  0
 15 16  2  0  0  0
 16 17  1  0  0  0
 17 18  2  0  0  0
 18 19  1  0  0  0
 19 20  2  0  0  0
 20 21  1  0  0  0
  9 23  1  0  0  0
 23 24  2  0  0  0
 24 25  1  0  0  0
 25 26  2  0  0  0
 26 27  1  0  0  0
 27 28  1  0  0  0
 27 29  2  0  0  0
  8 10  1  0  0  0
 10 11  2  0  0  0
 37 32  1  0  0  0
 11  1  1  0  0  0
 10  4  1  0  0  0
 21 13  1  0  0  0
 29 23  1  0  0  0
 20 15  1  0  0  0
 30 31  1  0  0  0
  5 12  1  0  0  0
 21 22  1  0  0  0
M  END
> <minimizedAffinity>
-8.44284

> <CNNscore>
0.2597968876

> <CNNaffinity>
6.4882636070

> <CNN_VS>
1.6856306791

> <CNNaffinity_variance>
0.3569235206

$$$$
[H]c1c([H])c(F)c([H])c(C(=C2C(=O)N([H])c3c([H])c([H])c(N([H])C4([H])C([H])([H])C([H])([H])N(C([H])([H])C([H])([H])[H])C([H])([H])C4([H])[H])c([H])c32)c2nc3c([H])c([H])c([H])c([H])c3n2[H])c1[H]


 39 44  0  0  0  0  0  0  0  0999 V2000
    6.2030   10.0973   20.2956 C   0  0  0  0  0  0  0  0  0  0  0  0
    5.1844   10.7748   19.7089 C   0  0  0  0  0  0  0  0  0  0  0  0
    4.1046   10.0689   19.2574 C   0  0  0  0  0  0  0  0  0  0  0  0
    3.9907    8.6907   19.3659 C   0  0  0  0  0  0  0  0  0  0  0  0
    2.9751    7.7924   18.9589 N   0  0  0  0  0  0  0  0  0  0  0  0
    3.4029    6.4821   19.3223 C   0  0  0  0  0  0  0  0  0  0  0  0
    2.6671    5.5084   19.0594 O   0  0  0  0  0  0  0  0  0  0  0  0
    4.7065    6.5444   19.9707 C   0  0  0  0  0  0  0  0  0  0  0  0
    5.3954    5.5476   20.4336 C   0  0  0  0  0  0  0  0  0  0  0  0
    5.0370    7.9947   19.9692 C   0  0  0  0  0  0  0  0  0  0  0  0
    6.1119    8.7089   20.4163 C   0  0  0  0  0  0  0  0  0  0  0  0
    2.0966    8.0920   18.4851 H   0  0  0  0  0  0  0  0  0  0  0  0
    4.8885    4.1590   20.3415 C   0  0  0  0  0  0  0  0  0  0  0  0
    4.4389    3.4204   21.3417 N   0  0  0  0  0  0  0  0  0  0  0  0
    4.0631    2.2008   20.9264 C   0  0  0  0  0  0  0  0  0  0  0  0
    3.5435    1.1071   21.5826 C   0  0  0  0  0  0  0  0  0  0  0  0
    3.2303   -0.0576   20.9237 C   0  0  0  0  0  0  0  0  0  0  0  0
    3.4587   -0.0962   19.5534 C   0  0  0  0  0  0  0  0  0  0  0  0
    3.9790    1.0048   18.9080 C   0  0  0  0  0  0  0  0  0  0  0  0
    4.2938    2.1745   19.5674 C   0  0  0  0  0  0  0  0  0  0  0  0
    4.7983    3.3809   19.2286 N   0  0  0  0  0  0  0  0  0  0  0  0
    5.0744    3.6730   18.2755 H   0  0  0  0  0  0  0  0  0  0  0  0
    6.6742    5.5863   21.1463 C   0  0  0  0  0  0  0  0  0  0  0  0
    6.9083    4.9169   22.3388 C   0  0  0  0  0  0  0  0  0  0  0  0
    8.1369    4.9518   22.9618 C   0  0  0  0  0  0  0  0  0  0  0  0
    9.1814    5.6745   22.3906 C   0  0  0  0  0  0  0  0  0  0  0  0
    8.9642    6.3498   21.1977 C   0  0  0  0  0  0  0  0  0  0  0  0
    9.9833    7.0530   20.6477 F   0  0  0  0  0  0  0  0  0  0  0  0
    7.7048    6.2984   20.5842 C   0  0  0  0  0  0  0  0  0  0  0  0
    7.3719   10.7410   20.8064 N   0  0  0  0  0  0  0  0  0  0  0  0
    7.7778   11.5928   20.3678 H   0  0  0  0  0  0  0  0  0  0  0  0
    8.9210    8.9391   23.8399 N   0  0  0  0  0  0  0  0  0  0  0  0
   10.0434    9.5860   23.1768 C   0  0  0  0  0  0  0  0  0  0  0  0
    9.5017   10.4055   22.0197 C   0  0  0  0  0  0  0  0  0  0  0  0
    8.0110   10.1961   21.9652 C   0  0  0  0  0  0  0  0  0  0  0  0
    7.4756   10.7749   23.2771 C   0  0  0  0  0  0  0  0  0  0  0  0
    8.0787    9.9571   24.4013 C   0  0  0  0  0  0  0  0  0  0  0  0
   10.9808    8.0994   24.8898 C   0  0  0  0  0  0  0  0  0  0  0  0
    9.4672    8.0326   24.8281 C   0  0  0  0  0  0  0  0  0  0  0  0
 38 39  1  0  0  0
 39 32  1  0  0  0
 32 33  1  0  0  0
 33 34  1  0  0  0
 34 35  1  0  0  0
 35 36  1  0  0  0
 36 37  1  0  0  0
 35 30  1  0  0  0
 30  1  1  0  0  0
  1  2  2  0  0  0
  2  3  1  0  0  0
  3  4  2  0  0  0
  4  5  1  0  0  0
  5  6  1  0  0  0
  6  7  2  0  0  0
  6  8  1  0  0  0
  8  9  2  0  0  0
  9 13  1  0  0  0
 13 14  2  0  0  0
 14 15  1  0  0  0
 15 16  2  0  0  0
 16 17  1  0  0  0
 17 18  2  0  0  0
 18 19  1  0  0  0
 19 20  2  0  0  0
 20 21  1  0  0  0
  9 23  1  0  0  0
 23 24  2  0  0  0
 24 25  1  0  0  0
 25 26  2  0  0  0
 26 27  1  0  0  0
 27 28  1  0  0  0
 27 29  2  0  0  0
  8 10  1  0  0  0
 10 11  2  0  0  0
 37 32  1  0  0  0
 11  1  1  0  0  0
 10  4  1  0  0  0
 21 13  1  0  0  0
 29 23  1  0  0  0
 20 15  1  0  0  0
 30 31  1  0  0  0
  5 12  1  0  0  0
 21 22  1  0  0  0
M  END
> <minimizedAffinity>
-8.63230

> <CNNscore>
0.2510498464

> <CNNaffinity>
6.5377488136

> <CNN_VS>
1.6413007975

> <CNNaffinity_variance>
0.1844554394

$$$$
[H]c1c([H])c(F)c([H])c(C(=C2C(=O)N([H])c3c([H])c([H])c(N([H])C4([H])C([H])([H])C([H])([H])N(C([H])([H])C([H])([H])[H])C([H])([H])C4([H])[H])c([H])c32)c2nc3c([H])c([H])c([H])c([H])c3n2[H])c1[H]


 39 44  0  0  0  0  0  0  0  0999 V2000
    5.5910    3.4440   21.6515 C   0  0  0  0  0  0  0  0  0  0  0  0
    5.4861    2.1192   21.9250 C   0  0  0  0  0  0  0  0  0  0  0  0
    5.0071    1.2871   20.9522 C   0  0  0  0  0  0  0  0  0  0  0  0
    4.6201    1.7233   19.6935 C   0  0  0  0  0  0  0  0  0  0  0  0
    4.0996    1.0315   18.5735 N   0  0  0  0  0  0  0  0  0  0  0  0
    3.8736    1.9982   17.5506 C   0  0  0  0  0  0  0  0  0  0  0  0
    3.4070    1.6246   16.4545 O   0  0  0  0  0  0  0  0  0  0  0  0
    4.2558    3.3230   18.0224 C   0  0  0  0  0  0  0  0  0  0  0  0
    4.1892    4.4358   17.3594 C   0  0  0  0  0  0  0  0  0  0  0  0
    4.7285    3.0843   19.4124 C   0  0  0  0  0  0  0  0  0  0  0  0
    5.2073    3.9077   20.3912 C   0  0  0  0  0  0  0  0  0  0  0  0
    3.9339    0.0028   18.5574 H   0  0  0  0  0  0  0  0  0  0  0  0
    3.6854    4.4679   15.9670 C   0  0  0  0  0  0  0  0  0  0  0  0
    2.4633    4.7950   15.5826 N   0  0  0  0  0  0  0  0  0  0  0  0
    2.3250    4.7131   14.2502 C   0  0  0  0  0  0  0  0  0  0  0  0
    1.2655    4.9493   13.4026 C   0  0  0  0  0  0  0  0  0  0  0  0
    1.3720    4.7930   12.0413 C   0  0  0  0  0  0  0  0  0  0  0  0
    2.6017    4.3824   11.5409 C   0  0  0  0  0  0  0  0  0  0  0  0
    3.6544    4.1492   12.3993 C   0  0  0  0  0  0  0  0  0  0  0  0
    3.5497    4.3057   13.7656 C   0  0  0  0  0  0  0  0  0  0  0  0
    4.3682    4.1612   14.8304 N   0  0  0  0  0  0  0  0  0  0  0  0
    5.3585    3.8647   14.7940 H   0  0  0  0  0  0  0  0  0  0  0  0
    4.6259    5.7679   17.7833 C   0  0  0  0  0  0  0  0  0  0  0  0
    5.9178    6.2432   17.6091 C   0  0  0  0  0  0  0  0  0  0  0  0
    6.2808    7.5160   17.9924 C   0  0  0  0  0  0  0  0  0  0  0  0
    5.3360    8.3595   18.5717 C   0  0  0  0  0  0  0  0  0  0  0  0
    4.0392    7.8998   18.7531 C   0  0  0  0  0  0  0  0  0  0  0  0
    3.1248    8.7239   19.3192 F   0  0  0  0  0  0  0  0  0  0  0  0
    3.6955    6.6005   18.3546 C   0  0  0  0  0  0  0  0  0  0  0  0
    6.0853    4.3955   22.5959 N   0  0  0  0  0  0  0  0  0  0  0  0
    5.8968    4.3201   23.6163 H   0  0  0  0  0  0  0  0  0  0  0  0
    8.1586    7.2074   20.9699 N   0  0  0  0  0  0  0  0  0  0  0  0
    7.1683    7.8965   21.7836 C   0  0  0  0  0  0  0  0  0  0  0  0
    6.3685    6.8527   22.5417 C   0  0  0  0  0  0  0  0  0  0  0  0
    6.8700    5.4953   22.1234 C   0  0  0  0  0  0  0  0  0  0  0  0
    8.3259    5.4425   22.5926 C   0  0  0  0  0  0  0  0  0  0  0  0
    9.0722    6.5295   21.8457 C   0  0  0  0  0  0  0  0  0  0  0  0
    8.4145    9.6135   20.5284 C   0  0  0  0  0  0  0  0  0  0  0  0
    8.7946    8.2008   20.1299 C   0  0  0  0  0  0  0  0  0  0  0  0
 38 39  1  0  0  0
 39 32  1  0  0  0
 32 33  1  0  0  0
 33 34  1  0  0  0
 34 35  1  0  0  0
 35 36  1  0  0  0
 36 37  1  0  0  0
 35 30  1  0  0  0
 30  1  1  0  0  0
  1  2  2  0  0  0
  2  3  1  0  0  0
  3  4  2  0  0  0
  4  5  1  0  0  0
  5  6  1  0  0  0
  6  7  2  0  0  0
  6  8  1  0  0  0
  8  9  2  0  0  0
  9 13  1  0  0  0
 13 14  2  0  0  0
 14 15  1  0  0  0
 15 16  2  0  0  0
 16 17  1  0  0  0
 17 18  2  0  0  0
 18 19  1  0  0  0
 19 20  2  0  0  0
 20 21  1  0  0  0
  9 23  1  0  0  0
 23 24  2  0  0  0
 24 25  1  0  0  0
 25 26  2  0  0  0
 26 27  1  0  0  0
 27 28  1  0  0  0
 27 29  2  0  0  0
  8 10  1  0  0  0
 10 11  2  0  0  0
 37 32  1  0  0  0
 11  1  1  0  0  0
 10  4  1  0  0  0
 21 13  1  0  0  0
 29 23  1  0  0  0
 20 15  1  0  0  0
 30 31  1  0  0  0
  5 12  1  0  0  0
 21 22  1  0  0  0
M  END
> <minimizedAffinity>
-9.62028

> <CNNscore>
0.2507715523

> <CNNaffinity>
6.7083158493

> <CNN_VS>
1.6822547913

> <CNNaffinity_variance>
0.3843240440

$$$$
[H]c1c([H])c(F)c([H])c(C(=C2C(=O)N([H])c3c([H])c([H])c(N([H])C4([H])C([H])([H])C([H])([H])N(C([H])([H])C([H])([H])[H])C([H])([H])C4([H])[H])c([H])c32)c2nc3c([H])c([H])c([H])c([H])c3n2[H])c1[H]


 39 44  0  0  0  0  0  0  0  0999 V2000
    5.0653    9.3177   20.9426 C   0  0  0  0  0  0  0  0  0  0  0  0
    4.9858   10.5170   20.3133 C   0  0  0  0  0  0  0  0  0  0  0  0
    4.6314   10.5401   18.9934 C   0  0  0  0  0  0  0  0  0  0  0  0
    4.3466    9.3997   18.2568 C   0  0  0  0  0  0  0  0  0  0  0  0
    3.9771    9.2186   16.9023 N   0  0  0  0  0  0  0  0  0  0  0  0
    3.8204    7.8173   16.6934 C   0  0  0  0  0  0  0  0  0  0  0  0
    3.4967    7.4048   15.5603 O   0  0  0  0  0  0  0  0  0  0  0  0
    4.0915    7.0948   17.9296 C   0  0  0  0  0  0  0  0  0  0  0  0
    4.0417    5.8113   18.1093 C   0  0  0  0  0  0  0  0  0  0  0  0
    4.4277    8.1676   18.9036 C   0  0  0  0  0  0  0  0  0  0  0  0
    4.7835    8.1549   20.2222 C   0  0  0  0  0  0  0  0  0  0  0  0
    3.8560   10.0039   16.2280 H   0  0  0  0  0  0  0  0  0  0  0  0
    3.6800    4.8971   17.0016 C   0  0  0  0  0  0  0  0  0  0  0  0
    2.6630    4.0524   16.9822 N   0  0  0  0  0  0  0  0  0  0  0  0
    2.6173    3.3591   15.8340 C   0  0  0  0  0  0  0  0  0  0  0  0
    1.7632    2.3882   15.3598 C   0  0  0  0  0  0  0  0  0  0  0  0
    1.9262    1.8155   14.1212 C   0  0  0  0  0  0  0  0  0  0  0  0
    2.9971    2.2543   13.3518 C   0  0  0  0  0  0  0  0  0  0  0  0
    3.8448    3.2264   13.8373 C   0  0  0  0  0  0  0  0  0  0  0  0
    3.6828    3.8025   15.0798 C   0  0  0  0  0  0  0  0  0  0  0  0
    4.3204    4.7428   15.8106 N   0  0  0  0  0  0  0  0  0  0  0  0
    5.1628    5.2663   15.5169 H   0  0  0  0  0  0  0  0  0  0  0  0
    4.2445    5.0642   19.3525 C   0  0  0  0  0  0  0  0  0  0  0  0
    3.6264    5.3881   20.5517 C   0  0  0  0  0  0  0  0  0  0  0  0
    3.8180    4.6396   21.6926 C   0  0  0  0  0  0  0  0  0  0  0  0
    4.6522    3.5249   21.6561 C   0  0  0  0  0  0  0  0  0  0  0  0
    5.2783    3.1868   20.4645 C   0  0  0  0  0  0  0  0  0  0  0  0
    6.0904    2.1028   20.4354 F   0  0  0  0  0  0  0  0  0  0  0  0
    5.0667    3.9650   19.3179 C   0  0  0  0  0  0  0  0  0  0  0  0
    5.4201    9.1853   22.3204 N   0  0  0  0  0  0  0  0  0  0  0  0
    4.7580    9.4068   23.0918 H   0  0  0  0  0  0  0  0  0  0  0  0
    8.8364    7.6047   23.1446 N   0  0  0  0  0  0  0  0  0  0  0  0
    9.1390    8.6860   22.2188 C   0  0  0  0  0  0  0  0  0  0  0  0
    7.8493    9.4285   21.9198 C   0  0  0  0  0  0  0  0  0  0  0  0
    6.7352    8.7309   22.6554 C   0  0  0  0  0  0  0  0  0  0  0  0
    7.0695    8.8945   24.1400 C   0  0  0  0  0  0  0  0  0  0  0  0
    8.3839    8.1794   24.3800 C   0  0  0  0  0  0  0  0  0  0  0  0
   10.0314    5.9862   24.5596 C   0  0  0  0  0  0  0  0  0  0  0  0
   10.0370    6.8075   23.2850 C   0  0  0  0  0  0  0  0  0  0  0  0
 38 39  1  0  0  0
 39 32  1  0  0  0
 32 33  1  0  0  0
 33 34  1  0  0  0
 34 35  1  0  0  0
 35 36  1  0  0  0
 36 37  1  0  0  0
 35 30  1  0  0  0
 30  1  1  0  0  0
  1  2  2  0  0  0
  2  3  1  0  0  0
  3  4  2  0  0  0
  4  5  1  0  0  0
  5  6  1  0  0  0
  6  7  2  0  0  0
  6  8  1  0  0  0
  8  9  2  0  0  0
  9 13  1  0  0  0
 13 14  2  0  0  0
 14 15  1  0  0  0
 15 16  2  0  0  0
 16 17  1  0  0  0
 17 18  2  0  0  0
 18 19  1  0  0  0
 19 20  2  0  0  0
 20 21  1  0  0  0
  9 23  1  0  0  0
 23 24  2  0  0  0
 24 25  1  0  0  0
 25 26  2  0  0  0
 26 27  1  0  0  0
 27 28  1  0  0  0
 27 29  2  0  0  0
  8 10  1  0  0  0
 10 11  2  0  0  0
 37 32  1  0  0  0
 11  1  1  0  0  0
 10  4  1  0  0  0
 21 13  1  0  0  0
 29 23  1  0  0  0
 20 15  1  0  0  0
 30 31  1  0  0  0
  5 12  1  0  0  0
 21 22  1  0  0  0
M  END
> <minimizedAffinity>
-9.51433

> <CNNscore>
0.2094610035

> <CNNaffinity>
6.5285940170

> <CNN_VS>
1.3674858809

> <CNNaffinity_variance>
0.3005248308

$$$$
[H]c1c([H])c(F)c([H])c(C(=C2C(=O)N([H])c3c([H])c([H])c(N([H])C4([H])C([H])([H])C([H])([H])N(C([H])([H])C([H])([H])[H])C([H])([H])C4([H])[H])c([H])c32)c2nc3c([H])c([H])c([H])c([H])c3n2[H])c1[H]


 39 44  0  0  0  0  0  0  0  0999 V2000
    3.5228    5.6217   13.8055 C   0  0  0  0  0  0  0  0  0  0  0  0
    3.1389    4.5214   13.1108 C   0  0  0  0  0  0  0  0  0  0  0  0
    3.0712    3.3247   13.7675 C   0  0  0  0  0  0  0  0  0  0  0  0
    3.3745    3.1708   15.1124 C   0  0  0  0  0  0  0  0  0  0  0  0
    3.3744    2.0340   15.9560 N   0  0  0  0  0  0  0  0  0  0  0  0
    3.7842    2.4709   17.2495 C   0  0  0  0  0  0  0  0  0  0  0  0
    3.8659    1.6364   18.1745 O   0  0  0  0  0  0  0  0  0  0  0  0
    4.0476    3.9041   17.2322 C   0  0  0  0  0  0  0  0  0  0  0  0
    4.4342    4.6377   18.2295 C   0  0  0  0  0  0  0  0  0  0  0  0
    3.7683    4.3014   15.8263 C   0  0  0  0  0  0  0  0  0  0  0  0
    3.8338    5.4924   15.1609 C   0  0  0  0  0  0  0  0  0  0  0  0
    3.1125    1.0778   15.6348 H   0  0  0  0  0  0  0  0  0  0  0  0
    4.6592    4.0495   19.5700 C   0  0  0  0  0  0  0  0  0  0  0  0
    3.9280    4.2595   20.6514 N   0  0  0  0  0  0  0  0  0  0  0  0
    4.4043    3.5854   21.7096 C   0  0  0  0  0  0  0  0  0  0  0  0
    3.9933    3.4890   23.0206 C   0  0  0  0  0  0  0  0  0  0  0  0
    4.6614    2.7150   23.9390 C   0  0  0  0  0  0  0  0  0  0  0  0
    5.7818    2.0230   23.4950 C   0  0  0  0  0  0  0  0  0  0  0  0
    6.1831    2.1276   22.1807 C   0  0  0  0  0  0  0  0  0  0  0  0
    5.5140    2.9036   21.2575 C   0  0  0  0  0  0  0  0  0  0  0  0
    5.6534    3.1999   19.9470 N   0  0  0  0  0  0  0  0  0  0  0  0
    6.3964    2.8410   19.3232 H   0  0  0  0  0  0  0  0  0  0  0  0
    4.6432    6.0870   18.2578 C   0  0  0  0  0  0  0  0  0  0  0  0
    3.6443    7.0002   18.5634 C   0  0  0  0  0  0  0  0  0  0  0  0
    3.8895    8.3552   18.6116 C   0  0  0  0  0  0  0  0  0  0  0  0
    5.1700    8.8359   18.3489 C   0  0  0  0  0  0  0  0  0  0  0  0
    6.1808    7.9359   18.0416 C   0  0  0  0  0  0  0  0  0  0  0  0
    7.4240    8.4092   17.7847 F   0  0  0  0  0  0  0  0  0  0  0  0
    5.9051    6.5621   17.9990 C   0  0  0  0  0  0  0  0  0  0  0  0
    3.6191    6.9192   13.2148 N   0  0  0  0  0  0  0  0  0  0  0  0
    2.8131    7.5759   13.1738 H   0  0  0  0  0  0  0  0  0  0  0  0
    7.1489    7.7440   11.9075 N   0  0  0  0  0  0  0  0  0  0  0  0
    6.3113    7.6996   10.7183 C   0  0  0  0  0  0  0  0  0  0  0  0
    4.8757    7.4770   11.1580 C   0  0  0  0  0  0  0  0  0  0  0  0
    4.8702    7.3343   12.6575 C   0  0  0  0  0  0  0  0  0  0  0  0
    5.3491    8.6863   13.1916 C   0  0  0  0  0  0  0  0  0  0  0  0
    6.7650    8.8851   12.6895 C   0  0  0  0  0  0  0  0  0  0  0  0
    9.4501    8.3573   12.5225 C   0  0  0  0  0  0  0  0  0  0  0  0
    8.5268    7.7857   11.4643 C   0  0  0  0  0  0  0  0  0  0  0  0
 38 39  1  0  0  0
 39 32  1  0  0  0
 32 33  1  0  0  0
 33 34  1  0  0  0
 34 35  1  0  0  0
 35 36  1  0  0  0
 36 37  1  0  0  0
 35 30  1  0  0  0
 30  1  1  0  0  0
  1  2  2  0  0  0
  2  3  1  0  0  0
  3  4  2  0  0  0
  4  5  1  0  0  0
  5  6  1  0  0  0
  6  7  2  0  0  0
  6  8  1  0  0  0
  8  9  2  0  0  0
  9 13  1  0  0  0
 13 14  2  0  0  0
 14 15  1  0  0  0
 15 16  2  0  0  0
 16 17  1  0  0  0
 17 18  2  0  0  0
 18 19  1  0  0  0
 19 20  2  0  0  0
 20 21  1  0  0  0
  9 23  1  0  0  0
 23 24  2  0  0  0
 24 25  1  0  0  0
 25 26  2  0  0  0
 26 27  1  0  0  0
 27 28  1  0  0  0
 27 29  2  0  0  0
  8 10  1  0  0  0
 10 11  2  0  0  0
 37 32  1  0  0  0
 11  1  1  0  0  0
 10  4  1  0  0  0
 21 13  1  0  0  0
 29 23  1  0  0  0
 20 15  1  0  0  0
 30 31  1  0  0  0
  5 12  1  0  0  0
 21 22  1  0  0  0
M  END
> <minimizedAffinity>
-9.25140

> <CNNscore>
0.2054913491

> <CNNaffinity>
6.5330276489

> <CNN_VS>
1.3424806595

> <CNNaffinity_variance>
0.4672047496

$$$$
[H]c1nc([H])n([H])c1C#Cc1c([H])c(C(=O)N([H])c2c([H])c([H])c(C([H])([H])N3C([H])([H])C([H])([H])N(C([H])([H])[H])C([H])([H])C3([H])[H])c(C(F)(F)F)c2[H])c([H])c([H])c1C([H])([H])[H]


 37 40  0  0  0  0  0  0  0  0999 V2000
    3.7518    3.0561   15.6255 N   0  0  0  0  0  0  0  0  0  0  0  0
    3.4685    1.8810   16.3397 C   0  0  0  0  0  0  0  0  0  0  0  0
    2.9853    0.8255   15.8883 O   0  0  0  0  0  0  0  0  0  0  0  0
    4.1740    3.8996   16.1178 H   0  0  0  0  0  0  0  0  0  0  0  0
    3.7763    1.8873   17.7948 C   0  0  0  0  0  0  0  0  0  0  0  0
    3.4434    0.7821   18.5515 C   0  0  0  0  0  0  0  0  0  0  0  0
    3.6892    0.7166   19.9016 C   0  0  0  0  0  0  0  0  0  0  0  0
    4.2894    1.8100   20.4851 C   0  0  0  0  0  0  0  0  0  0  0  0
    4.5575    1.7451   21.9435 C   0  0  0  0  0  0  0  0  0  0  0  0
    4.6443    2.9375   19.7896 C   0  0  0  0  0  0  0  0  0  0  0  0
    4.3737    2.9548   18.4222 C   0  0  0  0  0  0  0  0  0  0  0  0
    5.2740    4.0752   20.4229 C   0  0  0  0  0  0  0  0  0  0  0  0
    5.7919    5.0173   20.9698 C   0  0  0  0  0  0  0  0  0  0  0  0
    6.3972    6.1318   21.6425 C   0  0  0  0  0  0  0  0  0  0  0  0
    6.5284    7.3825   21.0782 C   0  0  0  0  0  0  0  0  0  0  0  0
    7.1342    8.1919   21.9670 N   0  0  0  0  0  0  0  0  0  0  0  0
    7.3892    7.4800   23.0820 C   0  0  0  0  0  0  0  0  0  0  0  0
    6.9318    6.2121   22.8733 N   0  0  0  0  0  0  0  0  0  0  0  0
    6.9672    5.4018   23.5289 H   0  0  0  0  0  0  0  0  0  0  0  0
    3.1033    3.6714   11.4342 C   0  0  0  0  0  0  0  0  0  0  0  0
    3.9957    4.4216   12.1864 C   0  0  0  0  0  0  0  0  0  0  0  0
    4.1946    4.2045   13.5309 C   0  0  0  0  0  0  0  0  0  0  0  0
    3.5057    3.2035   14.2388 C   0  0  0  0  0  0  0  0  0  0  0  0
    2.6325    2.4727   13.4921 C   0  0  0  0  0  0  0  0  0  0  0  0
    2.4210    2.6875   12.1129 C   0  0  0  0  0  0  0  0  0  0  0  0
    1.4295    1.8287   11.4060 C   0  0  0  0  0  0  0  0  0  0  0  0
    0.4517    2.5565   10.7585 F   0  0  0  0  0  0  0  0  0  0  0  0
    2.0569    0.9268   10.5319 F   0  0  0  0  0  0  0  0  0  0  0  0
    0.8323    0.9824   12.3598 F   0  0  0  0  0  0  0  0  0  0  0  0
    2.9000    3.8636    9.9980 C   0  0  0  0  0  0  0  0  0  0  0  0
    5.8087    2.9534    5.8979 C   0  0  0  0  0  0  0  0  0  0  0  0
    4.5654    2.7293    6.6057 N   0  0  0  0  0  0  0  0  0  0  0  0
    3.8349    3.9338    6.8163 C   0  0  0  0  0  0  0  0  0  0  0  0
    4.1549    4.6647    8.0780 C   0  0  0  0  0  0  0  0  0  0  0  0
    4.0556    3.7817    9.1740 N   0  0  0  0  0  0  0  0  0  0  0  0
    4.6203    2.4959    9.0679 C   0  0  0  0  0  0  0  0  0  0  0  0
    4.7204    1.8833    7.7390 C   0  0  0  0  0  0  0  0  0  0  0  0
 31 32  1  0  0  0
 32 33  1  0  0  0
 33 34  1  0  0  0
 34 35  1  0  0  0
 35 30  1  0  0  0
 30 20  1  0  0  0
 20 21  2  0  0  0
 21 22  1  0  0  0
 22 23  2  0  0  0
 23  1  1  0  0  0
  1  2  1  0  0  0
  2  3  2  0  0  0
  2  5  1  0  0  0
  5  6  2  0  0  0
  6  7  1  0  0  0
  7  8  2  0  0  0
  8  9  1  0  0  0
  8 10  1  0  0  0
 10 11  2  0  0  0
 10 12  1  0  0  0
 12 13  3  0  0  0
 13 14  1  0  0  0
 14 15  2  0  0  0
 15 16  1  0  0  0
 16 17  2  0  0  0
 17 18  1  0  0  0
 23 24  1  0  0  0
 24 25  2  0  0  0
 25 26  1  0  0  0
 26 27  1  0  0  0
 26 28  1  0  0  0
 26 29  1  0  0  0
 35 36  1  0  0  0
 36 37  1  0  0  0
 37 32  1  0  0  0
 25 20  1  0  0  0
 11  5  1  0  0  0
 18 14  1  0  0  0
  1  4  1  0  0  0
 18 19  1  0  0  0
M  END
> <minimizedAffinity>
-7.66172

> <CNNscore>
0.4050841331

> <CNNaffinity>
6.4045195580

> <CNN_VS>
2.5943691730

> <CNNaffinity_variance>
0.4120864272

$$$$
[H]c1nc([H])n([H])c1C#Cc1c([H])c(C(=O)N([H])c2c([H])c([H])c(C([H])([H])N3C([H])([H])C([H])([H])N(C([H])([H])[H])C([H])([H])C3([H])[H])c(C(F)(F)F)c2[H])c([H])c([H])c1C([H])([H])[H]


 37 40  0  0  0  0  0  0  0  0999 V2000
    3.5892    3.9100   17.1902 N   0  0  0  0  0  0  0  0  0  0  0  0
    3.7806    2.6280   17.7296 C   0  0  0  0  0  0  0  0  0  0  0  0
    3.4687    1.5400   17.2097 O   0  0  0  0  0  0  0  0  0  0  0  0
    3.9046    4.7743   17.7248 H   0  0  0  0  0  0  0  0  0  0  0  0
    4.4261    2.5503   19.0673 C   0  0  0  0  0  0  0  0  0  0  0  0
    4.4975    1.3274   19.7031 C   0  0  0  0  0  0  0  0  0  0  0  0
    5.0718    1.1774   20.9421 C   0  0  0  0  0  0  0  0  0  0  0  0
    5.5827    2.3082   21.5392 C   0  0  0  0  0  0  0  0  0  0  0  0
    6.2044    2.1525   22.8779 C   0  0  0  0  0  0  0  0  0  0  0  0
    5.5430    3.5512   20.9610 C   0  0  0  0  0  0  0  0  0  0  0  0
    4.9499    3.6508   19.7034 C   0  0  0  0  0  0  0  0  0  0  0  0
    6.0859    4.7262   21.6064 C   0  0  0  0  0  0  0  0  0  0  0  0
    6.5571    5.6959   22.1474 C   0  0  0  0  0  0  0  0  0  0  0  0
    7.1385    6.8365   22.7969 C   0  0  0  0  0  0  0  0  0  0  0  0
    8.2961    7.4495   22.3679 C   0  0  0  0  0  0  0  0  0  0  0  0
    8.5651    8.4803   23.1909 N   0  0  0  0  0  0  0  0  0  0  0  0
    7.6023    8.5327   24.1318 C   0  0  0  0  0  0  0  0  0  0  0  0
    6.7278    7.5164   23.8814 N   0  0  0  0  0  0  0  0  0  0  0  0
    5.8667    7.2659   24.4139 H   0  0  0  0  0  0  0  0  0  0  0  0
    1.6532    4.7655   13.4638 C   0  0  0  0  0  0  0  0  0  0  0  0
    1.6315    5.6277   14.5505 C   0  0  0  0  0  0  0  0  0  0  0  0
    2.2650    5.3377   15.7374 C   0  0  0  0  0  0  0  0  0  0  0  0
    2.9816    4.1435   15.9326 C   0  0  0  0  0  0  0  0  0  0  0  0
    2.9973    3.3040   14.8607 C   0  0  0  0  0  0  0  0  0  0  0  0
    2.3507    3.5920   13.6391 C   0  0  0  0  0  0  0  0  0  0  0  0
    2.4306    2.5876   12.5413 C   0  0  0  0  0  0  0  0  0  0  0  0
    1.1955    2.2640   12.0169 F   0  0  0  0  0  0  0  0  0  0  0  0
    3.3219    2.9917   11.5348 F   0  0  0  0  0  0  0  0  0  0  0  0
    3.0406    1.4288   13.0586 F   0  0  0  0  0  0  0  0  0  0  0  0
    1.0144    5.0678   12.1826 C   0  0  0  0  0  0  0  0  0  0  0  0
    2.7792    8.4108    8.7461 C   0  0  0  0  0  0  0  0  0  0  0  0
    1.6837    7.9518    9.5745 N   0  0  0  0  0  0  0  0  0  0  0  0
    1.9984    7.9913   10.9631 C   0  0  0  0  0  0  0  0  0  0  0  0
    2.6292    6.7548   11.5123 C   0  0  0  0  0  0  0  0  0  0  0  0
    1.8427    5.6330   11.1749 N   0  0  0  0  0  0  0  0  0  0  0  0
    1.3449    5.5183    9.8625 C   0  0  0  0  0  0  0  0  0  0  0  0
    1.0992    6.7455    9.0977 C   0  0  0  0  0  0  0  0  0  0  0  0
 31 32  1  0  0  0
 32 33  1  0  0  0
 33 34  1  0  0  0
 34 35  1  0  0  0
 35 30  1  0  0  0
 30 20  1  0  0  0
 20 21  2  0  0  0
 21 22  1  0  0  0
 22 23  2  0  0  0
 23  1  1  0  0  0
  1  2  1  0  0  0
  2  3  2  0  0  0
  2  5  1  0  0  0
  5  6  2  0  0  0
  6  7  1  0  0  0
  7  8  2  0  0  0
  8  9  1  0  0  0
  8 10  1  0  0  0
 10 11  2  0  0  0
 10 12  1  0  0  0
 12 13  3  0  0  0
 13 14  1  0  0  0
 14 15  2  0  0  0
 15 16  1  0  0  0
 16 17  2  0  0  0
 17 18  1  0  0  0
 23 24  1  0  0  0
 24 25  2  0  0  0
 25 26  1  0  0  0
 26 27  1  0  0  0
 26 28  1  0  0  0
 26 29  1  0  0  0
 35 36  1  0  0  0
 36 37  1  0  0  0
 37 32  1  0  0  0
 25 20  1  0  0  0
 11  5  1  0  0  0
 18 14  1  0  0  0
  1  4  1  0  0  0
 18 19  1  0  0  0
M  END
> <minimizedAffinity>
-8.42644

> <CNNscore>
0.4026772678

> <CNNaffinity>
6.2633018494

> <CNN_VS>
2.5220892429

> <CNNaffinity_variance>
0.1470981389

$$$$
[H]c1nc([H])n([H])c1C#Cc1c([H])c(C(=O)N([H])c2c([H])c([H])c(C([H])([H])N3C([H])([H])C([H])([H])N(C([H])([H])[H])C([H])([H])C3([H])[H])c(C(F)(F)F)c2[H])c([H])c([H])c1C([H])([H])[H]


 37 40  0  0  0  0  0  0  0  0999 V2000
    3.6515    3.0362   17.4141 N   0  0  0  0  0  0  0  0  0  0  0  0
    3.7247    1.8679   18.1892 C   0  0  0  0  0  0  0  0  0  0  0  0
    3.3851    0.7187   17.8499 O   0  0  0  0  0  0  0  0  0  0  0  0
    3.9800    3.9683   17.8085 H   0  0  0  0  0  0  0  0  0  0  0  0
    4.2663    2.0076   19.5674 C   0  0  0  0  0  0  0  0  0  0  0  0
    4.1610    0.9406   20.4365 C   0  0  0  0  0  0  0  0  0  0  0  0
    4.6307    0.9962   21.7264 C   0  0  0  0  0  0  0  0  0  0  0  0
    5.2204    2.1732   22.1304 C   0  0  0  0  0  0  0  0  0  0  0  0
    5.7298    2.2393   23.5230 C   0  0  0  0  0  0  0  0  0  0  0  0
    5.3555    3.2687   21.3164 C   0  0  0  0  0  0  0  0  0  0  0  0
    4.8628    3.1619   20.0167 C   0  0  0  0  0  0  0  0  0  0  0  0
    5.9784    4.4957   21.7617 C   0  0  0  0  0  0  0  0  0  0  0  0
    6.4788    5.5281   22.1339 C   0  0  0  0  0  0  0  0  0  0  0  0
    7.0518    6.7683   22.5752 C   0  0  0  0  0  0  0  0  0  0  0  0
    8.0076    7.4616   21.8641 C   0  0  0  0  0  0  0  0  0  0  0  0
    8.3288    8.5742   22.5506 N   0  0  0  0  0  0  0  0  0  0  0  0
    7.5966    8.5997   23.6812 C   0  0  0  0  0  0  0  0  0  0  0  0
    6.8128    7.4835   23.6881 N   0  0  0  0  0  0  0  0  0  0  0  0
    6.1248    7.1878   24.4140 H   0  0  0  0  0  0  0  0  0  0  0  0
    2.2428    2.9555   13.3676 C   0  0  0  0  0  0  0  0  0  0  0  0
    2.9160    1.8982   13.9623 C   0  0  0  0  0  0  0  0  0  0  0  0
    3.3553    1.9409   15.2660 C   0  0  0  0  0  0  0  0  0  0  0  0
    3.1515    3.0624   16.0896 C   0  0  0  0  0  0  0  0  0  0  0  0
    2.4900    4.0946   15.4971 C   0  0  0  0  0  0  0  0  0  0  0  0
    2.0355    4.0609   14.1609 C   0  0  0  0  0  0  0  0  0  0  0  0
    1.3325    5.2588   13.6212 C   0  0  0  0  0  0  0  0  0  0  0  0
    2.0481    5.9028   12.6323 F   0  0  0  0  0  0  0  0  0  0  0  0
    0.0340    4.9452   13.1892 F   0  0  0  0  0  0  0  0  0  0  0  0
    1.1052    6.1455   14.6911 F   0  0  0  0  0  0  0  0  0  0  0  0
    1.7388    2.9191   11.9944 C   0  0  0  0  0  0  0  0  0  0  0  0
    4.0057    2.9481    7.4161 C   0  0  0  0  0  0  0  0  0  0  0  0
    2.8137    3.1742    8.2066 N   0  0  0  0  0  0  0  0  0  0  0  0
    3.0011    4.1797    9.1979 C   0  0  0  0  0  0  0  0  0  0  0  0
    3.5049    3.6931   10.5163 C   0  0  0  0  0  0  0  0  0  0  0  0
    2.6881    2.6377   10.9742 N   0  0  0  0  0  0  0  0  0  0  0  0
    2.3072    1.6277   10.0697 C   0  0  0  0  0  0  0  0  0  0  0  0
    2.2055    1.9654    8.6460 C   0  0  0  0  0  0  0  0  0  0  0  0
 31 32  1  0  0  0
 32 33  1  0  0  0
 33 34  1  0  0  0
 34 35  1  0  0  0
 35 30  1  0  0  0
 30 20  1  0  0  0
 20 21  2  0  0  0
 21 22  1  0  0  0
 22 23  2  0  0  0
 23  1  1  0  0  0
  1  2  1  0  0  0
  2  3  2  0  0  0
  2  5  1  0  0  0
  5  6  2  0  0  0
  6  7  1  0  0  0
  7  8  2  0  0  0
  8  9  1  0  0  0
  8 10  1  0  0  0
 10 11  2  0  0  0
 10 12  1  0  0  0
 12 13  3  0  0  0
 13 14  1  0  0  0
 14 15  2  0  0  0
 15 16  1  0  0  0
 16 17  2  0  0  0
 17 18  1  0  0  0
 23 24  1  0  0  0
 24 25  2  0  0  0
 25 26  1  0  0  0
 26 27  1  0  0  0
 26 28  1  0  0  0
 26 29  1  0  0  0
 35 36  1  0  0  0
 36 37  1  0  0  0
 37 32  1  0  0  0
 25 20  1  0  0  0
 11  5  1  0  0  0
 18 14  1  0  0  0
  1  4  1  0  0  0
 18 19  1  0  0  0
M  END
> <minimizedAffinity>
-8.31775

> <CNNscore>
0.3983005285

> <CNNaffinity>
6.4241499901

> <CNN_VS>
2.5587422848

> <CNNaffinity_variance>
0.1818230152

$$$$
[H]c1nc([H])n([H])c1C#Cc1c([H])c(C(=O)N([H])c2c([H])c([H])c(C([H])([H])N3C([H])([H])C([H])([H])N(C([H])([H])[H])C([H])([H])C3([H])[H])c(C(F)(F)F)c2[H])c([H])c([H])c1C([H])([H])[H]


 37 40  0  0  0  0  0  0  0  0999 V2000
    3.4663    3.9690   16.9103 N   0  0  0  0  0  0  0  0  0  0  0  0
    3.6900    2.6988   17.4652 C   0  0  0  0  0  0  0  0  0  0  0  0
    3.3991    1.5973   16.9620 O   0  0  0  0  0  0  0  0  0  0  0  0
    3.7659    4.8471   17.4312 H   0  0  0  0  0  0  0  0  0  0  0  0
    4.3461    2.6534   18.7992 C   0  0  0  0  0  0  0  0  0  0  0  0
    4.4833    1.4355   19.4337 C   0  0  0  0  0  0  0  0  0  0  0  0
    5.0714    1.3143   20.6694 C   0  0  0  0  0  0  0  0  0  0  0  0
    5.5274    2.4694   21.2644 C   0  0  0  0  0  0  0  0  0  0  0  0
    6.1638    2.3449   22.5996 C   0  0  0  0  0  0  0  0  0  0  0  0
    5.4213    3.7091   20.6874 C   0  0  0  0  0  0  0  0  0  0  0  0
    4.8168    3.7789   19.4332 C   0  0  0  0  0  0  0  0  0  0  0  0
    5.9073    4.9099   21.3307 C   0  0  0  0  0  0  0  0  0  0  0  0
    6.3296    5.9006   21.8738 C   0  0  0  0  0  0  0  0  0  0  0  0
    6.8511    7.0660   22.5302 C   0  0  0  0  0  0  0  0  0  0  0  0
    7.5079    8.0823   21.8702 C   0  0  0  0  0  0  0  0  0  0  0  0
    7.8648    9.0172   22.7707 N   0  0  0  0  0  0  0  0  0  0  0  0
    7.4478    8.6141   23.9867 C   0  0  0  0  0  0  0  0  0  0  0  0
    6.8245    7.4112   23.8291 N   0  0  0  0  0  0  0  0  0  0  0  0
    6.3832    6.8168   24.5638 H   0  0  0  0  0  0  0  0  0  0  0  0
    1.5021    4.7432   13.1809 C   0  0  0  0  0  0  0  0  0  0  0  0
    1.5690    5.6666   14.2142 C   0  0  0  0  0  0  0  0  0  0  0  0
    2.2102    5.4013   15.4027 C   0  0  0  0  0  0  0  0  0  0  0  0
    2.8452    4.1720   15.6540 C   0  0  0  0  0  0  0  0  0  0  0  0
    2.7743    3.2724   14.6343 C   0  0  0  0  0  0  0  0  0  0  0  0
    2.1190    3.5347   13.4115 C   0  0  0  0  0  0  0  0  0  0  0  0
    2.0998    2.4649   12.3744 C   0  0  0  0  0  0  0  0  0  0  0  0
    0.8715    1.8451   12.2631 F   0  0  0  0  0  0  0  0  0  0  0  0
    2.5449    2.9419   11.1313 F   0  0  0  0  0  0  0  0  0  0  0  0
    3.0782    1.5122   12.7173 F   0  0  0  0  0  0  0  0  0  0  0  0
    0.8541    5.0157   11.8977 C   0  0  0  0  0  0  0  0  0  0  0  0
   -4.0306    4.8860   10.4065 C   0  0  0  0  0  0  0  0  0  0  0  0
   -2.8197    5.6542   10.6078 N   0  0  0  0  0  0  0  0  0  0  0  0
   -1.7320    5.1697    9.8262 C   0  0  0  0  0  0  0  0  0  0  0  0
   -0.8972    4.1154   10.4744 C   0  0  0  0  0  0  0  0  0  0  0  0
   -0.4834    4.5573   11.7489 N   0  0  0  0  0  0  0  0  0  0  0  0
   -1.4228    5.1798   12.5936 C   0  0  0  0  0  0  0  0  0  0  0  0
   -2.5444    5.9003   11.9818 C   0  0  0  0  0  0  0  0  0  0  0  0
 31 32  1  0  0  0
 32 33  1  0  0  0
 33 34  1  0  0  0
 34 35  1  0  0  0
 35 30  1  0  0  0
 30 20  1  0  0  0
 20 21  2  0  0  0
 21 22  1  0  0  0
 22 23  2  0  0  0
 23  1  1  0  0  0
  1  2  1  0  0  0
  2  3  2  0  0  0
  2  5  1  0  0  0
  5  6  2  0  0  0
  6  7  1  0  0  0
  7  8  2  0  0  0
  8  9  1  0  0  0
  8 10  1  0  0  0
 10 11  2  0  0  0
 10 12  1  0  0  0
 12 13  3  0  0  0
 13 14  1  0  0  0
 14 15  2  0  0  0
 15 16  1  0  0  0
 16 17  2  0  0  0
 17 18  1  0  0  0
 23 24  1  0  0  0
 24 25  2  0  0  0
 25 26  1  0  0  0
 26 27  1  0  0  0
 26 28  1  0  0  0
 26 29  1  0  0  0
 35 36  1  0  0  0
 36 37  1  0  0  0
 37 32  1  0  0  0
 25 20  1  0  0  0
 11  5  1  0  0  0
 18 14  1  0  0  0
  1  4  1  0  0  0
 18 19  1  0  0  0
M  END
> <minimizedAffinity>
-8.50203

> <CNNscore>
0.3954830468

> <CNNaffinity>
6.3485178947

> <CNN_VS>
2.5107312202

> <CNNaffinity_variance>
0.3064101934

$$$$
[H]c1nc([H])n([H])c1C#Cc1c([H])c(C(=O)N([H])c2c([H])c([H])c(C([H])([H])N3C([H])([H])C([H])([H])N(C([H])([H])[H])C([H])([H])C3([H])[H])c(C(F)(F)F)c2[H])c([H])c([H])c1C([H])([H])[H]


 37 40  0  0  0  0  0  0  0  0999 V2000
    3.9422    3.0108   17.0385 N   0  0  0  0  0  0  0  0  0  0  0  0
    4.0441    1.8410   17.8081 C   0  0  0  0  0  0  0  0  0  0  0  0
    3.8421    0.6721   17.4286 O   0  0  0  0  0  0  0  0  0  0  0  0
    4.1472    3.9616   17.4699 H   0  0  0  0  0  0  0  0  0  0  0  0
    4.4362    2.0053   19.2334 C   0  0  0  0  0  0  0  0  0  0  0  0
    4.3189    0.9263   20.0858 C   0  0  0  0  0  0  0  0  0  0  0  0
    4.6542    1.0026   21.4160 C   0  0  0  0  0  0  0  0  0  0  0  0
    5.1193    2.2134   21.8785 C   0  0  0  0  0  0  0  0  0  0  0  0
    5.4831    2.3020   23.3148 C   0  0  0  0  0  0  0  0  0  0  0  0
    5.2589    3.3224   21.0838 C   0  0  0  0  0  0  0  0  0  0  0  0
    4.9053    3.1936   19.7415 C   0  0  0  0  0  0  0  0  0  0  0  0
    5.7496    4.5850   21.5908 C   0  0  0  0  0  0  0  0  0  0  0  0
    6.1578    5.6460   21.9940 C   0  0  0  0  0  0  0  0  0  0  0  0
    6.6450    6.9171   22.4500 C   0  0  0  0  0  0  0  0  0  0  0  0
    6.9745    7.9545   21.6044 C   0  0  0  0  0  0  0  0  0  0  0  0
    7.3941    8.9957   22.3474 N   0  0  0  0  0  0  0  0  0  0  0  0
    7.3373    8.6392   23.6453 C   0  0  0  0  0  0  0  0  0  0  0  0
    6.8748    7.3573   23.6992 N   0  0  0  0  0  0  0  0  0  0  0  0
    6.7091    6.7706   24.5454 H   0  0  0  0  0  0  0  0  0  0  0  0
    2.7660    2.8356   12.9212 C   0  0  0  0  0  0  0  0  0  0  0  0
    2.4393    1.8584   13.8503 C   0  0  0  0  0  0  0  0  0  0  0  0
    2.8212    1.9358   15.1703 C   0  0  0  0  0  0  0  0  0  0  0  0
    3.5713    3.0145   15.6718 C   0  0  0  0  0  0  0  0  0  0  0  0
    3.8870    3.9682   14.7527 C   0  0  0  0  0  0  0  0  0  0  0  0
    3.5003    3.8981   13.3966 C   0  0  0  0  0  0  0  0  0  0  0  0
    3.9161    4.9998   12.4836 C   0  0  0  0  0  0  0  0  0  0  0  0
    4.9337    4.6332   11.6262 F   0  0  0  0  0  0  0  0  0  0  0  0
    2.8223    5.5289   11.7802 F   0  0  0  0  0  0  0  0  0  0  0  0
    4.3371    6.0839   13.2773 F   0  0  0  0  0  0  0  0  0  0  0  0
    2.3432    2.7895   11.5212 C   0  0  0  0  0  0  0  0  0  0  0  0
    1.8516   -0.8320    7.9515 C   0  0  0  0  0  0  0  0  0  0  0  0
    1.7588    0.5668    8.3140 N   0  0  0  0  0  0  0  0  0  0  0  0
    3.0070    1.1012    8.7442 C   0  0  0  0  0  0  0  0  0  0  0  0
    3.2868    0.9780   10.2054 C   0  0  0  0  0  0  0  0  0  0  0  0
    2.2012    1.4998   10.9403 N   0  0  0  0  0  0  0  0  0  0  0  0
    0.8899    1.1636   10.5520 C   0  0  0  0  0  0  0  0  0  0  0  0
    0.6367    0.8490    9.1419 C   0  0  0  0  0  0  0  0  0  0  0  0
 31 32  1  0  0  0
 32 33  1  0  0  0
 33 34  1  0  0  0
 34 35  1  0  0  0
 35 30  1  0  0  0
 30 20  1  0  0  0
 20 21  2  0  0  0
 21 22  1  0  0  0
 22 23  2  0  0  0
 23  1  1  0  0  0
  1  2  1  0  0  0
  2  3  2  0  0  0
  2  5  1  0  0  0
  5  6  2  0  0  0
  6  7  1  0  0  0
  7  8  2  0  0  0
  8  9  1  0  0  0
  8 10  1  0  0  0
 10 11  2  0  0  0
 10 12  1  0  0  0
 12 13  3  0  0  0
 13 14  1  0  0  0
 14 15  2  0  0  0
 15 16  1  0  0  0
 16 17  2  0  0  0
 17 18  1  0  0  0
 23 24  1  0  0  0
 24 25  2  0  0  0
 25 26  1  0  0  0
 26 27  1  0  0  0
 26 28  1  0  0  0
 26 29  1  0  0  0
 35 36  1  0  0  0
 36 37  1  0  0  0
 37 32  1  0  0  0
 25 20  1  0  0  0
 11  5  1  0  0  0
 18 14  1  0  0  0
  1  4  1  0  0  0
 18 19  1  0  0  0
M  END
> <minimizedAffinity>
-8.60598

> <CNNscore>
0.3074474931

> <CNNaffinity>
6.3238801956

> <CNN_VS>
1.9442610741

> <CNNaffinity_variance>
0.1600355208

$$$$
[H]c1nc([H])n([H])c1C#Cc1c([H])c(C(=O)N([H])c2c([H])c([H])c(C([H])([H])N3C([H])([H])C([H])([H])N(C([H])([H])[H])C([H])([H])C3([H])[H])c(C(F)(F)F)c2[H])c([H])c([H])c1C([H])([H])[H]


 37 40  0  0  0  0  0  0  0  0999 V2000
    4.1356    2.9938   17.2688 N   0  0  0  0  0  0  0  0  0  0  0  0
    4.0887    1.8460   18.0759 C   0  0  0  0  0  0  0  0  0  0  0  0
    3.7099    0.7075   17.7417 O   0  0  0  0  0  0  0  0  0  0  0  0
    4.4872    3.9177   17.6623 H   0  0  0  0  0  0  0  0  0  0  0  0
    4.5392    1.9957   19.4854 C   0  0  0  0  0  0  0  0  0  0  0  0
    4.3934    0.9290   20.3489 C   0  0  0  0  0  0  0  0  0  0  0  0
    4.7790    0.9935   21.6660 C   0  0  0  0  0  0  0  0  0  0  0  0
    5.3255    2.1793   22.1036 C   0  0  0  0  0  0  0  0  0  0  0  0
    5.7440    2.2551   23.5256 C   0  0  0  0  0  0  0  0  0  0  0  0
    5.4971    3.2751   21.2968 C   0  0  0  0  0  0  0  0  0  0  0  0
    5.0899    3.1591   19.9687 C   0  0  0  0  0  0  0  0  0  0  0  0
    6.0734    4.5114   21.7776 C   0  0  0  0  0  0  0  0  0  0  0  0
    6.5381    5.5532   22.1696 C   0  0  0  0  0  0  0  0  0  0  0  0
    7.0735    6.8058   22.6230 C   0  0  0  0  0  0  0  0  0  0  0  0
    8.0449    7.5095   21.9440 C   0  0  0  0  0  0  0  0  0  0  0  0
    8.3212    8.6321   22.6337 N   0  0  0  0  0  0  0  0  0  0  0  0
    7.5453    8.6538   23.7348 C   0  0  0  0  0  0  0  0  0  0  0  0
    6.7799    7.5250   23.7201 N   0  0  0  0  0  0  0  0  0  0  0  0
    6.0691    7.2233   24.4211 H   0  0  0  0  0  0  0  0  0  0  0  0
    2.8737    2.8494   13.1757 C   0  0  0  0  0  0  0  0  0  0  0  0
    2.6386    1.8266   14.0832 C   0  0  0  0  0  0  0  0  0  0  0  0
    3.0465    1.8944   15.3959 C   0  0  0  0  0  0  0  0  0  0  0  0
    3.7319    3.0089   15.9115 C   0  0  0  0  0  0  0  0  0  0  0  0
    3.9579    4.0072   15.0136 C   0  0  0  0  0  0  0  0  0  0  0  0
    3.5438    3.9474   13.6652 C   0  0  0  0  0  0  0  0  0  0  0  0
    3.8595    5.1002   12.7753 C   0  0  0  0  0  0  0  0  0  0  0  0
    4.9090    4.8452   11.9160 F   0  0  0  0  0  0  0  0  0  0  0  0
    2.7239    5.5403   12.0771 F   0  0  0  0  0  0  0  0  0  0  0  0
    4.1769    6.2026   13.5917 F   0  0  0  0  0  0  0  0  0  0  0  0
    2.4209    2.8121   11.7849 C   0  0  0  0  0  0  0  0  0  0  0  0
   -2.2265    4.2067   10.1859 C   0  0  0  0  0  0  0  0  0  0  0  0
   -0.8556    4.5752   10.4719 N   0  0  0  0  0  0  0  0  0  0  0  0
    0.0791    3.8509    9.6779 C   0  0  0  0  0  0  0  0  0  0  0  0
    0.5472    2.5581   10.2593 C   0  0  0  0  0  0  0  0  0  0  0  0
    1.0158    2.7725   11.5728 N   0  0  0  0  0  0  0  0  0  0  0  0
    0.2599    3.5812   12.4435 C   0  0  0  0  0  0  0  0  0  0  0  0
   -0.5800    4.6361   11.8663 C   0  0  0  0  0  0  0  0  0  0  0  0
 31 32  1  0  0  0
 32 33  1  0  0  0
 33 34  1  0  0  0
 34 35  1  0  0  0
 35 30  1  0  0  0
 30 20  1  0  0  0
 20 21  2  0  0  0
 21 22  1  0  0  0
 22 23  2  0  0  0
 23  1  1  0  0  0
  1  2  1  0  0  0
  2  3  2  0  0  0
  2  5  1  0  0  0
  5  6  2  0  0  0
  6  7  1  0  0  0
  7  8  2  0  0  0
  8  9  1  0  0  0
  8 10  1  0  0  0
 10 11  2  0  0  0
 10 12  1  0  0  0
 12 13  3  0  0  0
 13 14  1  0  0  0
 14 15  2  0  0  0
 15 16  1  0  0  0
 16 17  2  0  0  0
 17 18  1  0  0  0
 23 24  1  0  0  0
 24 25  2  0  0  0
 25 26  1  0  0  0
 26 27  1  0  0  0
 26 28  1  0  0  0
 26 29  1  0  0  0
 35 36  1  0  0  0
 36 37  1  0  0  0
 37 32  1  0  0  0
 25 20  1  0  0  0
 11  5  1  0  0  0
 18 14  1  0  0  0
  1  4  1  0  0  0
 18 19  1  0  0  0
M  END
> <minimizedAffinity>
-8.96905

> <CNNscore>
0.2933396101

> <CNNaffinity>
6.3557653427

> <CNN_VS>
1.8643977642

> <CNNaffinity_variance>
0.1803214550

$$$$
[H]c1nc([H])n([H])c1C#Cc1c([H])c(C(=O)N([H])c2c([H])c([H])c(C([H])([H])N3C([H])([H])C([H])([H])N(C([H])([H])[H])C([H])([H])C3([H])[H])c(C(F)(F)F)c2[H])c([H])c([H])c1C([H])([H])[H]


 37 40  0  0  0  0  0  0  0  0999 V2000
    3.3891    4.0053   15.9764 N   0  0  0  0  0  0  0  0  0  0  0  0
    2.5572    2.9489   15.5723 C   0  0  0  0  0  0  0  0  0  0  0  0
    1.9187    2.1721   16.3073 O   0  0  0  0  0  0  0  0  0  0  0  0
    3.8817    4.6122   15.2544 H   0  0  0  0  0  0  0  0  0  0  0  0
    2.4162    2.7255   14.1087 C   0  0  0  0  0  0  0  0  0  0  0  0
    1.3777    1.9401   13.6511 C   0  0  0  0  0  0  0  0  0  0  0  0
    1.1865    1.6824   12.3152 C   0  0  0  0  0  0  0  0  0  0  0  0
    2.0817    2.2439   11.4323 C   0  0  0  0  0  0  0  0  0  0  0  0
    1.8803    1.9690    9.9877 C   0  0  0  0  0  0  0  0  0  0  0  0
    3.1336    3.0327   11.8225 C   0  0  0  0  0  0  0  0  0  0  0  0
    3.2845    3.2642   13.1889 C   0  0  0  0  0  0  0  0  0  0  0  0
    4.0625    3.6125   10.8776 C   0  0  0  0  0  0  0  0  0  0  0  0
    4.8529    4.0848   10.0985 C   0  0  0  0  0  0  0  0  0  0  0  0
    5.8125    4.6357    9.1837 C   0  0  0  0  0  0  0  0  0  0  0  0
    6.8881    5.4023    9.5780 C   0  0  0  0  0  0  0  0  0  0  0  0
    7.5853    5.7572    8.4825 N   0  0  0  0  0  0  0  0  0  0  0  0
    6.9739    5.2316    7.4032 C   0  0  0  0  0  0  0  0  0  0  0  0
    5.8828    4.5424    7.8445 N   0  0  0  0  0  0  0  0  0  0  0  0
    5.1862    4.0131    7.2767 H   0  0  0  0  0  0  0  0  0  0  0  0
    4.1030    5.1885   20.0330 C   0  0  0  0  0  0  0  0  0  0  0  0
    3.6760    6.0655   19.0463 C   0  0  0  0  0  0  0  0  0  0  0  0
    3.4461    5.6648   17.7498 C   0  0  0  0  0  0  0  0  0  0  0  0
    3.6278    4.3340   17.3329 C   0  0  0  0  0  0  0  0  0  0  0  0
    4.0467    3.4811   18.3081 C   0  0  0  0  0  0  0  0  0  0  0  0
    4.2855    3.8820   19.6406 C   0  0  0  0  0  0  0  0  0  0  0  0
    4.7529    2.8569   20.6159 C   0  0  0  0  0  0  0  0  0  0  0  0
    5.9994    3.1387   21.1371 F   0  0  0  0  0  0  0  0  0  0  0  0
    3.8102    2.6448   21.6344 F   0  0  0  0  0  0  0  0  0  0  0  0
    4.7894    1.6148   19.9539 F   0  0  0  0  0  0  0  0  0  0  0  0
    4.3223    5.5859   21.4240 C   0  0  0  0  0  0  0  0  0  0  0  0
    7.7386    9.2946   20.6026 C   0  0  0  0  0  0  0  0  0  0  0  0
    6.8131    8.3237   20.0570 N   0  0  0  0  0  0  0  0  0  0  0  0
    5.4729    8.5511   20.4824 C   0  0  0  0  0  0  0  0  0  0  0  0
    5.0799    7.8710   21.7519 C   0  0  0  0  0  0  0  0  0  0  0  0
    5.3868    6.4964   21.6665 N   0  0  0  0  0  0  0  0  0  0  0  0
    6.6339    6.1071   21.1406 C   0  0  0  0  0  0  0  0  0  0  0  0
    7.2878    6.9869   20.1661 C   0  0  0  0  0  0  0  0  0  0  0  0
 31 32  1  0  0  0
 32 33  1  0  0  0
 33 34  1  0  0  0
 34 35  1  0  0  0
 35 30  1  0  0  0
 30 20  1  0  0  0
 20 21  2  0  0  0
 21 22  1  0  0  0
 22 23  2  0  0  0
 23  1  1  0  0  0
  1  2  1  0  0  0
  2  3  2  0  0  0
  2  5  1  0  0  0
  5  6  2  0  0  0
  6  7  1  0  0  0
  7  8  2  0  0  0
  8  9  1  0  0  0
  8 10  1  0  0  0
 10 11  2  0  0  0
 10 12  1  0  0  0
 12 13  3  0  0  0
 13 14  1  0  0  0
 14 15  2  0  0  0
 15 16  1  0  0  0
 16 17  2  0  0  0
 17 18  1  0  0  0
 23 24  1  0  0  0
 24 25  2  0  0  0
 25 26  1  0  0  0
 26 27  1  0  0  0
 26 28  1  0  0  0
 26 29  1  0  0  0
 35 36  1  0  0  0
 36 37  1  0  0  0
 37 32  1  0  0  0
 25 20  1  0  0  0
 11  5  1  0  0  0
 18 14  1  0  0  0
  1  4  1  0  0  0
 18 19  1  0  0  0
M  END
> <minimizedAffinity>
-7.64731

> <CNNscore>
0.2790505886

> <CNNaffinity>
6.2065730095

> <CNN_VS>
1.7319478989

> <CNNaffinity_variance>
0.2680445313

$$$$
[H]c1nc([H])n([H])c1C#Cc1c([H])c(C(=O)N([H])c2c([H])c([H])c(C([H])([H])N3C([H])([H])C([H])([H])N(C([H])([H])[H])C([H])([H])C3([H])[H])c(C(F)(F)F)c2[H])c([H])c([H])c1C([H])([H])[H]


 37 40  0  0  0  0  0  0  0  0999 V2000
    4.1125    3.1071   15.4708 N   0  0  0  0  0  0  0  0  0  0  0  0
    3.3945    3.5465   16.5945 C   0  0  0  0  0  0  0  0  0  0  0  0
    2.2880    4.1181   16.6027 O   0  0  0  0  0  0  0  0  0  0  0  0
    5.0518    2.6205   15.5855 H   0  0  0  0  0  0  0  0  0  0  0  0
    4.0147    3.3072   17.9250 C   0  0  0  0  0  0  0  0  0  0  0  0
    4.1183    2.0115   18.3890 C   0  0  0  0  0  0  0  0  0  0  0  0
    4.6721    1.7118   19.6101 C   0  0  0  0  0  0  0  0  0  0  0  0
    5.1282    2.7663   20.3692 C   0  0  0  0  0  0  0  0  0  0  0  0
    5.7275    2.4488   21.6895 C   0  0  0  0  0  0  0  0  0  0  0  0
    5.0544    4.0750   19.9658 C   0  0  0  0  0  0  0  0  0  0  0  0
    4.4841    4.3267   18.7190 C   0  0  0  0  0  0  0  0  0  0  0  0
    5.5399    5.1676   20.7797 C   0  0  0  0  0  0  0  0  0  0  0  0
    5.9419    6.0920   21.4421 C   0  0  0  0  0  0  0  0  0  0  0  0
    6.4195    7.2071   22.2100 C   0  0  0  0  0  0  0  0  0  0  0  0
    6.7093    8.4394   21.6646 C   0  0  0  0  0  0  0  0  0  0  0  0
    7.1307    9.2549   22.6492 N   0  0  0  0  0  0  0  0  0  0  0  0
    7.1137    8.5650   23.8062 C   0  0  0  0  0  0  0  0  0  0  0  0
    6.6743    7.3045   23.5263 N   0  0  0  0  0  0  0  0  0  0  0  0
    6.5406    6.5103   24.1890 H   0  0  0  0  0  0  0  0  0  0  0  0
    2.8118    3.7822   11.4436 C   0  0  0  0  0  0  0  0  0  0  0  0
    3.7457    4.5808   12.0878 C   0  0  0  0  0  0  0  0  0  0  0  0
    4.1555    4.3439   13.3802 C   0  0  0  0  0  0  0  0  0  0  0  0
    3.6553    3.2719   14.1408 C   0  0  0  0  0  0  0  0  0  0  0  0
    2.7396    2.4941   13.5001 C   0  0  0  0  0  0  0  0  0  0  0  0
    2.3126    2.7286   12.1750 C   0  0  0  0  0  0  0  0  0  0  0  0
    1.2957    1.8126   11.5857 C   0  0  0  0  0  0  0  0  0  0  0  0
    0.2095    2.4816   11.0589 F   0  0  0  0  0  0  0  0  0  0  0  0
    1.8671    0.9447   10.6417 F   0  0  0  0  0  0  0  0  0  0  0  0
    0.8626    0.9371   12.5999 F   0  0  0  0  0  0  0  0  0  0  0  0
    2.3861    3.9965   10.0602 C   0  0  0  0  0  0  0  0  0  0  0  0
   -0.4123    7.5940    7.7522 C   0  0  0  0  0  0  0  0  0  0  0  0
    0.1406    6.2558    7.7319 N   0  0  0  0  0  0  0  0  0  0  0  0
   -0.3197    5.4606    8.8203 C   0  0  0  0  0  0  0  0  0  0  0  0
    0.5058    5.5351   10.0619 C   0  0  0  0  0  0  0  0  0  0  0  0
    1.8571    5.2783    9.7473 N   0  0  0  0  0  0  0  0  0  0  0  0
    2.4231    5.8951    8.6148 C   0  0  0  0  0  0  0  0  0  0  0  0
    1.5432    6.2418    7.4937 C   0  0  0  0  0  0  0  0  0  0  0  0
 31 32  1  0  0  0
 32 33  1  0  0  0
 33 34  1  0  0  0
 34 35  1  0  0  0
 35 30  1  0  0  0
 30 20  1  0  0  0
 20 21  2  0  0  0
 21 22  1  0  0  0
 22 23  2  0  0  0
 23  1  1  0  0  0
  1  2  1  0  0  0
  2  3  2  0  0  0
  2  5  1  0  0  0
  5  6  2  0  0  0
  6  7  1  0  0  0
  7  8  2  0  0  0
  8  9  1  0  0  0
  8 10  1  0  0  0
 10 11  2  0  0  0
 10 12  1  0  0  0
 12 13  3  0  0  0
 13 14  1  0  0  0
 14 15  2  0  0  0
 15 16  1  0  0  0
 16 17  2  0  0  0
 17 18  1  0  0  0
 23 24  1  0  0  0
 24 25  2  0  0  0
 25 26  1  0  0  0
 26 27  1  0  0  0
 26 28  1  0  0  0
 26 29  1  0  0  0
 35 36  1  0  0  0
 36 37  1  0  0  0
 37 32  1  0  0  0
 25 20  1  0  0  0
 11  5  1  0  0  0
 18 14  1  0  0  0
  1  4  1  0  0  0
 18 19  1  0  0  0
M  END
> <minimizedAffinity>
-7.38024

> <CNNscore>
0.2689827681

> <CNNaffinity>
5.9370212555

> <CNN_VS>
1.5969563723

> <CNNaffinity_variance>
0.2972415686

$$$$
[H]c1nc([H])n([H])c1C#Cc1c([H])c(C(=O)N([H])c2c([H])c([H])c(C([H])([H])N3C([H])([H])C([H])([H])N(C([H])([H])[H])C([H])([H])C3([H])[H])c(C(F)(F)F)c2[H])c([H])c([H])c1C([H])([H])[H]


 37 40  0  0  0  0  0  0  0  0999 V2000
    3.7311    3.9285   17.0456 N   0  0  0  0  0  0  0  0  0  0  0  0
    3.9364    2.6760   17.6457 C   0  0  0  0  0  0  0  0  0  0  0  0
    3.6928    1.5581   17.1535 O   0  0  0  0  0  0  0  0  0  0  0  0
    3.9853    4.8236   17.5616 H   0  0  0  0  0  0  0  0  0  0  0  0
    4.5073    2.6734   19.0191 C   0  0  0  0  0  0  0  0  0  0  0  0
    4.5662    1.4827   19.7144 C   0  0  0  0  0  0  0  0  0  0  0  0
    5.0729    1.4019   20.9889 C   0  0  0  0  0  0  0  0  0  0  0  0
    5.5281    2.5695   21.5595 C   0  0  0  0  0  0  0  0  0  0  0  0
    6.0768    2.4886   22.9363 C   0  0  0  0  0  0  0  0  0  0  0  0
    5.4974    3.7836   20.9224 C   0  0  0  0  0  0  0  0  0  0  0  0
    4.9738    3.8129   19.6308 C   0  0  0  0  0  0  0  0  0  0  0  0
    5.9810    4.9983   21.5409 C   0  0  0  0  0  0  0  0  0  0  0  0
    6.3735    6.0064   22.0744 C   0  0  0  0  0  0  0  0  0  0  0  0
    6.8254    7.2016   22.7290 C   0  0  0  0  0  0  0  0  0  0  0  0
    8.0738    7.3328   23.2984 C   0  0  0  0  0  0  0  0  0  0  0  0
    8.1770    8.5679   23.8238 N   0  0  0  0  0  0  0  0  0  0  0  0
    7.0205    9.2212   23.5990 C   0  0  0  0  0  0  0  0  0  0  0  0
    6.1936    8.3720   22.9241 N   0  0  0  0  0  0  0  0  0  0  0  0
    5.2218    8.5530   22.5915 H   0  0  0  0  0  0  0  0  0  0  0  0
    2.0668    4.6106   13.1557 C   0  0  0  0  0  0  0  0  0  0  0  0
    2.4826    5.6320   13.9975 C   0  0  0  0  0  0  0  0  0  0  0  0
    3.0207    5.3923   15.2414 C   0  0  0  0  0  0  0  0  0  0  0  0
    3.1880    4.0911   15.7479 C   0  0  0  0  0  0  0  0  0  0  0  0
    2.7771    3.0956   14.9147 C   0  0  0  0  0  0  0  0  0  0  0  0
    2.2239    3.3309   13.6373 C   0  0  0  0  0  0  0  0  0  0  0  0
    1.8009    2.1579   12.8214 C   0  0  0  0  0  0  0  0  0  0  0  0
    0.7378    2.4378   11.9869 F   0  0  0  0  0  0  0  0  0  0  0  0
    2.8783    1.6087   12.1083 F   0  0  0  0  0  0  0  0  0  0  0  0
    1.4449    1.1216   13.7057 F   0  0  0  0  0  0  0  0  0  0  0  0
    1.5223    4.8411   11.8173 C   0  0  0  0  0  0  0  0  0  0  0  0
    5.0353    3.6325    8.3105 C   0  0  0  0  0  0  0  0  0  0  0  0
    4.3180    3.2737    9.5162 N   0  0  0  0  0  0  0  0  0  0  0  0
    2.9125    3.1801    9.3052 C   0  0  0  0  0  0  0  0  0  0  0  0
    2.1492    4.4477    9.5032 C   0  0  0  0  0  0  0  0  0  0  0  0
    2.4642    4.9971   10.7641 N   0  0  0  0  0  0  0  0  0  0  0  0
    3.8114    5.0400   11.1725 C   0  0  0  0  0  0  0  0  0  0  0  0
    4.7335    4.0261   10.6500 C   0  0  0  0  0  0  0  0  0  0  0  0
 31 32  1  0  0  0
 32 33  1  0  0  0
 33 34  1  0  0  0
 34 35  1  0  0  0
 35 30  1  0  0  0
 30 20  1  0  0  0
 20 21  2  0  0  0
 21 22  1  0  0  0
 22 23  2  0  0  0
 23  1  1  0  0  0
  1  2  1  0  0  0
  2  3  2  0  0  0
  2  5  1  0  0  0
  5  6  2  0  0  0
  6  7  1  0  0  0
  7  8  2  0  0  0
  8  9  1  0  0  0
  8 10  1  0  0  0
 10 11  2  0  0  0
 10 12  1  0  0  0
 12 13  3  0  0  0
 13 14  1  0  0  0
 14 15  2  0  0  0
 15 16  1  0  0  0
 16 17  2  0  0  0
 17 18  1  0  0  0
 23 24  1  0  0  0
 24 25  2  0  0  0
 25 26  1  0  0  0
 26 27  1  0  0  0
 26 28  1  0  0  0
 26 29  1  0  0  0
 35 36  1  0  0  0
 36 37  1  0  0  0
 37 32  1  0  0  0
 25 20  1  0  0  0
 11  5  1  0  0  0
 18 14  1  0  0  0
  1  4  1  0  0  0
 18 19  1  0  0  0
M  END
> <minimizedAffinity>
-7.82198

> <CNNscore>
0.2667548656

> <CNNaffinity>
6.2300868034

> <CNN_VS>
1.6619060040

> <CNNaffinity_variance>
0.1388126910

$$$$
[H]c1nc(N([H])c2c([H])c(N([H])C(=O)c3c([H])c([H])c(C([H])([H])N4C([H])([H])C([H])([H])N(C([H])([H])[H])C([H])([H])C4([H])[H])c(C(F)(F)F)c3[H])c([H])c([H])c2C([H])([H])[H])nc(-c2c([H])nc([H])c([H])c2[H])c1[H]


 43 47  0  0  0  0  0  0  0  0999 V2000
    5.9214    5.8943   17.4289 C   0  0  0  0  0  0  0  0  0  0  0  0
    6.6495    4.8851   17.5094 O   0  0  0  0  0  0  0  0  0  0  0  0
    4.7811    5.9208   16.6280 N   0  0  0  0  0  0  0  0  0  0  0  0
    4.2125    6.8442   16.6215 H   0  0  0  0  0  0  0  0  0  0  0  0
    4.2333    4.9170   15.8106 C   0  0  0  0  0  0  0  0  0  0  0  0
    3.9898    5.2222   14.4650 C   0  0  0  0  0  0  0  0  0  0  0  0
    3.4411    4.2797   13.6324 C   0  0  0  0  0  0  0  0  0  0  0  0
    3.1224    3.0246   14.1040 C   0  0  0  0  0  0  0  0  0  0  0  0
    2.5336    2.0128   13.2034 C   0  0  0  0  0  0  0  0  0  0  0  0
    3.3421    2.6658   15.4321 C   0  0  0  0  0  0  0  0  0  0  0  0
    3.8910    3.6272   16.2408 C   0  0  0  0  0  0  0  0  0  0  0  0
    2.9933    1.3826   15.8485 N   0  0  0  0  0  0  0  0  0  0  0  0
    2.7197    0.6768   15.0674 H   0  0  0  0  0  0  0  0  0  0  0  0
    2.9286    0.8233   17.1351 C   0  0  0  0  0  0  0  0  0  0  0  0
    2.1417   -0.1879   17.5221 N   0  0  0  0  0  0  0  0  0  0  0  0
    2.1293   -0.6749   18.7684 C   0  0  0  0  0  0  0  0  0  0  0  0
    2.9689   -0.1251   19.7476 C   0  0  0  0  0  0  0  0  0  0  0  0
    3.7824    0.9134   19.3650 C   0  0  0  0  0  0  0  0  0  0  0  0
    3.7252    1.3331   18.0951 N   0  0  0  0  0  0  0  0  0  0  0  0
    4.7091    1.5658   20.3201 C   0  0  0  0  0  0  0  0  0  0  0  0
    5.5851    0.8301   21.0616 C   0  0  0  0  0  0  0  0  0  0  0  0
    6.4427    1.4886   21.9504 C   0  0  0  0  0  0  0  0  0  0  0  0
    6.4124    2.8561   22.0832 C   0  0  0  0  0  0  0  0  0  0  0  0
    5.5342    3.5416   21.3337 N   0  0  0  0  0  0  0  0  0  0  0  0
    4.6985    2.9379   20.4720 C   0  0  0  0  0  0  0  0  0  0  0  0
    7.1073    9.2678   19.7993 C   0  0  0  0  0  0  0  0  0  0  0  0
    8.0347    8.4990   19.1417 C   0  0  0  0  0  0  0  0  0  0  0  0
    7.6611    7.4034   18.3676 C   0  0  0  0  0  0  0  0  0  0  0  0
    6.3464    7.0447   18.2307 C   0  0  0  0  0  0  0  0  0  0  0  0
    5.4308    7.8282   18.8994 C   0  0  0  0  0  0  0  0  0  0  0  0
    5.7670    8.9149   19.6696 C   0  0  0  0  0  0  0  0  0  0  0  0
    4.7502    9.7353   20.3719 C   0  0  0  0  0  0  0  0  0  0  0  0
    4.9473   11.0875   20.2252 F   0  0  0  0  0  0  0  0  0  0  0  0
    3.5163    9.4261   19.8108 F   0  0  0  0  0  0  0  0  0  0  0  0
    4.6503    9.3832   21.7127 F   0  0  0  0  0  0  0  0  0  0  0  0
    7.5366   10.3744   20.6508 C   0  0  0  0  0  0  0  0  0  0  0  0
    8.8947    9.0214   25.3017 C   0  0  0  0  0  0  0  0  0  0  0  0
    8.4296   10.1811   24.5659 N   0  0  0  0  0  0  0  0  0  0  0  0
    7.3422    9.7208   23.6954 C   0  0  0  0  0  0  0  0  0  0  0  0
    7.9418    8.9807   22.5380 C   0  0  0  0  0  0  0  0  0  0  0  0
    8.5993    9.8924   21.5695 N   0  0  0  0  0  0  0  0  0  0  0  0
    9.0295   11.0643   22.3703 C   0  0  0  0  0  0  0  0  0  0  0  0
    9.5452   10.6249   23.7265 C   0  0  0  0  0  0  0  0  0  0  0  0
 37 38  1  0  0  0
 38 39  1  0  0  0
 39 40  1  0  0  0
 40 41  1  0  0  0
 41 36  1  0  0  0
 36 26  1  0  0  0
 26 27  2  0  0  0
 27 28  1  0  0  0
 28 29  2  0  0  0
 29 30  1  0  0  0
 30 31  2  0  0  0
 31 32  1  0  0  0
 32 33  1  0  0  0
 32 34  1  0  0  0
 32 35  1  0  0  0
 29  1  1  0  0  0
  1  2  2  0  0  0
  1  3  1  0  0  0
  3  5  1  0  0  0
  5  6  2  0  0  0
  6  7  1  0  0  0
  7  8  2  0  0  0
  8  9  1  0  0  0
  8 10  1  0  0  0
 10 12  1  0  0  0
 12 14  1  0  0  0
 14 15  2  0  0  0
 15 16  1  0  0  0
 16 17  2  0  0  0
 17 18  1  0  0  0
 18 19  2  0  0  0
 18 20  1  0  0  0
 20 21  2  0  0  0
 21 22  1  0  0  0
 22 23  2  0  0  0
 23 24  1  0  0  0
 24 25  2  0  0  0
 10 11  2  0  0  0
 41 42  1  0  0  0
 42 43  1  0  0  0
 43 38  1  0  0  0
 31 26  1  0  0  0
 11  5  1  0  0  0
 19 14  1  0  0  0
 25 20  1  0  0  0
  3  4  1  0  0  0
 12 13  1  0  0  0
M  END
> <minimizedAffinity>
-9.97477

> <CNNscore>
0.6628241539

> <CNNaffinity>
7.4815268517

> <CNN_VS>
4.9589366913

> <CNNaffinity_variance>
0.1511714160

$$$$
[H]c1nc(N([H])c2c([H])c(N([H])C(=O)c3c([H])c([H])c(C([H])([H])N4C([H])([H])C([H])([H])N(C([H])([H])[H])C([H])([H])C4([H])[H])c(C(F)(F)F)c3[H])c([H])c([H])c2C([H])([H])[H])nc(-c2c([H])nc([H])c([H])c2[H])c1[H]


 43 47  0  0  0  0  0  0  0  0999 V2000
    0.4447    4.9504   12.1547 C   0  0  0  0  0  0  0  0  0  0  0  0
    1.4474    5.1852   11.4514 O   0  0  0  0  0  0  0  0  0  0  0  0
    0.5446    4.6895   13.5201 N   0  0  0  0  0  0  0  0  0  0  0  0
   -0.3829    4.4948   14.0473 H   0  0  0  0  0  0  0  0  0  0  0  0
    1.6816    4.6415   14.3453 C   0  0  0  0  0  0  0  0  0  0  0  0
    2.3159    5.8492   14.6649 C   0  0  0  0  0  0  0  0  0  0  0  0
    3.4384    5.8509   15.4539 C   0  0  0  0  0  0  0  0  0  0  0  0
    3.9569    4.6711   15.9421 C   0  0  0  0  0  0  0  0  0  0  0  0
    5.1644    4.6783   16.7926 C   0  0  0  0  0  0  0  0  0  0  0  0
    3.3683    3.4411   15.6565 C   0  0  0  0  0  0  0  0  0  0  0  0
    2.2486    3.4697   14.8660 C   0  0  0  0  0  0  0  0  0  0  0  0
    3.9440    2.2834   16.1760 N   0  0  0  0  0  0  0  0  0  0  0  0
    4.8408    1.9220   15.6777 H   0  0  0  0  0  0  0  0  0  0  0  0
    3.5596    1.4760   17.2589 C   0  0  0  0  0  0  0  0  0  0  0  0
    2.7327    0.4246   17.2106 N   0  0  0  0  0  0  0  0  0  0  0  0
    2.4069   -0.3049   18.2840 C   0  0  0  0  0  0  0  0  0  0  0  0
    2.9382    0.0163   19.5413 C   0  0  0  0  0  0  0  0  0  0  0  0
    3.7887    1.0929   19.6064 C   0  0  0  0  0  0  0  0  0  0  0  0
    4.0559    1.7629   18.4786 N   0  0  0  0  0  0  0  0  0  0  0  0
    4.4068    1.5174   20.8847 C   0  0  0  0  0  0  0  0  0  0  0  0
    5.6485    2.0795   20.9111 C   0  0  0  0  0  0  0  0  0  0  0  0
    6.1928    2.4666   22.1412 C   0  0  0  0  0  0  0  0  0  0  0  0
    5.4962    2.2883   23.3124 C   0  0  0  0  0  0  0  0  0  0  0  0
    4.2768    1.7309   23.2405 N   0  0  0  0  0  0  0  0  0  0  0  0
    3.7279    1.3493   22.0749 C   0  0  0  0  0  0  0  0  0  0  0  0
   -3.3396    5.0332   10.1355 C   0  0  0  0  0  0  0  0  0  0  0  0
   -2.2076    4.5782    9.5069 C   0  0  0  0  0  0  0  0  0  0  0  0
   -0.9746    4.5445   10.1533 C   0  0  0  0  0  0  0  0  0  0  0  0
   -0.8392    4.9673   11.4489 C   0  0  0  0  0  0  0  0  0  0  0  0
   -1.9868    5.4215   12.0621 C   0  0  0  0  0  0  0  0  0  0  0  0
   -3.2171    5.4667   11.4526 C   0  0  0  0  0  0  0  0  0  0  0  0
   -4.4303    5.9603   12.1487 C   0  0  0  0  0  0  0  0  0  0  0  0
   -4.1485    6.7339   13.2491 F   0  0  0  0  0  0  0  0  0  0  0  0
   -5.1272    6.7530   11.2438 F   0  0  0  0  0  0  0  0  0  0  0  0
   -5.2904    4.9178   12.4726 F   0  0  0  0  0  0  0  0  0  0  0  0
   -4.6054    5.1111    9.4105 C   0  0  0  0  0  0  0  0  0  0  0  0
   -5.8402    8.2834    5.7067 C   0  0  0  0  0  0  0  0  0  0  0  0
   -6.3884    7.1658    6.4504 N   0  0  0  0  0  0  0  0  0  0  0  0
   -6.0600    7.3957    7.8615 C   0  0  0  0  0  0  0  0  0  0  0  0
   -4.6099    7.0781    8.0692 C   0  0  0  0  0  0  0  0  0  0  0  0
   -4.3457    5.6184    8.0390 N   0  0  0  0  0  0  0  0  0  0  0  0
   -5.4050    5.0502    7.1703 C   0  0  0  0  0  0  0  0  0  0  0  0
   -5.6809    5.9667    5.9946 C   0  0  0  0  0  0  0  0  0  0  0  0
 37 38  1  0  0  0
 38 39  1  0  0  0
 39 40  1  0  0  0
 40 41  1  0  0  0
 41 36  1  0  0  0
 36 26  1  0  0  0
 26 27  2  0  0  0
 27 28  1  0  0  0
 28 29  2  0  0  0
 29 30  1  0  0  0
 30 31  2  0  0  0
 31 32  1  0  0  0
 32 33  1  0  0  0
 32 34  1  0  0  0
 32 35  1  0  0  0
 29  1  1  0  0  0
  1  2  2  0  0  0
  1  3  1  0  0  0
  3  5  1  0  0  0
  5  6  2  0  0  0
  6  7  1  0  0  0
  7  8  2  0  0  0
  8  9  1  0  0  0
  8 10  1  0  0  0
 10 12  1  0  0  0
 12 14  1  0  0  0
 14 15  2  0  0  0
 15 16  1  0  0  0
 16 17  2  0  0  0
 17 18  1  0  0  0
 18 19  2  0  0  0
 18 20  1  0  0  0
 20 21  2  0  0  0
 21 22  1  0  0  0
 22 23  2  0  0  0
 23 24  1  0  0  0
 24 25  2  0  0  0
 10 11  2  0  0  0
 41 42  1  0  0  0
 42 43  1  0  0  0
 43 38  1  0  0  0
 31 26  1  0  0  0
 11  5  1  0  0  0
 19 14  1  0  0  0
 25 20  1  0  0  0
  3  4  1  0  0  0
 12 13  1  0  0  0
M  END
> <minimizedAffinity>
-9.18796

> <CNNscore>
0.4080546200

> <CNNaffinity>
6.6208481789

> <CNN_VS>
2.7016677856

> <CNNaffinity_variance>
0.3545992076

$$$$
[H]c1nc(N([H])c2c([H])c(N([H])C(=O)c3c([H])c([H])c(C([H])([H])N4C([H])([H])C([H])([H])N(C([H])([H])[H])C([H])([H])C4([H])[H])c(C(F)(F)F)c3[H])c([H])c([H])c2C([H])([H])[H])nc(-c2c([H])nc([H])c([H])c2[H])c1[H]


 43 47  0  0  0  0  0  0  0  0999 V2000
    3.5468    5.6842   16.3873 C   0  0  0  0  0  0  0  0  0  0  0  0
    4.5229    4.9150   16.4913 O   0  0  0  0  0  0  0  0  0  0  0  0
    3.2080    6.5880   17.3926 N   0  0  0  0  0  0  0  0  0  0  0  0
    2.3413    7.2144   17.2119 H   0  0  0  0  0  0  0  0  0  0  0  0
    3.8268    6.8278   18.6318 C   0  0  0  0  0  0  0  0  0  0  0  0
    4.0777    8.1569   18.9974 C   0  0  0  0  0  0  0  0  0  0  0  0
    4.6942    8.4395   20.1902 C   0  0  0  0  0  0  0  0  0  0  0  0
    5.0742    7.4259   21.0430 C   0  0  0  0  0  0  0  0  0  0  0  0
    5.7358    7.7352   22.3268 C   0  0  0  0  0  0  0  0  0  0  0  0
    4.8503    6.0866   20.7314 C   0  0  0  0  0  0  0  0  0  0  0  0
    4.2330    5.8341   19.5335 C   0  0  0  0  0  0  0  0  0  0  0  0
    5.2629    5.1082   21.6337 N   0  0  0  0  0  0  0  0  0  0  0  0
    6.0573    5.3875   22.3222 H   0  0  0  0  0  0  0  0  0  0  0  0
    4.8237    3.7867   21.8158 C   0  0  0  0  0  0  0  0  0  0  0  0
    4.7471    3.1292   22.9791 N   0  0  0  0  0  0  0  0  0  0  0  0
    4.3178    1.8661   23.0832 C   0  0  0  0  0  0  0  0  0  0  0  0
    3.9188    1.1615   21.9385 C   0  0  0  0  0  0  0  0  0  0  0  0
    3.9919    1.8234   20.7372 C   0  0  0  0  0  0  0  0  0  0  0  0
    4.4345    3.0869   20.7319 N   0  0  0  0  0  0  0  0  0  0  0  0
    3.5935    1.1725   19.4669 C   0  0  0  0  0  0  0  0  0  0  0  0
    3.9889    1.6790   18.2646 C   0  0  0  0  0  0  0  0  0  0  0  0
    3.5901    1.0307   17.0900 C   0  0  0  0  0  0  0  0  0  0  0  0
    2.8113   -0.1008   17.1341 C   0  0  0  0  0  0  0  0  0  0  0  0
    2.4444   -0.5655   18.3392 N   0  0  0  0  0  0  0  0  0  0  0  0
    2.8115    0.0348   19.4839 C   0  0  0  0  0  0  0  0  0  0  0  0
    1.3284    5.4152   12.7251 C   0  0  0  0  0  0  0  0  0  0  0  0
    1.6131    4.2971   13.4683 C   0  0  0  0  0  0  0  0  0  0  0  0
    2.3302    4.3728   14.6596 C   0  0  0  0  0  0  0  0  0  0  0  0
    2.7847    5.5718   15.1410 C   0  0  0  0  0  0  0  0  0  0  0  0
    2.4897    6.6823   14.3800 C   0  0  0  0  0  0  0  0  0  0  0  0
    1.7844    6.6410   13.2018 C   0  0  0  0  0  0  0  0  0  0  0  0
    1.4848    7.8607   12.4127 C   0  0  0  0  0  0  0  0  0  0  0  0
    0.1535    7.9900   12.0969 F   0  0  0  0  0  0  0  0  0  0  0  0
    1.8398    8.9526   13.1967 F   0  0  0  0  0  0  0  0  0  0  0  0
    2.2821    7.9403   11.2772 F   0  0  0  0  0  0  0  0  0  0  0  0
    0.6256    5.2945   11.4502 C   0  0  0  0  0  0  0  0  0  0  0  0
   -3.5956    3.3214    9.5544 C   0  0  0  0  0  0  0  0  0  0  0  0
   -3.0453    4.5982    9.9661 N   0  0  0  0  0  0  0  0  0  0  0  0
   -1.6761    4.6565    9.4428 C   0  0  0  0  0  0  0  0  0  0  0  0
   -0.8050    3.7828   10.2941 C   0  0  0  0  0  0  0  0  0  0  0  0
   -0.5355    4.3848   11.6233 N   0  0  0  0  0  0  0  0  0  0  0  0
   -1.7095    5.2463   11.9043 C   0  0  0  0  0  0  0  0  0  0  0  0
   -2.9866    4.5813   11.4299 C   0  0  0  0  0  0  0  0  0  0  0  0
 37 38  1  0  0  0
 38 39  1  0  0  0
 39 40  1  0  0  0
 40 41  1  0  0  0
 41 36  1  0  0  0
 36 26  1  0  0  0
 26 27  2  0  0  0
 27 28  1  0  0  0
 28 29  2  0  0  0
 29 30  1  0  0  0
 30 31  2  0  0  0
 31 32  1  0  0  0
 32 33  1  0  0  0
 32 34  1  0  0  0
 32 35  1  0  0  0
 29  1  1  0  0  0
  1  2  2  0  0  0
  1  3  1  0  0  0
  3  5  1  0  0  0
  5  6  2  0  0  0
  6  7  1  0  0  0
  7  8  2  0  0  0
  8  9  1  0  0  0
  8 10  1  0  0  0
 10 12  1  0  0  0
 12 14  1  0  0  0
 14 15  2  0  0  0
 15 16  1  0  0  0
 16 17  2  0  0  0
 17 18  1  0  0  0
 18 19  2  0  0  0
 18 20  1  0  0  0
 20 21  2  0  0  0
 21 22  1  0  0  0
 22 23  2  0  0  0
 23 24  1  0  0  0
 24 25  2  0  0  0
 10 11  2  0  0  0
 41 42  1  0  0  0
 42 43  1  0  0  0
 43 38  1  0  0  0
 31 26  1  0  0  0
 11  5  1  0  0  0
 19 14  1  0  0  0
 25 20  1  0  0  0
  3  4  1  0  0  0
 12 13  1  0  0  0
M  END
> <minimizedAffinity>
-9.51242

> <CNNscore>
0.3967190385

> <CNNaffinity>
7.1253652573

> <CNN_VS>
2.8267681599

> <CNNaffinity_variance>
0.3169355094

$$$$
[H]c1nc(N([H])c2c([H])c(N([H])C(=O)c3c([H])c([H])c(C([H])([H])N4C([H])([H])C([H])([H])N(C([H])([H])[H])C([H])([H])C4([H])[H])c(C(F)(F)F)c3[H])c([H])c([H])c2C([H])([H])[H])nc(-c2c([H])nc([H])c([H])c2[H])c1[H]


 43 47  0  0  0  0  0  0  0  0999 V2000
    3.6080    5.5583   16.1489 C   0  0  0  0  0  0  0  0  0  0  0  0
    4.6093    4.8328   16.3105 O   0  0  0  0  0  0  0  0  0  0  0  0
    3.2171    6.5004   17.0987 N   0  0  0  0  0  0  0  0  0  0  0  0
    2.3317    7.0834   16.8699 H   0  0  0  0  0  0  0  0  0  0  0  0
    3.8028    6.8280   18.3338 C   0  0  0  0  0  0  0  0  0  0  0  0
    4.0353    8.1808   18.6152 C   0  0  0  0  0  0  0  0  0  0  0  0
    4.6195    8.5480   19.8011 C   0  0  0  0  0  0  0  0  0  0  0  0
    4.9850    7.5973   20.7293 C   0  0  0  0  0  0  0  0  0  0  0  0
    5.6120    7.9977   22.0052 C   0  0  0  0  0  0  0  0  0  0  0  0
    4.7783    6.2382   20.5030 C   0  0  0  0  0  0  0  0  0  0  0  0
    4.1932    5.9006   19.3101 C   0  0  0  0  0  0  0  0  0  0  0  0
    5.1749    5.3262   21.4790 N   0  0  0  0  0  0  0  0  0  0  0  0
    5.3852    5.7325   22.4658 H   0  0  0  0  0  0  0  0  0  0  0  0
    5.3585    3.9354   21.4121 C   0  0  0  0  0  0  0  0  0  0  0  0
    6.1258    3.1964   22.2225 N   0  0  0  0  0  0  0  0  0  0  0  0
    6.2569    1.8700   22.1037 C   0  0  0  0  0  0  0  0  0  0  0  0
    5.5718    1.1826   21.0917 C   0  0  0  0  0  0  0  0  0  0  0  0
    4.7803    1.9279   20.2522 C   0  0  0  0  0  0  0  0  0  0  0  0
    4.7115    3.2504   20.4487 N   0  0  0  0  0  0  0  0  0  0  0  0
    4.0120    1.3014   19.1506 C   0  0  0  0  0  0  0  0  0  0  0  0
    4.1774    1.7080   17.8599 C   0  0  0  0  0  0  0  0  0  0  0  0
    3.4315    1.0872   16.8512 C   0  0  0  0  0  0  0  0  0  0  0  0
    2.5420    0.0814   17.1442 C   0  0  0  0  0  0  0  0  0  0  0  0
    2.4103   -0.2877   18.4284 N   0  0  0  0  0  0  0  0  0  0  0  0
    3.1123    0.2891   19.4184 C   0  0  0  0  0  0  0  0  0  0  0  0
    1.4167    4.9954   12.5038 C   0  0  0  0  0  0  0  0  0  0  0  0
    2.6772    4.4765   12.6636 C   0  0  0  0  0  0  0  0  0  0  0  0
    3.3966    4.6509   13.8431 C   0  0  0  0  0  0  0  0  0  0  0  0
    2.8744    5.3520   14.8974 C   0  0  0  0  0  0  0  0  0  0  0  0
    1.6085    5.8658   14.7170 C   0  0  0  0  0  0  0  0  0  0  0  0
    0.8731    5.7108   13.5670 C   0  0  0  0  0  0  0  0  0  0  0  0
   -0.4889    6.2776   13.4131 C   0  0  0  0  0  0  0  0  0  0  0  0
   -1.4380    5.3340   13.1011 F   0  0  0  0  0  0  0  0  0  0  0  0
   -0.8390    6.8390   14.6359 F   0  0  0  0  0  0  0  0  0  0  0  0
   -0.5030    7.3270   12.5019 F   0  0  0  0  0  0  0  0  0  0  0  0
    0.7127    4.8452   11.2327 C   0  0  0  0  0  0  0  0  0  0  0  0
    1.4779    7.5190    7.0409 C   0  0  0  0  0  0  0  0  0  0  0  0
    0.6486    6.4407    7.5431 N   0  0  0  0  0  0  0  0  0  0  0  0
    0.2074    6.8370    8.8849 C   0  0  0  0  0  0  0  0  0  0  0  0
    1.3550    6.6609    9.8331 C   0  0  0  0  0  0  0  0  0  0  0  0
    1.6254    5.2318   10.1267 N   0  0  0  0  0  0  0  0  0  0  0  0
    1.1678    4.4951    8.9236 C   0  0  0  0  0  0  0  0  0  0  0  0
    1.5123    5.2635    7.6630 C   0  0  0  0  0  0  0  0  0  0  0  0
 37 38  1  0  0  0
 38 39  1  0  0  0
 39 40  1  0  0  0
 40 41  1  0  0  0
 41 36  1  0  0  0
 36 26  1  0  0  0
 26 27  2  0  0  0
 27 28  1  0  0  0
 28 29  2  0  0  0
 29 30  1  0  0  0
 30 31  2  0  0  0
 31 32  1  0  0  0
 32 33  1  0  0  0
 32 34  1  0  0  0
 32 35  1  0  0  0
 29  1  1  0  0  0
  1  2  2  0  0  0
  1  3  1  0  0  0
  3  5  1  0  0  0
  5  6  2  0  0  0
  6  7  1  0  0  0
  7  8  2  0  0  0
  8  9  1  0  0  0
  8 10  1  0  0  0
 10 12  1  0  0  0
 12 14  1  0  0  0
 14 15  2  0  0  0
 15 16  1  0  0  0
 16 17  2  0  0  0
 17 18  1  0  0  0
 18 19  2  0  0  0
 18 20  1  0  0  0
 20 21  2  0  0  0
 21 22  1  0  0  0
 22 23  2  0  0  0
 23 24  1  0  0  0
 24 25  2  0  0  0
 10 11  2  0  0  0
 41 42  1  0  0  0
 42 43  1  0  0  0
 43 38  1  0  0  0
 31 26  1  0  0  0
 11  5  1  0  0  0
 19 14  1  0  0  0
 25 20  1  0  0  0
  3  4  1  0  0  0
 12 13  1  0  0  0
M  END
> <minimizedAffinity>
-9.54400

> <CNNscore>
0.3698640764

> <CNNaffinity>
7.0256743431

> <CNN_VS>
2.5985445976

> <CNNaffinity_variance>
0.3624363542

$$$$
[H]c1nc(N([H])c2c([H])c(N([H])C(=O)c3c([H])c([H])c(C([H])([H])N4C([H])([H])C([H])([H])N(C([H])([H])[H])C([H])([H])C4([H])[H])c(C(F)(F)F)c3[H])c([H])c([H])c2C([H])([H])[H])nc(-c2c([H])nc([H])c([H])c2[H])c1[H]


 43 47  0  0  0  0  0  0  0  0999 V2000
    2.5512    5.4033   16.7431 C   0  0  0  0  0  0  0  0  0  0  0  0
    2.1683    4.6153   17.6306 O   0  0  0  0  0  0  0  0  0  0  0  0
    3.3704    6.4945   17.0273 N   0  0  0  0  0  0  0  0  0  0  0  0
    3.6496    7.1243   16.1897 H   0  0  0  0  0  0  0  0  0  0  0  0
    3.9102    6.9179   18.2541 C   0  0  0  0  0  0  0  0  0  0  0  0
    3.8287    8.2792   18.5756 C   0  0  0  0  0  0  0  0  0  0  0  0
    4.3559    8.7421   19.7548 C   0  0  0  0  0  0  0  0  0  0  0  0
    4.9706    7.8800   20.6369 C   0  0  0  0  0  0  0  0  0  0  0  0
    5.5350    8.3828   21.9058 C   0  0  0  0  0  0  0  0  0  0  0  0
    5.0808    6.5172   20.3694 C   0  0  0  0  0  0  0  0  0  0  0  0
    4.5455    6.0831   19.1842 C   0  0  0  0  0  0  0  0  0  0  0  0
    5.7185    5.6988   21.2995 N   0  0  0  0  0  0  0  0  0  0  0  0
    6.2898    6.2015   22.0768 H   0  0  0  0  0  0  0  0  0  0  0  0
    5.7572    4.2996   21.4137 C   0  0  0  0  0  0  0  0  0  0  0  0
    6.4005    3.5977   22.3545 N   0  0  0  0  0  0  0  0  0  0  0  0
    6.3965    2.2606   22.4061 C   0  0  0  0  0  0  0  0  0  0  0  0
    5.6944    1.5209   21.4438 C   0  0  0  0  0  0  0  0  0  0  0  0
    5.0293    2.2277   20.4719 C   0  0  0  0  0  0  0  0  0  0  0  0
    5.0907    3.5646   20.5017 N   0  0  0  0  0  0  0  0  0  0  0  0
    4.2555    1.5449   19.4082 C   0  0  0  0  0  0  0  0  0  0  0  0
    4.3873    1.9087   18.1010 C   0  0  0  0  0  0  0  0  0  0  0  0
    3.6375    1.2355   17.1296 C   0  0  0  0  0  0  0  0  0  0  0  0
    2.7773    0.2209   17.4751 C   0  0  0  0  0  0  0  0  0  0  0  0
    2.6782   -0.1050   18.7739 N   0  0  0  0  0  0  0  0  0  0  0  0
    3.3848    0.5227   19.7290 C   0  0  0  0  0  0  0  0  0  0  0  0
    1.1931    4.4665   12.7830 C   0  0  0  0  0  0  0  0  0  0  0  0
    0.9319    5.6865   13.3547 C   0  0  0  0  0  0  0  0  0  0  0  0
    1.3699    6.0024   14.6383 C   0  0  0  0  0  0  0  0  0  0  0  0
    2.0817    5.1039   15.3878 C   0  0  0  0  0  0  0  0  0  0  0  0
    2.3327    3.8845   14.7967 C   0  0  0  0  0  0  0  0  0  0  0  0
    1.9154    3.5429   13.5333 C   0  0  0  0  0  0  0  0  0  0  0  0
    2.2086    2.2195   12.9310 C   0  0  0  0  0  0  0  0  0  0  0  0
    2.9105    2.3024   11.7524 F   0  0  0  0  0  0  0  0  0  0  0  0
    2.9941    1.5210   13.8409 F   0  0  0  0  0  0  0  0  0  0  0  0
    1.0526    1.4635   12.7770 F   0  0  0  0  0  0  0  0  0  0  0  0
    0.6686    4.1452   11.4579 C   0  0  0  0  0  0  0  0  0  0  0  0
   -3.5307    5.3624    8.9699 C   0  0  0  0  0  0  0  0  0  0  0  0
   -2.1896    4.8684    8.7247 N   0  0  0  0  0  0  0  0  0  0  0  0
   -1.9221    3.8486    9.7447 C   0  0  0  0  0  0  0  0  0  0  0  0
   -1.6427    4.5399   11.0451 C   0  0  0  0  0  0  0  0  0  0  0  0
   -0.3089    5.1899   11.0593 N   0  0  0  0  0  0  0  0  0  0  0  0
   -0.0223    5.5184    9.6417 C   0  0  0  0  0  0  0  0  0  0  0  0
   -1.2781    5.9951    8.9389 C   0  0  0  0  0  0  0  0  0  0  0  0
 37 38  1  0  0  0
 38 39  1  0  0  0
 39 40  1  0  0  0
 40 41  1  0  0  0
 41 36  1  0  0  0
 36 26  1  0  0  0
 26 27  2  0  0  0
 27 28  1  0  0  0
 28 29  2  0  0  0
 29 30  1  0  0  0
 30 31  2  0  0  0
 31 32  1  0  0  0
 32 33  1  0  0  0
 32 34  1  0  0  0
 32 35  1  0  0  0
 29  1  1  0  0  0
  1  2  2  0  0  0
  1  3  1  0  0  0
  3  5  1  0  0  0
  5  6  2  0  0  0
  6  7  1  0  0  0
  7  8  2  0  0  0
  8  9  1  0  0  0
  8 10  1  0  0  0
 10 12  1  0  0  0
 12 14  1  0  0  0
 14 15  2  0  0  0
 15 16  1  0  0  0
 16 17  2  0  0  0
 17 18  1  0  0  0
 18 19  2  0  0  0
 18 20  1  0  0  0
 20 21  2  0  0  0
 21 22  1  0  0  0
 22 23  2  0  0  0
 23 24  1  0  0  0
 24 25  2  0  0  0
 10 11  2  0  0  0
 41 42  1  0  0  0
 42 43  1  0  0  0
 43 38  1  0  0  0
 31 26  1  0  0  0
 11  5  1  0  0  0
 19 14  1  0  0  0
 25 20  1  0  0  0
  3  4  1  0  0  0
 12 13  1  0  0  0
M  END
> <minimizedAffinity>
-9.80634

> <CNNscore>
0.3608119786

> <CNNaffinity>
7.1447753906

> <CNN_VS>
2.5779204369

> <CNNaffinity_variance>
0.1636936963

$$$$
[H]c1nc(N([H])c2c([H])c(N([H])C(=O)c3c([H])c([H])c(C([H])([H])N4C([H])([H])C([H])([H])N(C([H])([H])[H])C([H])([H])C4([H])[H])c(C(F)(F)F)c3[H])c([H])c([H])c2C([H])([H])[H])nc(-c2c([H])nc([H])c([H])c2[H])c1[H]


 43 47  0  0  0  0  0  0  0  0999 V2000
    3.9629    5.9189   17.8344 C   0  0  0  0  0  0  0  0  0  0  0  0
    3.2504    5.3817   18.7056 O   0  0  0  0  0  0  0  0  0  0  0  0
    5.2420    6.3951   18.1165 N   0  0  0  0  0  0  0  0  0  0  0  0
    5.7847    6.8483   17.2941 H   0  0  0  0  0  0  0  0  0  0  0  0
    5.9616    6.3780   19.3239 C   0  0  0  0  0  0  0  0  0  0  0  0
    6.8576    7.4262   19.5724 C   0  0  0  0  0  0  0  0  0  0  0  0
    7.5940    7.4441   20.7299 C   0  0  0  0  0  0  0  0  0  0  0  0
    7.4647    6.4369   21.6616 C   0  0  0  0  0  0  0  0  0  0  0  0
    8.2583    6.4616   22.9070 C   0  0  0  0  0  0  0  0  0  0  0  0
    6.5899    5.3701   21.4673 C   0  0  0  0  0  0  0  0  0  0  0  0
    5.8674    5.3782   20.3022 C   0  0  0  0  0  0  0  0  0  0  0  0
    6.5089    4.3804   22.4449 N   0  0  0  0  0  0  0  0  0  0  0  0
    7.2460    4.4259   23.2434 H   0  0  0  0  0  0  0  0  0  0  0  0
    5.6199    3.3022   22.5849 C   0  0  0  0  0  0  0  0  0  0  0  0
    5.2026    2.7624   23.7364 N   0  0  0  0  0  0  0  0  0  0  0  0
    4.3509    1.7322   23.7997 C   0  0  0  0  0  0  0  0  0  0  0  0
    3.8475    1.1614   22.6221 C   0  0  0  0  0  0  0  0  0  0  0  0
    4.2669    1.7051   21.4325 C   0  0  0  0  0  0  0  0  0  0  0  0
    5.1211    2.7352   21.4688 N   0  0  0  0  0  0  0  0  0  0  0  0
    3.7953    1.1791   20.1297 C   0  0  0  0  0  0  0  0  0  0  0  0
    4.2033    1.7412   18.9567 C   0  0  0  0  0  0  0  0  0  0  0  0
    3.7334    1.2109   17.7496 C   0  0  0  0  0  0  0  0  0  0  0  0
    2.8730    0.1394   17.7332 C   0  0  0  0  0  0  0  0  0  0  0  0
    2.4967   -0.3834   18.9113 N   0  0  0  0  0  0  0  0  0  0  0  0
    2.9308    0.1036   20.0859 C   0  0  0  0  0  0  0  0  0  0  0  0
    2.2549    6.2400   13.9121 C   0  0  0  0  0  0  0  0  0  0  0  0
    1.8334    5.2776   14.7951 C   0  0  0  0  0  0  0  0  0  0  0  0
    2.3789    5.1656   16.0714 C   0  0  0  0  0  0  0  0  0  0  0  0
    3.3644    6.0144   16.5004 C   0  0  0  0  0  0  0  0  0  0  0  0
    3.7746    6.9729   15.5991 C   0  0  0  0  0  0  0  0  0  0  0  0
    3.2564    7.1098   14.3342 C   0  0  0  0  0  0  0  0  0  0  0  0
    3.7235    8.1576   13.3940 C   0  0  0  0  0  0  0  0  0  0  0  0
    2.7376    9.0459   13.0369 F   0  0  0  0  0  0  0  0  0  0  0  0
    4.7216    8.8749   14.0438 F   0  0  0  0  0  0  0  0  0  0  0  0
    4.3308    7.6019   12.2742 F   0  0  0  0  0  0  0  0  0  0  0  0
    1.7041    6.2930   12.5602 C   0  0  0  0  0  0  0  0  0  0  0  0
    2.9728    3.1653    8.8300 C   0  0  0  0  0  0  0  0  0  0  0  0
    2.1575    4.3390    9.0760 N   0  0  0  0  0  0  0  0  0  0  0  0
    2.9610    5.2454    9.9036 C   0  0  0  0  0  0  0  0  0  0  0  0
    2.9764    4.7186   11.3069 C   0  0  0  0  0  0  0  0  0  0  0  0
    1.6776    4.9196   11.9955 N   0  0  0  0  0  0  0  0  0  0  0  0
    0.6622    4.9264   10.9145 C   0  0  0  0  0  0  0  0  0  0  0  0
    1.0005    3.8943    9.8568 C   0  0  0  0  0  0  0  0  0  0  0  0
 37 38  1  0  0  0
 38 39  1  0  0  0
 39 40  1  0  0  0
 40 41  1  0  0  0
 41 36  1  0  0  0
 36 26  1  0  0  0
 26 27  2  0  0  0
 27 28  1  0  0  0
 28 29  2  0  0  0
 29 30  1  0  0  0
 30 31  2  0  0  0
 31 32  1  0  0  0
 32 33  1  0  0  0
 32 34  1  0  0  0
 32 35  1  0  0  0
 29  1  1  0  0  0
  1  2  2  0  0  0
  1  3  1  0  0  0
  3  5  1  0  0  0
  5  6  2  0  0  0
  6  7  1  0  0  0
  7  8  2  0  0  0
  8  9  1  0  0  0
  8 10  1  0  0  0
 10 12  1  0  0  0
 12 14  1  0  0  0
 14 15  2  0  0  0
 15 16  1  0  0  0
 16 17  2  0  0  0
 17 18  1  0  0  0
 18 19  2  0  0  0
 18 20  1  0  0  0
 20 21  2  0  0  0
 21 22  1  0  0  0
 22 23  2  0  0  0
 23 24  1  0  0  0
 24 25  2  0  0  0
 10 11  2  0  0  0
 41 42  1  0  0  0
 42 43  1  0  0  0
 43 38  1  0  0  0
 31 26  1  0  0  0
 11  5  1  0  0  0
 19 14  1  0  0  0
 25 20  1  0  0  0
  3  4  1  0  0  0
 12 13  1  0  0  0
M  END
> <minimizedAffinity>
-8.88055

> <CNNscore>
0.2271222174

> <CNNaffinity>
6.9251160622

> <CNN_VS>
1.5728477240

> <CNNaffinity_variance>
0.3462273479

$$$$
[H]c1nc(N([H])c2c([H])c(N([H])C(=O)c3c([H])c([H])c(C([H])([H])N4C([H])([H])C([H])([H])N(C([H])([H])[H])C([H])([H])C4([H])[H])c(C(F)(F)F)c3[H])c([H])c([H])c2C([H])([H])[H])nc(-c2c([H])nc([H])c([H])c2[H])c1[H]


 43 47  0  0  0  0  0  0  0  0999 V2000
    4.7164    7.5012   16.3819 C   0  0  0  0  0  0  0  0  0  0  0  0
    4.0727    8.3132   17.0759 O   0  0  0  0  0  0  0  0  0  0  0  0
    5.8357    6.8328   16.8746 N   0  0  0  0  0  0  0  0  0  0  0  0
    6.3309    6.1472   16.1956 H   0  0  0  0  0  0  0  0  0  0  0  0
    6.4383    6.9022   18.1426 C   0  0  0  0  0  0  0  0  0  0  0  0
    7.4827    7.8179   18.3271 C   0  0  0  0  0  0  0  0  0  0  0  0
    8.1122    7.9103   19.5428 C   0  0  0  0  0  0  0  0  0  0  0  0
    7.7292    7.1083   20.5960 C   0  0  0  0  0  0  0  0  0  0  0  0
    8.4087    7.2127   21.9032 C   0  0  0  0  0  0  0  0  0  0  0  0
    6.6979    6.1801   20.4699 C   0  0  0  0  0  0  0  0  0  0  0  0
    6.0874    6.1095   19.2444 C   0  0  0  0  0  0  0  0  0  0  0  0
    6.3617    5.3949   21.5709 N   0  0  0  0  0  0  0  0  0  0  0  0
    6.4358    5.8702   22.5464 H   0  0  0  0  0  0  0  0  0  0  0  0
    5.9336    4.0595   21.6467 C   0  0  0  0  0  0  0  0  0  0  0  0
    6.0432    3.2501   22.7071 N   0  0  0  0  0  0  0  0  0  0  0  0
    5.6127    1.9831   22.7129 C   0  0  0  0  0  0  0  0  0  0  0  0
    5.0104    1.4389   21.5696 C   0  0  0  0  0  0  0  0  0  0  0  0
    4.8909    2.2578   20.4734 C   0  0  0  0  0  0  0  0  0  0  0  0
    5.3514    3.5118   20.5617 N   0  0  0  0  0  0  0  0  0  0  0  0
    4.2689    1.7838   19.2146 C   0  0  0  0  0  0  0  0  0  0  0  0
    4.4745    2.4423   18.0388 C   0  0  0  0  0  0  0  0  0  0  0  0
    3.8680    1.9582   16.8739 C   0  0  0  0  0  0  0  0  0  0  0  0
    3.0745    0.8365   16.9014 C   0  0  0  0  0  0  0  0  0  0  0  0
    2.8988    0.2188   18.0806 N   0  0  0  0  0  0  0  0  0  0  0  0
    3.4676    0.6595   19.2153 C   0  0  0  0  0  0  0  0  0  0  0  0
    3.2179    6.8656   12.4126 C   0  0  0  0  0  0  0  0  0  0  0  0
    3.9700    7.9716   12.7206 C   0  0  0  0  0  0  0  0  0  0  0  0
    4.4636    8.1868   14.0048 C   0  0  0  0  0  0  0  0  0  0  0  0
    4.2168    7.3005   15.0192 C   0  0  0  0  0  0  0  0  0  0  0  0
    3.4590    6.1973   14.6903 C   0  0  0  0  0  0  0  0  0  0  0  0
    2.9585    5.9561   13.4339 C   0  0  0  0  0  0  0  0  0  0  0  0
    2.1486    4.7539   13.1193 C   0  0  0  0  0  0  0  0  0  0  0  0
    2.7011    3.9686   12.1361 F   0  0  0  0  0  0  0  0  0  0  0  0
    2.0811    3.9909   14.2796 F   0  0  0  0  0  0  0  0  0  0  0  0
    0.8348    5.0909   12.8162 F   0  0  0  0  0  0  0  0  0  0  0  0
    2.6655    6.6995   11.0705 C   0  0  0  0  0  0  0  0  0  0  0  0
    3.0803    8.7129    6.4792 C   0  0  0  0  0  0  0  0  0  0  0  0
    3.0543    7.4195    7.1344 N   0  0  0  0  0  0  0  0  0  0  0  0
    1.9754    7.4706    8.1271 C   0  0  0  0  0  0  0  0  0  0  0  0
    2.4473    8.2760    9.2999 C   0  0  0  0  0  0  0  0  0  0  0  0
    3.4395    7.5406   10.1223 N   0  0  0  0  0  0  0  0  0  0  0  0
    4.1098    6.6102    9.1818 C   0  0  0  0  0  0  0  0  0  0  0  0
    4.3313    7.2760    7.8379 C   0  0  0  0  0  0  0  0  0  0  0  0
 37 38  1  0  0  0
 38 39  1  0  0  0
 39 40  1  0  0  0
 40 41  1  0  0  0
 41 36  1  0  0  0
 36 26  1  0  0  0
 26 27  2  0  0  0
 27 28  1  0  0  0
 28 29  2  0  0  0
 29 30  1  0  0  0
 30 31  2  0  0  0
 31 32  1  0  0  0
 32 33  1  0  0  0
 32 34  1  0  0  0
 32 35  1  0  0  0
 29  1  1  0  0  0
  1  2  2  0  0  0
  1  3  1  0  0  0
  3  5  1  0  0  0
  5  6  2  0  0  0
  6  7  1  0  0  0
  7  8  2  0  0  0
  8  9  1  0  0  0
  8 10  1  0  0  0
 10 12  1  0  0  0
 12 14  1  0  0  0
 14 15  2  0  0  0
 15 16  1  0  0  0
 16 17  2  0  0  0
 17 18  1  0  0  0
 18 19  2  0  0  0
 18 20  1  0  0  0
 20 21  2  0  0  0
 21 22  1  0  0  0
 22 23  2  0  0  0
 23 24  1  0  0  0
 24 25  2  0  0  0
 10 11  2  0  0  0
 41 42  1  0  0  0
 42 43  1  0  0  0
 43 38  1  0  0  0
 31 26  1  0  0  0
 11  5  1  0  0  0
 19 14  1  0  0  0
 25 20  1  0  0  0
  3  4  1  0  0  0
 12 13  1  0  0  0
M  END
> <minimizedAffinity>
-8.44665

> <CNNscore>
0.2154474556

> <CNNaffinity>
6.7440543175

> <CNN_VS>
1.4529893398

> <CNNaffinity_variance>
0.2427248657

$$$$
[H]c1nc(N([H])c2c([H])c(N([H])C(=O)c3c([H])c([H])c(C([H])([H])N4C([H])([H])C([H])([H])N(C([H])([H])[H])C([H])([H])C4([H])[H])c(C(F)(F)F)c3[H])c([H])c([H])c2C([H])([H])[H])nc(-c2c([H])nc([H])c([H])c2[H])c1[H]


 43 47  0  0  0  0  0  0  0  0999 V2000
    2.8232    5.2636   17.1397 C   0  0  0  0  0  0  0  0  0  0  0  0
    1.9960    4.3695   17.4069 O   0  0  0  0  0  0  0  0  0  0  0  0
    3.0929    5.6529   15.8290 N   0  0  0  0  0  0  0  0  0  0  0  0
    3.8294    6.4378   15.6964 H   0  0  0  0  0  0  0  0  0  0  0  0
    2.5472    5.1837   14.6216 C   0  0  0  0  0  0  0  0  0  0  0  0
    3.1043    4.0323   14.0495 C   0  0  0  0  0  0  0  0  0  0  0  0
    2.6155    3.5459   12.8633 C   0  0  0  0  0  0  0  0  0  0  0  0
    1.5745    4.1787   12.2191 C   0  0  0  0  0  0  0  0  0  0  0  0
    1.0506    3.6502   10.9433 C   0  0  0  0  0  0  0  0  0  0  0  0
    0.9824    5.3267   12.7411 C   0  0  0  0  0  0  0  0  0  0  0  0
    1.4911    5.7901   13.9269 C   0  0  0  0  0  0  0  0  0  0  0  0
   -0.0632    5.9227   12.0388 N   0  0  0  0  0  0  0  0  0  0  0  0
    0.1484    6.2208   11.0144 H   0  0  0  0  0  0  0  0  0  0  0  0
   -1.3792    6.2170   12.4311 C   0  0  0  0  0  0  0  0  0  0  0  0
   -1.7469    7.0351   13.4247 N   0  0  0  0  0  0  0  0  0  0  0  0
   -3.0236    7.2728   13.7473 C   0  0  0  0  0  0  0  0  0  0  0  0
   -4.0579    6.6526   13.0319 C   0  0  0  0  0  0  0  0  0  0  0  0
   -3.6957    5.8103   12.0092 C   0  0  0  0  0  0  0  0  0  0  0  0
   -2.3922    5.6343   11.7600 N   0  0  0  0  0  0  0  0  0  0  0  0
   -4.7088    5.1052   11.1889 C   0  0  0  0  0  0  0  0  0  0  0  0
   -5.9028    4.7229   11.7243 C   0  0  0  0  0  0  0  0  0  0  0  0
   -6.8304    4.0603   10.9120 C   0  0  0  0  0  0  0  0  0  0  0  0
   -6.5540    3.7931    9.5926 C   0  0  0  0  0  0  0  0  0  0  0  0
   -5.3661    4.1871    9.1063 N   0  0  0  0  0  0  0  0  0  0  0  0
   -4.4556    4.8249    9.8610 C   0  0  0  0  0  0  0  0  0  0  0  0
    4.7748    6.9911   20.5474 C   0  0  0  0  0  0  0  0  0  0  0  0
    4.5835    7.7124   19.3955 C   0  0  0  0  0  0  0  0  0  0  0  0
    3.9492    7.1628   18.2844 C   0  0  0  0  0  0  0  0  0  0  0  0
    3.4889    5.8729   18.2941 C   0  0  0  0  0  0  0  0  0  0  0  0
    3.6915    5.1650   19.4591 C   0  0  0  0  0  0  0  0  0  0  0  0
    4.3125    5.6784   20.5717 C   0  0  0  0  0  0  0  0  0  0  0  0
    4.5090    4.8839   21.8088 C   0  0  0  0  0  0  0  0  0  0  0  0
    3.8170    5.3788   22.8881 F   0  0  0  0  0  0  0  0  0  0  0  0
    4.0310    3.6036   21.5531 F   0  0  0  0  0  0  0  0  0  0  0  0
    5.8581    4.7275   22.1038 F   0  0  0  0  0  0  0  0  0  0  0  0
    5.4964    7.5777   21.6740 C   0  0  0  0  0  0  0  0  0  0  0  0
   10.4830    8.1610   21.9903 C   0  0  0  0  0  0  0  0  0  0  0  0
    9.2799    8.3841   22.7684 N   0  0  0  0  0  0  0  0  0  0  0  0
    8.4468    7.1870   22.6106 C   0  0  0  0  0  0  0  0  0  0  0  0
    7.8130    7.2255   21.2527 C   0  0  0  0  0  0  0  0  0  0  0  0
    6.7287    8.2348   21.1685 N   0  0  0  0  0  0  0  0  0  0  0  0
    7.0900    9.2762   22.1607 C   0  0  0  0  0  0  0  0  0  0  0  0
    8.5861    9.5209   22.1581 C   0  0  0  0  0  0  0  0  0  0  0  0
 37 38  1  0  0  0
 38 39  1  0  0  0
 39 40  1  0  0  0
 40 41  1  0  0  0
 41 36  1  0  0  0
 36 26  1  0  0  0
 26 27  2  0  0  0
 27 28  1  0  0  0
 28 29  2  0  0  0
 29 30  1  0  0  0
 30 31  2  0  0  0
 31 32  1  0  0  0
 32 33  1  0  0  0
 32 34  1  0  0  0
 32 35  1  0  0  0
 29  1  1  0  0  0
  1  2  2  0  0  0
  1  3  1  0  0  0
  3  5  1  0  0  0
  5  6  2  0  0  0
  6  7  1  0  0  0
  7  8  2  0  0  0
  8  9  1  0  0  0
  8 10  1  0  0  0
 10 12  1  0  0  0
 12 14  1  0  0  0
 14 15  2  0  0  0
 15 16  1  0  0  0
 16 17  2  0  0  0
 17 18  1  0  0  0
 18 19  2  0  0  0
 18 20  1  0  0  0
 20 21  2  0  0  0
 21 22  1  0  0  0
 22 23  2  0  0  0
 23 24  1  0  0  0
 24 25  2  0  0  0
 10 11  2  0  0  0
 41 42  1  0  0  0
 42 43  1  0  0  0
 43 38  1  0  0  0
 31 26  1  0  0  0
 11  5  1  0  0  0
 19 14  1  0  0  0
 25 20  1  0  0  0
  3  4  1  0  0  0
 12 13  1  0  0  0
M  END
> <minimizedAffinity>
-9.11225

> <CNNscore>
0.1942898035

> <CNNaffinity>
6.1502966881

> <CNN_VS>
1.1949399710

> <CNNaffinity_variance>
0.2035919130

$$$$
[H]c1nc(N([H])c2c([H])c(N([H])C(=O)c3c([H])c([H])c(C([H])([H])N4C([H])([H])C([H])([H])N(C([H])([H])[H])C([H])([H])C4([H])[H])c(C(F)(F)F)c3[H])c([H])c([H])c2C([H])([H])[H])nc(-c2c([H])nc([H])c([H])c2[H])c1[H]


 43 47  0  0  0  0  0  0  0  0999 V2000
    3.9165    7.4018   15.6925 C   0  0  0  0  0  0  0  0  0  0  0  0
    4.6254    6.4362   16.0390 O   0  0  0  0  0  0  0  0  0  0  0  0
    3.6547    8.4706   16.5479 N   0  0  0  0  0  0  0  0  0  0  0  0
    3.0258    9.2633   16.1576 H   0  0  0  0  0  0  0  0  0  0  0  0
    4.0891    8.6945   17.8658 C   0  0  0  0  0  0  0  0  0  0  0  0
    4.6971    9.9220   18.1602 C   0  0  0  0  0  0  0  0  0  0  0  0
    5.1517   10.1798   19.4289 C   0  0  0  0  0  0  0  0  0  0  0  0
    5.0182    9.2405   20.4283 C   0  0  0  0  0  0  0  0  0  0  0  0
    5.5075    9.5233   21.7929 C   0  0  0  0  0  0  0  0  0  0  0  0
    4.4225    8.0032   20.1931 C   0  0  0  0  0  0  0  0  0  0  0  0
    3.9780    7.7732   18.9167 C   0  0  0  0  0  0  0  0  0  0  0  0
    4.3222    7.0944   21.2446 N   0  0  0  0  0  0  0  0  0  0  0  0
    3.5623    7.3022   21.9945 H   0  0  0  0  0  0  0  0  0  0  0  0
    5.0507    5.9250   21.5168 C   0  0  0  0  0  0  0  0  0  0  0  0
    6.2706    5.8593   22.0637 N   0  0  0  0  0  0  0  0  0  0  0  0
    6.9109    4.7078   22.2974 C   0  0  0  0  0  0  0  0  0  0  0  0
    6.3067    3.4865   21.9666 C   0  0  0  0  0  0  0  0  0  0  0  0
    5.0545    3.5381   21.4045 C   0  0  0  0  0  0  0  0  0  0  0  0
    4.4930    4.7375   21.2086 N   0  0  0  0  0  0  0  0  0  0  0  0
    4.3256    2.3068   21.0187 C   0  0  0  0  0  0  0  0  0  0  0  0
    3.7003    1.5387   21.9555 C   0  0  0  0  0  0  0  0  0  0  0  0
    3.0227    0.3846   21.5455 C   0  0  0  0  0  0  0  0  0  0  0  0
    2.9807    0.0198   20.2212 C   0  0  0  0  0  0  0  0  0  0  0  0
    3.6100    0.8049   19.3321 N   0  0  0  0  0  0  0  0  0  0  0  0
    4.2684    1.9185   19.6950 C   0  0  0  0  0  0  0  0  0  0  0  0
    2.3550    7.1425   11.7051 C   0  0  0  0  0  0  0  0  0  0  0  0
    2.2665    8.3047   12.4297 C   0  0  0  0  0  0  0  0  0  0  0  0
    2.7720    8.4010   13.7236 C   0  0  0  0  0  0  0  0  0  0  0  0
    3.3802    7.3346   14.3306 C   0  0  0  0  0  0  0  0  0  0  0  0
    3.4582    6.1767   13.5873 C   0  0  0  0  0  0  0  0  0  0  0  0
    2.9704    6.0499   12.3094 C   0  0  0  0  0  0  0  0  0  0  0  0
    3.0767    4.7857   11.5408 C   0  0  0  0  0  0  0  0  0  0  0  0
    3.7804    4.9204   10.3680 F   0  0  0  0  0  0  0  0  0  0  0  0
    3.7606    3.8770   12.3405 F   0  0  0  0  0  0  0  0  0  0  0  0
    1.8271    4.2203   11.3166 F   0  0  0  0  0  0  0  0  0  0  0  0
    1.7622    7.0567   10.3727 C   0  0  0  0  0  0  0  0  0  0  0  0
    3.0927    8.8381    5.8602 C   0  0  0  0  0  0  0  0  0  0  0  0
    3.5043    7.8485    6.8370 N   0  0  0  0  0  0  0  0  0  0  0  0
    2.2840    7.1782    7.2990 C   0  0  0  0  0  0  0  0  0  0  0  0
    1.5650    8.0969    8.2403 C   0  0  0  0  0  0  0  0  0  0  0  0
    2.2461    8.1980    9.5547 N   0  0  0  0  0  0  0  0  0  0  0  0
    3.6782    7.9376    9.2707 C   0  0  0  0  0  0  0  0  0  0  0  0
    4.0896    8.5824    7.9618 C   0  0  0  0  0  0  0  0  0  0  0  0
 37 38  1  0  0  0
 38 39  1  0  0  0
 39 40  1  0  0  0
 40 41  1  0  0  0
 41 36  1  0  0  0
 36 26  1  0  0  0
 26 27  2  0  0  0
 27 28  1  0  0  0
 28 29  2  0  0  0
 29 30  1  0  0  0
 30 31  2  0  0  0
 31 32  1  0  0  0
 32 33  1  0  0  0
 32 34  1  0  0  0
 32 35  1  0  0  0
 29  1  1  0  0  0
  1  2  2  0  0  0
  1  3  1  0  0  0
  3  5  1  0  0  0
  5  6  2  0  0  0
  6  7  1  0  0  0
  7  8  2  0  0  0
  8  9  1  0  0  0
  8 10  1  0  0  0
 10 12  1  0  0  0
 12 14  1  0  0  0
 14 15  2  0  0  0
 15 16  1  0  0  0
 16 17  2  0  0  0
 17 18  1  0  0  0
 18 19  2  0  0  0
 18 20  1  0  0  0
 20 21  2  0  0  0
 21 22  1  0  0  0
 22 23  2  0  0  0
 23 24  1  0  0  0
 24 25  2  0  0  0
 10 11  2  0  0  0
 41 42  1  0  0  0
 42 43  1  0  0  0
 43 38  1  0  0  0
 31 26  1  0  0  0
 11  5  1  0  0  0
 19 14  1  0  0  0
 25 20  1  0  0  0
  3  4  1  0  0  0
 12 13  1  0  0  0
M  END
> <minimizedAffinity>
-9.28043

> <CNNscore>
0.1880502105

> <CNNaffinity>
6.3315887451

> <CNN_VS>
1.1906565428

> <CNNaffinity_variance>
0.5045132041

$$$$
[H]c1nc(N([H])c2c([H])c(N([H])C(=O)c3c([H])c([H])c(C([H])([H])N4C([H])([H])C([H])([H])N(C([H])([H])[H])C([H])([H])C4([H])[H])c([H])c3[H])c([H])c([H])c2C([H])([H])[H])nc(-c2c([H])nc([H])c([H])c2[H])c1[H]


 39 43  0  0  0  0  0  0  0  0999 V2000
    3.0927    0.8918   17.4286 C   0  0  0  0  0  0  0  0  0  0  0  0
    2.5015   -0.1427   18.1128 C   0  0  0  0  0  0  0  0  0  0  0  0
    2.7101   -0.3031   19.4802 C   0  0  0  0  0  0  0  0  0  0  0  0
    3.4969    0.5381   20.2125 C   0  0  0  0  0  0  0  0  0  0  0  0
    3.6743    0.3034   21.6784 C   0  0  0  0  0  0  0  0  0  0  0  0
    4.1176    1.6071   19.5495 C   0  0  0  0  0  0  0  0  0  0  0  0
    3.9023    1.7505   18.2043 C   0  0  0  0  0  0  0  0  0  0  0  0
    2.4666    2.2921   15.4433 C   0  0  0  0  0  0  0  0  0  0  0  0
    2.0687    3.2941   16.0820 O   0  0  0  0  0  0  0  0  0  0  0  0
    2.9590    1.1240   16.0383 N   0  0  0  0  0  0  0  0  0  0  0  0
    3.2717    0.3182   15.4106 H   0  0  0  0  0  0  0  0  0  0  0  0
    2.2663    2.6925   11.2511 C   0  0  0  0  0  0  0  0  0  0  0  0
    1.3668    1.8901   11.9154 C   0  0  0  0  0  0  0  0  0  0  0  0
    1.4121    1.7389   13.2928 C   0  0  0  0  0  0  0  0  0  0  0  0
    2.3843    2.4152   13.9828 C   0  0  0  0  0  0  0  0  0  0  0  0
    3.2778    3.2157   13.2953 C   0  0  0  0  0  0  0  0  0  0  0  0
    3.2441    3.3741   11.9325 C   0  0  0  0  0  0  0  0  0  0  0  0
    2.1361    2.8000    9.7796 C   0  0  0  0  0  0  0  0  0  0  0  0
   -0.3256    6.2363    6.7728 C   0  0  0  0  0  0  0  0  0  0  0  0
    0.5082    5.0919    7.0858 N   0  0  0  0  0  0  0  0  0  0  0  0
   -0.0139    4.3430    8.2142 C   0  0  0  0  0  0  0  0  0  0  0  0
    0.8036    4.7525    9.4204 C   0  0  0  0  0  0  0  0  0  0  0  0
    2.1637    4.1924    9.3462 N   0  0  0  0  0  0  0  0  0  0  0  0
    2.6026    4.2818    7.9541 C   0  0  0  0  0  0  0  0  0  0  0  0
    1.8841    5.4524    7.2849 C   0  0  0  0  0  0  0  0  0  0  0  0
    4.9183    2.4527   20.3203 N   0  0  0  0  0  0  0  0  0  0  0  0
    5.6199    1.9612   20.9896 H   0  0  0  0  0  0  0  0  0  0  0  0
    4.9800    3.8582   20.3858 C   0  0  0  0  0  0  0  0  0  0  0  0
    3.8838    4.5935   19.9997 N   0  0  0  0  0  0  0  0  0  0  0  0
    3.8239    5.9110   20.0163 C   0  0  0  0  0  0  0  0  0  0  0  0
    4.9295    6.6407   20.4493 C   0  0  0  0  0  0  0  0  0  0  0  0
    6.0370    5.9200   20.8401 C   0  0  0  0  0  0  0  0  0  0  0  0
    6.0167    4.5763   20.7927 N   0  0  0  0  0  0  0  0  0  0  0  0
    7.2386    6.6350   21.3084 C   0  0  0  0  0  0  0  0  0  0  0  0
    8.0883    7.2690   20.4307 C   0  0  0  0  0  0  0  0  0  0  0  0
    9.2054    7.9299   20.9087 C   0  0  0  0  0  0  0  0  0  0  0  0
    9.4891    7.9688   22.2472 C   0  0  0  0  0  0  0  0  0  0  0  0
    8.6695    7.3574   23.0919 N   0  0  0  0  0  0  0  0  0  0  0  0
    7.5570    6.6970   22.6389 C   0  0  0  0  0  0  0  0  0  0  0  0
 19 20  1  0  0  0
 20 21  1  0  0  0
 21 22  1  0  0  0
 22 23  1  0  0  0
 23 18  1  0  0  0
 18 12  1  0  0  0
 12 13  2  0  0  0
 13 14  1  0  0  0
 14 15  2  0  0  0
 15 16  1  0  0  0
 16 17  2  0  0  0
 15  8  1  0  0  0
  8  9  2  0  0  0
  8 10  1  0  0  0
 10  1  1  0  0  0
  1  2  2  0  0  0
  2  3  1  0  0  0
  3  4  2  0  0  0
  4  5  1  0  0  0
  4  6  1  0  0  0
  6 26  1  0  0  0
 26 28  1  0  0  0
 28 29  2  0  0  0
 29 30  1  0  0  0
 30 31  2  0  0  0
 31 32  1  0  0  0
 32 33  2  0  0  0
 32 34  1  0  0  0
 34 35  2  0  0  0
 35 36  1  0  0  0
 36 37  2  0  0  0
 37 38  1  0  0  0
 38 39  2  0  0  0
  6  7  2  0  0  0
 23 24  1  0  0  0
 24 25  1  0  0  0
 25 20  1  0  0  0
 17 12  1  0  0  0
  7  1  1  0  0  0
 33 28  1  0  0  0
 39 34  1  0  0  0
 10 11  1  0  0  0
 26 27  1  0  0  0
M  END
> <minimizedAffinity>
-8.26025

> <CNNscore>
0.2915297747

> <CNNaffinity>
6.5168547630

> <CNN_VS>
1.8998571634

> <CNNaffinity_variance>
0.0424533635

$$$$
[H]c1nc(N([H])c2c([H])c(N([H])C(=O)c3c([H])c([H])c(C([H])([H])N4C([H])([H])C([H])([H])N(C([H])([H])[H])C([H])([H])C4([H])[H])c([H])c3[H])c([H])c([H])c2C([H])([H])[H])nc(-c2c([H])nc([H])c([H])c2[H])c1[H]


 39 43  0  0  0  0  0  0  0  0999 V2000
    4.6913    2.5994   18.7740 C   0  0  0  0  0  0  0  0  0  0  0  0
    4.6671    1.3502   19.3457 C   0  0  0  0  0  0  0  0  0  0  0  0
    4.9147    1.1849   20.7060 C   0  0  0  0  0  0  0  0  0  0  0  0
    5.1906    2.2293   21.5403 C   0  0  0  0  0  0  0  0  0  0  0  0
    5.4460    1.9753   22.9914 C   0  0  0  0  0  0  0  0  0  0  0  0
    5.2238    3.5208   20.9939 C   0  0  0  0  0  0  0  0  0  0  0  0
    4.9782    3.6660   19.6541 C   0  0  0  0  0  0  0  0  0  0  0  0
    3.4864    2.2845   16.5961 C   0  0  0  0  0  0  0  0  0  0  0  0
    2.6592    1.4345   17.0002 O   0  0  0  0  0  0  0  0  0  0  0  0
    4.4747    2.8654   17.4003 N   0  0  0  0  0  0  0  0  0  0  0  0
    5.1394    3.5796   16.9652 H   0  0  0  0  0  0  0  0  0  0  0  0
    3.1399    3.3890   12.5420 C   0  0  0  0  0  0  0  0  0  0  0  0
    2.4779    2.2804   13.0183 C   0  0  0  0  0  0  0  0  0  0  0  0
    2.5769    1.8937   14.3461 C   0  0  0  0  0  0  0  0  0  0  0  0
    3.3577    2.6506   15.1803 C   0  0  0  0  0  0  0  0  0  0  0  0
    4.0139    3.7603   14.6807 C   0  0  0  0  0  0  0  0  0  0  0  0
    3.9247    4.1540   13.3691 C   0  0  0  0  0  0  0  0  0  0  0  0
    2.9685    3.7305   11.1110 C   0  0  0  0  0  0  0  0  0  0  0  0
    0.3240    6.2963    7.4597 C   0  0  0  0  0  0  0  0  0  0  0  0
    1.4308    6.0047    8.3501 N   0  0  0  0  0  0  0  0  0  0  0  0
    1.6700    4.5771    8.4556 C   0  0  0  0  0  0  0  0  0  0  0  0
    1.0390    4.1278    9.7560 C   0  0  0  0  0  0  0  0  0  0  0  0
    1.8194    4.6061   10.9098 N   0  0  0  0  0  0  0  0  0  0  0  0
    2.2646    5.9660   10.6084 C   0  0  0  0  0  0  0  0  0  0  0  0
    1.2692    6.6082    9.6434 C   0  0  0  0  0  0  0  0  0  0  0  0
    5.5093    4.5722   21.8676 N   0  0  0  0  0  0  0  0  0  0  0  0
    4.8125    4.7069   22.6911 H   0  0  0  0  0  0  0  0  0  0  0  0
    6.5617    5.5083   21.8719 C   0  0  0  0  0  0  0  0  0  0  0  0
    6.4283    6.6662   21.1422 N   0  0  0  0  0  0  0  0  0  0  0  0
    7.3435    7.6132   21.0690 C   0  0  0  0  0  0  0  0  0  0  0  0
    8.5406    7.4631   21.7667 C   0  0  0  0  0  0  0  0  0  0  0  0
    8.6913    6.3084   22.5034 C   0  0  0  0  0  0  0  0  0  0  0  0
    7.7086    5.3909   22.5251 N   0  0  0  0  0  0  0  0  0  0  0  0
    9.9360    6.0912   23.2637 C   0  0  0  0  0  0  0  0  0  0  0  0
   11.0257    5.4674   22.7002 C   0  0  0  0  0  0  0  0  0  0  0  0
   12.1760    5.2824   23.4458 C   0  0  0  0  0  0  0  0  0  0  0  0
   12.2573    5.7092   24.7438 C   0  0  0  0  0  0  0  0  0  0  0  0
   11.2065    6.3103   25.2856 N   0  0  0  0  0  0  0  0  0  0  0  0
   10.0572    6.5034   24.5641 C   0  0  0  0  0  0  0  0  0  0  0  0
 19 20  1  0  0  0
 20 21  1  0  0  0
 21 22  1  0  0  0
 22 23  1  0  0  0
 23 18  1  0  0  0
 18 12  1  0  0  0
 12 13  2  0  0  0
 13 14  1  0  0  0
 14 15  2  0  0  0
 15 16  1  0  0  0
 16 17  2  0  0  0
 15  8  1  0  0  0
  8  9  2  0  0  0
  8 10  1  0  0  0
 10  1  1  0  0  0
  1  2  2  0  0  0
  2  3  1  0  0  0
  3  4  2  0  0  0
  4  5  1  0  0  0
  4  6  1  0  0  0
  6 26  1  0  0  0
 26 28  1  0  0  0
 28 29  2  0  0  0
 29 30  1  0  0  0
 30 31  2  0  0  0
 31 32  1  0  0  0
 32 33  2  0  0  0
 32 34  1  0  0  0
 34 35  2  0  0  0
 35 36  1  0  0  0
 36 37  2  0  0  0
 37 38  1  0  0  0
 38 39  2  0  0  0
  6  7  2  0  0  0
 23 24  1  0  0  0
 24 25  1  0  0  0
 25 20  1  0  0  0
 17 12  1  0  0  0
  7  1  1  0  0  0
 33 28  1  0  0  0
 39 34  1  0  0  0
 10 11  1  0  0  0
 26 27  1  0  0  0
M  END
> <minimizedAffinity>
-8.65814

> <CNNscore>
0.2767514884

> <CNNaffinity>
6.4342699051

> <CNN_VS>
1.7806937695

> <CNNaffinity_variance>
0.0841378570

$$$$
[H]c1nc(N([H])c2c([H])c(N([H])C(=O)c3c([H])c([H])c(C([H])([H])N4C([H])([H])C([H])([H])N(C([H])([H])[H])C([H])([H])C4([H])[H])c([H])c3[H])c([H])c([H])c2C([H])([H])[H])nc(-c2c([H])nc([H])c([H])c2[H])c1[H]


 39 43  0  0  0  0  0  0  0  0999 V2000
    3.2502    1.1308   16.9825 C   0  0  0  0  0  0  0  0  0  0  0  0
    2.4553    0.0698   17.3435 C   0  0  0  0  0  0  0  0  0  0  0  0
    2.4401   -0.3941   18.6563 C   0  0  0  0  0  0  0  0  0  0  0  0
    3.1962    0.1628   19.6469 C   0  0  0  0  0  0  0  0  0  0  0  0
    3.1278   -0.3889   21.0347 C   0  0  0  0  0  0  0  0  0  0  0  0
    4.0208    1.2488   19.3176 C   0  0  0  0  0  0  0  0  0  0  0  0
    4.0242    1.6926   18.0217 C   0  0  0  0  0  0  0  0  0  0  0  0
    2.8554    2.8969   15.2450 C   0  0  0  0  0  0  0  0  0  0  0  0
    2.2442    3.7041   15.9832 O   0  0  0  0  0  0  0  0  0  0  0  0
    3.3501    1.6587   15.6725 N   0  0  0  0  0  0  0  0  0  0  0  0
    3.8556    1.0345   14.9682 H   0  0  0  0  0  0  0  0  0  0  0  0
    3.3923    4.2057   11.2733 C   0  0  0  0  0  0  0  0  0  0  0  0
    2.3816    3.3245   11.5830 C   0  0  0  0  0  0  0  0  0  0  0  0
    2.1848    2.8763   12.8801 C   0  0  0  0  0  0  0  0  0  0  0  0
    3.0300    3.3375   13.8555 C   0  0  0  0  0  0  0  0  0  0  0  0
    4.0388    4.2224   13.5222 C   0  0  0  0  0  0  0  0  0  0  0  0
    4.2446    4.6738   12.2427 C   0  0  0  0  0  0  0  0  0  0  0  0
    3.5215    4.6360    9.8619 C   0  0  0  0  0  0  0  0  0  0  0  0
    2.6889    9.0619    7.2878 C   0  0  0  0  0  0  0  0  0  0  0  0
    3.1494    7.7020    7.4913 N   0  0  0  0  0  0  0  0  0  0  0  0
    2.2145    6.9358    8.2947 C   0  0  0  0  0  0  0  0  0  0  0  0
    2.7775    6.9024    9.6992 C   0  0  0  0  0  0  0  0  0  0  0  0
    3.9581    6.0246    9.7698 N   0  0  0  0  0  0  0  0  0  0  0  0
    4.7358    6.2319    8.5489 C   0  0  0  0  0  0  0  0  0  0  0  0
    4.4779    7.6472    8.0344 C   0  0  0  0  0  0  0  0  0  0  0  0
    4.7853    1.8002   20.3480 N   0  0  0  0  0  0  0  0  0  0  0  0
    5.6623    1.2304   20.6447 H   0  0  0  0  0  0  0  0  0  0  0  0
    4.6189    2.9880   21.0862 C   0  0  0  0  0  0  0  0  0  0  0  0
    4.4317    2.9084   22.4463 N   0  0  0  0  0  0  0  0  0  0  0  0
    4.2644    3.9484   23.2400 C   0  0  0  0  0  0  0  0  0  0  0  0
    4.2724    5.2318   22.6968 C   0  0  0  0  0  0  0  0  0  0  0  0
    4.4589    5.3304   21.3351 C   0  0  0  0  0  0  0  0  0  0  0  0
    4.6221    4.2191   20.5960 N   0  0  0  0  0  0  0  0  0  0  0  0
    4.4772    6.6615   20.7008 C   0  0  0  0  0  0  0  0  0  0  0  0
    5.0041    7.7590   21.3428 C   0  0  0  0  0  0  0  0  0  0  0  0
    5.0035    8.9912   20.7143 C   0  0  0  0  0  0  0  0  0  0  0  0
    4.4862    9.1469   19.4566 C   0  0  0  0  0  0  0  0  0  0  0  0
    3.9788    8.0885   18.8392 N   0  0  0  0  0  0  0  0  0  0  0  0
    3.9697    6.8585   19.4442 C   0  0  0  0  0  0  0  0  0  0  0  0
 19 20  1  0  0  0
 20 21  1  0  0  0
 21 22  1  0  0  0
 22 23  1  0  0  0
 23 18  1  0  0  0
 18 12  1  0  0  0
 12 13  2  0  0  0
 13 14  1  0  0  0
 14 15  2  0  0  0
 15 16  1  0  0  0
 16 17  2  0  0  0
 15  8  1  0  0  0
  8  9  2  0  0  0
  8 10  1  0  0  0
 10  1  1  0  0  0
  1  2  2  0  0  0
  2  3  1  0  0  0
  3  4  2  0  0  0
  4  5  1  0  0  0
  4  6  1  0  0  0
  6 26  1  0  0  0
 26 28  1  0  0  0
 28 29  2  0  0  0
 29 30  1  0  0  0
 30 31  2  0  0  0
 31 32  1  0  0  0
 32 33  2  0  0  0
 32 34  1  0  0  0
 34 35  2  0  0  0
 35 36  1  0  0  0
 36 37  2  0  0  0
 37 38  1  0  0  0
 38 39  2  0  0  0
  6  7  2  0  0  0
 23 24  1  0  0  0
 24 25  1  0  0  0
 25 20  1  0  0  0
 17 12  1  0  0  0
  7  1  1  0  0  0
 33 28  1  0  0  0
 39 34  1  0  0  0
 10 11  1  0  0  0
 26 27  1  0  0  0
M  END
> <minimizedAffinity>
-9.22312

> <CNNscore>
0.2423325628

> <CNNaffinity>
6.6877784729

> <CNN_VS>
1.6206665039

> <CNNaffinity_variance>
0.1048541069

$$$$
[H]c1nc(N([H])c2c([H])c(N([H])C(=O)c3c([H])c([H])c(C([H])([H])N4C([H])([H])C([H])([H])N(C([H])([H])[H])C([H])([H])C4([H])[H])c([H])c3[H])c([H])c([H])c2C([H])([H])[H])nc(-c2c([H])nc([H])c([H])c2[H])c1[H]


 39 43  0  0  0  0  0  0  0  0999 V2000
    4.0664    5.2106   16.2296 C   0  0  0  0  0  0  0  0  0  0  0  0
    4.3756    3.9307   16.6223 C   0  0  0  0  0  0  0  0  0  0  0  0
    4.4536    3.5996   17.9725 C   0  0  0  0  0  0  0  0  0  0  0  0
    4.2324    4.5042   18.9704 C   0  0  0  0  0  0  0  0  0  0  0  0
    4.3335    4.0758   20.3992 C   0  0  0  0  0  0  0  0  0  0  0  0
    3.9135    5.8217   18.6094 C   0  0  0  0  0  0  0  0  0  0  0  0
    3.8411    6.1309   17.2769 C   0  0  0  0  0  0  0  0  0  0  0  0
    2.8090    5.8177   14.1452 C   0  0  0  0  0  0  0  0  0  0  0  0
    1.6591    5.5922   14.5888 O   0  0  0  0  0  0  0  0  0  0  0  0
    3.9856    5.6477   14.8852 N   0  0  0  0  0  0  0  0  0  0  0  0
    4.9229    5.8617   14.4196 H   0  0  0  0  0  0  0  0  0  0  0  0
    2.9778    7.1178   10.1381 C   0  0  0  0  0  0  0  0  0  0  0  0
    2.5417    7.9703   11.1265 C   0  0  0  0  0  0  0  0  0  0  0  0
    2.4740    7.5674   12.4514 C   0  0  0  0  0  0  0  0  0  0  0  0
    2.8562    6.2867   12.7549 C   0  0  0  0  0  0  0  0  0  0  0  0
    3.2910    5.4469   11.7462 C   0  0  0  0  0  0  0  0  0  0  0  0
    3.3627    5.8328   10.4312 C   0  0  0  0  0  0  0  0  0  0  0  0
    3.0244    7.6380    8.7521 C   0  0  0  0  0  0  0  0  0  0  0  0
    0.1826    9.5637    4.8631 C   0  0  0  0  0  0  0  0  0  0  0  0
    1.3392    9.4144    5.7250 N   0  0  0  0  0  0  0  0  0  0  0  0
    1.5735    8.0239    6.0689 C   0  0  0  0  0  0  0  0  0  0  0  0
    1.0193    7.8240    7.4631 C   0  0  0  0  0  0  0  0  0  0  0  0
    1.8720    8.4850    8.4657 N   0  0  0  0  0  0  0  0  0  0  0  0
    2.3085    9.7615    7.9014 C   0  0  0  0  0  0  0  0  0  0  0  0
    1.2612   10.2405    6.8973 C   0  0  0  0  0  0  0  0  0  0  0  0
    3.6930    6.7285   19.6483 N   0  0  0  0  0  0  0  0  0  0  0  0
    2.7845    6.5761   20.2257 H   0  0  0  0  0  0  0  0  0  0  0  0
    4.4542    7.8279   20.0905 C   0  0  0  0  0  0  0  0  0  0  0  0
    4.1340    9.0867   19.6389 N   0  0  0  0  0  0  0  0  0  0  0  0
    4.7729   10.1887   19.9813 C   0  0  0  0  0  0  0  0  0  0  0  0
    5.8520   10.1089   20.8597 C   0  0  0  0  0  0  0  0  0  0  0  0
    6.1869    8.8549   21.3223 C   0  0  0  0  0  0  0  0  0  0  0  0
    5.4835    7.7805   20.9237 N   0  0  0  0  0  0  0  0  0  0  0  0
    7.3196    8.7052   22.2546 C   0  0  0  0  0  0  0  0  0  0  0  0
    8.5100    9.3663   22.0550 C   0  0  0  0  0  0  0  0  0  0  0  0
    9.5495    9.2005   22.9524 C   0  0  0  0  0  0  0  0  0  0  0  0
    9.4213    8.3863   24.0452 C   0  0  0  0  0  0  0  0  0  0  0  0
    8.2736    7.7497   24.2363 N   0  0  0  0  0  0  0  0  0  0  0  0
    7.2311    7.9004   23.3591 C   0  0  0  0  0  0  0  0  0  0  0  0
 19 20  1  0  0  0
 20 21  1  0  0  0
 21 22  1  0  0  0
 22 23  1  0  0  0
 23 18  1  0  0  0
 18 12  1  0  0  0
 12 13  2  0  0  0
 13 14  1  0  0  0
 14 15  2  0  0  0
 15 16  1  0  0  0
 16 17  2  0  0  0
 15  8  1  0  0  0
  8  9  2  0  0  0
  8 10  1  0  0  0
 10  1  1  0  0  0
  1  2  2  0  0  0
  2  3  1  0  0  0
  3  4  2  0  0  0
  4  5  1  0  0  0
  4  6  1  0  0  0
  6 26  1  0  0  0
 26 28  1  0  0  0
 28 29  2  0  0  0
 29 30  1  0  0  0
 30 31  2  0  0  0
 31 32  1  0  0  0
 32 33  2  0  0  0
 32 34  1  0  0  0
 34 35  2  0  0  0
 35 36  1  0  0  0
 36 37  2  0  0  0
 37 38  1  0  0  0
 38 39  2  0  0  0
  6  7  2  0  0  0
 23 24  1  0  0  0
 24 25  1  0  0  0
 25 20  1  0  0  0
 17 12  1  0  0  0
  7  1  1  0  0  0
 33 28  1  0  0  0
 39 34  1  0  0  0
 10 11  1  0  0  0
 26 27  1  0  0  0
M  END
> <minimizedAffinity>
-7.76089

> <CNNscore>
0.2095239758

> <CNNaffinity>
5.6749997139

> <CNN_VS>
1.1890485287

> <CNNaffinity_variance>
0.2318893224

$$$$
[H]c1nc(N([H])c2c([H])c(N([H])C(=O)c3c([H])c([H])c(C([H])([H])N4C([H])([H])C([H])([H])N(C([H])([H])[H])C([H])([H])C4([H])[H])c([H])c3[H])c([H])c([H])c2C([H])([H])[H])nc(-c2c([H])nc([H])c([H])c2[H])c1[H]


 39 43  0  0  0  0  0  0  0  0999 V2000
    4.8288    2.6901   19.6014 C   0  0  0  0  0  0  0  0  0  0  0  0
    4.9309    1.4543   20.1932 C   0  0  0  0  0  0  0  0  0  0  0  0
    5.2602    1.3355   21.5410 C   0  0  0  0  0  0  0  0  0  0  0  0
    5.4970    2.4143   22.3429 C   0  0  0  0  0  0  0  0  0  0  0  0
    5.8456    2.2094   23.7823 C   0  0  0  0  0  0  0  0  0  0  0  0
    5.4020    3.6935   21.7751 C   0  0  0  0  0  0  0  0  0  0  0  0
    5.0773    3.7928   20.4480 C   0  0  0  0  0  0  0  0  0  0  0  0
    3.8166    2.0375   17.4005 C   0  0  0  0  0  0  0  0  0  0  0  0
    3.3669    0.9254   17.7625 O   0  0  0  0  0  0  0  0  0  0  0  0
    4.5219    2.9114   18.2369 N   0  0  0  0  0  0  0  0  0  0  0  0
    4.8711    3.8384   17.8370 H   0  0  0  0  0  0  0  0  0  0  0  0
    3.0814    3.0932   13.3855 C   0  0  0  0  0  0  0  0  0  0  0  0
    2.5483    1.9370   13.9078 C   0  0  0  0  0  0  0  0  0  0  0  0
    2.7766    1.5651   15.2238 C   0  0  0  0  0  0  0  0  0  0  0  0
    3.5537    2.3860   15.9989 C   0  0  0  0  0  0  0  0  0  0  0  0
    4.0794    3.5428   15.4537 C   0  0  0  0  0  0  0  0  0  0  0  0
    3.8614    3.9224   14.1531 C   0  0  0  0  0  0  0  0  0  0  0  0
    2.7771    3.4137   11.9718 C   0  0  0  0  0  0  0  0  0  0  0  0
   -1.7733    5.7910   11.2299 C   0  0  0  0  0  0  0  0  0  0  0  0
   -0.6029    5.0091   10.8813 N   0  0  0  0  0  0  0  0  0  0  0  0
   -0.2161    4.1167   11.9585 C   0  0  0  0  0  0  0  0  0  0  0  0
    0.9429    4.7780   12.6728 C   0  0  0  0  0  0  0  0  0  0  0  0
    2.1623    4.7306   11.8482 N   0  0  0  0  0  0  0  0  0  0  0  0
    1.7677    4.9781   10.4621 C   0  0  0  0  0  0  0  0  0  0  0  0
    0.4978    5.8275   10.4551 C   0  0  0  0  0  0  0  0  0  0  0  0
    5.6499    4.7807   22.6157 N   0  0  0  0  0  0  0  0  0  0  0  0
    5.6443    4.5668   23.6816 H   0  0  0  0  0  0  0  0  0  0  0  0
    5.9116    6.1331   22.3220 C   0  0  0  0  0  0  0  0  0  0  0  0
    4.9249    6.8929   21.7387 N   0  0  0  0  0  0  0  0  0  0  0  0
    5.0529    8.1658   21.4177 C   0  0  0  0  0  0  0  0  0  0  0  0
    6.2579    8.8178   21.6732 C   0  0  0  0  0  0  0  0  0  0  0  0
    7.2580    8.0715   22.2575 C   0  0  0  0  0  0  0  0  0  0  0  0
    7.0463    6.7771   22.5538 N   0  0  0  0  0  0  0  0  0  0  0  0
    8.5565    8.7050   22.5528 C   0  0  0  0  0  0  0  0  0  0  0  0
    8.7345    9.5025   23.6602 C   0  0  0  0  0  0  0  0  0  0  0  0
    9.9681   10.0789   23.9035 C   0  0  0  0  0  0  0  0  0  0  0  0
   11.0268    9.8731   23.0607 C   0  0  0  0  0  0  0  0  0  0  0  0
   10.8539    9.1044   21.9938 N   0  0  0  0  0  0  0  0  0  0  0  0
    9.6396    8.5237   21.7346 C   0  0  0  0  0  0  0  0  0  0  0  0
 19 20  1  0  0  0
 20 21  1  0  0  0
 21 22  1  0  0  0
 22 23  1  0  0  0
 23 18  1  0  0  0
 18 12  1  0  0  0
 12 13  2  0  0  0
 13 14  1  0  0  0
 14 15  2  0  0  0
 15 16  1  0  0  0
 16 17  2  0  0  0
 15  8  1  0  0  0
  8  9  2  0  0  0
  8 10  1  0  0  0
 10  1  1  0  0  0
  1  2  2  0  0  0
  2  3  1  0  0  0
  3  4  2  0  0  0
  4  5  1  0  0  0
  4  6  1  0  0  0
  6 26  1  0  0  0
 26 28  1  0  0  0
 28 29  2  0  0  0
 29 30  1  0  0  0
 30 31  2  0  0  0
 31 32  1  0  0  0
 32 33  2  0  0  0
 32 34  1  0  0  0
 34 35  2  0  0  0
 35 36  1  0  0  0
 36 37  2  0  0  0
 37 38  1  0  0  0
 38 39  2  0  0  0
  6  7  2  0  0  0
 23 24  1  0  0  0
 24 25  1  0  0  0
 25 20  1  0  0  0
 17 12  1  0  0  0
  7  1  1  0  0  0
 33 28  1  0  0  0
 39 34  1  0  0  0
 10 11  1  0  0  0
 26 27  1  0  0  0
M  END
> <minimizedAffinity>
-9.16028

> <CNNscore>
0.2019015253

> <CNNaffinity>
6.4374656677

> <CNN_VS>
1.2997341156

> <CNNaffinity_variance>
0.1666971892

$$$$
[H]c1nc(N([H])c2c([H])c(N([H])C(=O)c3c([H])c([H])c(C([H])([H])N4C([H])([H])C([H])([H])N(C([H])([H])[H])C([H])([H])C4([H])[H])c([H])c3[H])c([H])c([H])c2C([H])([H])[H])nc(-c2c([H])nc([H])c([H])c2[H])c1[H]


 39 43  0  0  0  0  0  0  0  0999 V2000
    4.2138    8.9063   18.4853 C   0  0  0  0  0  0  0  0  0  0  0  0
    4.8065   10.0992   18.8221 C   0  0  0  0  0  0  0  0  0  0  0  0
    5.3296   10.2994   20.0970 C   0  0  0  0  0  0  0  0  0  0  0  0
    5.2887    9.3451   21.0720 C   0  0  0  0  0  0  0  0  0  0  0  0
    5.8715    9.6315   22.4186 C   0  0  0  0  0  0  0  0  0  0  0  0
    4.6918    8.1130   20.7663 C   0  0  0  0  0  0  0  0  0  0  0  0
    4.1820    7.9325   19.5077 C   0  0  0  0  0  0  0  0  0  0  0  0
    4.3026    8.0781   16.1188 C   0  0  0  0  0  0  0  0  0  0  0  0
    5.5212    7.7865   16.1041 O   0  0  0  0  0  0  0  0  0  0  0  0
    3.6354    8.6167   17.2258 N   0  0  0  0  0  0  0  0  0  0  0  0
    2.5935    8.8378   17.1424 H   0  0  0  0  0  0  0  0  0  0  0  0
    2.2191    7.3727   12.5220 C   0  0  0  0  0  0  0  0  0  0  0  0
    2.8997    6.3497   13.1419 C   0  0  0  0  0  0  0  0  0  0  0  0
    3.5949    6.5551   14.3237 C   0  0  0  0  0  0  0  0  0  0  0  0
    3.5871    7.8145   14.8643 C   0  0  0  0  0  0  0  0  0  0  0  0
    2.8969    8.8276   14.2248 C   0  0  0  0  0  0  0  0  0  0  0  0
    2.2050    8.6380   13.0549 C   0  0  0  0  0  0  0  0  0  0  0  0
    1.4978    7.0579   11.2672 C   0  0  0  0  0  0  0  0  0  0  0  0
   -2.8957    4.8809    9.5744 C   0  0  0  0  0  0  0  0  0  0  0  0
   -2.0655    5.8292   10.2914 N   0  0  0  0  0  0  0  0  0  0  0  0
   -0.8847    6.1896    9.5284 C   0  0  0  0  0  0  0  0  0  0  0  0
    0.2610    5.3798   10.0963 C   0  0  0  0  0  0  0  0  0  0  0  0
    0.6495    5.8820   11.4252 N   0  0  0  0  0  0  0  0  0  0  0  0
   -0.5769    6.2336   12.1400 C   0  0  0  0  0  0  0  0  0  0  0  0
   -1.7214    5.3721   11.6088 C   0  0  0  0  0  0  0  0  0  0  0  0
    4.6614    7.1537   21.7807 N   0  0  0  0  0  0  0  0  0  0  0  0
    4.1316    7.4382   22.6864 H   0  0  0  0  0  0  0  0  0  0  0  0
    5.2058    5.8562   21.8401 C   0  0  0  0  0  0  0  0  0  0  0  0
    6.4910    5.6917   22.3012 N   0  0  0  0  0  0  0  0  0  0  0  0
    7.1063    4.5294   22.4011 C   0  0  0  0  0  0  0  0  0  0  0  0
    6.4378    3.3667   22.0221 C   0  0  0  0  0  0  0  0  0  0  0  0
    5.1489    3.5128   21.5576 C   0  0  0  0  0  0  0  0  0  0  0  0
    4.5936    4.7354   21.4867 N   0  0  0  0  0  0  0  0  0  0  0  0
    4.3891    2.3196   21.1412 C   0  0  0  0  0  0  0  0  0  0  0  0
    3.7166    1.5384   22.0532 C   0  0  0  0  0  0  0  0  0  0  0  0
    3.0143    0.4269   21.6234 C   0  0  0  0  0  0  0  0  0  0  0  0
    2.9719    0.0816   20.2996 C   0  0  0  0  0  0  0  0  0  0  0  0
    3.6204    0.8352   19.4218 N   0  0  0  0  0  0  0  0  0  0  0  0
    4.3222    1.9409   19.8268 C   0  0  0  0  0  0  0  0  0  0  0  0
 19 20  1  0  0  0
 20 21  1  0  0  0
 21 22  1  0  0  0
 22 23  1  0  0  0
 23 18  1  0  0  0
 18 12  1  0  0  0
 12 13  2  0  0  0
 13 14  1  0  0  0
 14 15  2  0  0  0
 15 16  1  0  0  0
 16 17  2  0  0  0
 15  8  1  0  0  0
  8  9  2  0  0  0
  8 10  1  0  0  0
 10  1  1  0  0  0
  1  2  2  0  0  0
  2  3  1  0  0  0
  3  4  2  0  0  0
  4  5  1  0  0  0
  4  6  1  0  0  0
  6 26  1  0  0  0
 26 28  1  0  0  0
 28 29  2  0  0  0
 29 30  1  0  0  0
 30 31  2  0  0  0
 31 32  1  0  0  0
 32 33  2  0  0  0
 32 34  1  0  0  0
 34 35  2  0  0  0
 35 36  1  0  0  0
 36 37  2  0  0  0
 37 38  1  0  0  0
 38 39  2  0  0  0
  6  7  2  0  0  0
 23 24  1  0  0  0
 24 25  1  0  0  0
 25 20  1  0  0  0
 17 12  1  0  0  0
  7  1  1  0  0  0
 33 28  1  0  0  0
 39 34  1  0  0  0
 10 11  1  0  0  0
 26 27  1  0  0  0
M  END
> <minimizedAffinity>
-9.46524

> <CNNscore>
0.1865983158

> <CNNaffinity>
6.1992311478

> <CNN_VS>
1.1567660570

> <CNNaffinity_variance>
0.3387082517

$$$$
[H]c1nc(N([H])c2c([H])c(N([H])C(=O)c3c([H])c([H])c(C([H])([H])N4C([H])([H])C([H])([H])N(C([H])([H])[H])C([H])([H])C4([H])[H])c([H])c3[H])c([H])c([H])c2C([H])([H])[H])nc(-c2c([H])nc([H])c([H])c2[H])c1[H]


 39 43  0  0  0  0  0  0  0  0999 V2000
    4.0031    2.1533   18.3727 C   0  0  0  0  0  0  0  0  0  0  0  0
    3.7231    0.9057   18.8756 C   0  0  0  0  0  0  0  0  0  0  0  0
    3.7325    0.6730   20.2484 C   0  0  0  0  0  0  0  0  0  0  0  0
    4.0135    1.6470   21.1624 C   0  0  0  0  0  0  0  0  0  0  0  0
    4.0044    1.3231   22.6219 C   0  0  0  0  0  0  0  0  0  0  0  0
    4.3041    2.9347   20.6877 C   0  0  0  0  0  0  0  0  0  0  0  0
    4.2909    3.1467   19.3344 C   0  0  0  0  0  0  0  0  0  0  0  0
    2.9443    2.4928   16.1237 C   0  0  0  0  0  0  0  0  0  0  0  0
    1.7732    2.2003   16.4600 O   0  0  0  0  0  0  0  0  0  0  0  0
    4.0398    2.4817   16.9959 N   0  0  0  0  0  0  0  0  0  0  0  0
    5.0037    2.7425   16.6162 H   0  0  0  0  0  0  0  0  0  0  0  0
    3.4384    3.6035   12.0867 C   0  0  0  0  0  0  0  0  0  0  0  0
    2.7443    2.4605   12.4120 C   0  0  0  0  0  0  0  0  0  0  0  0
    2.5695    2.0711   13.7311 C   0  0  0  0  0  0  0  0  0  0  0  0
    3.1103    2.8607   14.7123 C   0  0  0  0  0  0  0  0  0  0  0  0
    3.8040    4.0046   14.3630 C   0  0  0  0  0  0  0  0  0  0  0  0
    3.9843    4.4014   13.0617 C   0  0  0  0  0  0  0  0  0  0  0  0
    3.5675    3.9449   10.6512 C   0  0  0  0  0  0  0  0  0  0  0  0
    1.3919    7.5914    7.6716 C   0  0  0  0  0  0  0  0  0  0  0  0
    2.0236    7.0329    8.8514 N   0  0  0  0  0  0  0  0  0  0  0  0
    3.0658    6.0853    8.5017 C   0  0  0  0  0  0  0  0  0  0  0  0
    2.4686    4.7046    8.6683 C   0  0  0  0  0  0  0  0  0  0  0  0
    2.2915    4.3788   10.0936 N   0  0  0  0  0  0  0  0  0  0  0  0
    1.8286    5.5903   10.7691 C   0  0  0  0  0  0  0  0  0  0  0  0
    1.0741    6.4581    9.7630 C   0  0  0  0  0  0  0  0  0  0  0  0
    4.5893    3.9133   21.6422 N   0  0  0  0  0  0  0  0  0  0  0  0
    3.9362    3.9327   22.5111 H   0  0  0  0  0  0  0  0  0  0  0  0
    5.5938    4.8998   21.6804 C   0  0  0  0  0  0  0  0  0  0  0  0
    6.8092    4.5937   22.2465 N   0  0  0  0  0  0  0  0  0  0  0  0
    7.8227    5.4326   22.3402 C   0  0  0  0  0  0  0  0  0  0  0  0
    7.6876    6.7270   21.8414 C   0  0  0  0  0  0  0  0  0  0  0  0
    6.4761    7.0511   21.2706 C   0  0  0  0  0  0  0  0  0  0  0  0
    5.4923    6.1361   21.2146 N   0  0  0  0  0  0  0  0  0  0  0  0
    6.2716    8.4056   20.7248 C   0  0  0  0  0  0  0  0  0  0  0  0
    7.3089    9.1278   20.1804 C   0  0  0  0  0  0  0  0  0  0  0  0
    7.0770   10.3955   19.6778 C   0  0  0  0  0  0  0  0  0  0  0  0
    5.8280   10.9546   19.7094 C   0  0  0  0  0  0  0  0  0  0  0  0
    4.8293   10.2575   20.2343 N   0  0  0  0  0  0  0  0  0  0  0  0
    5.0377    8.9996   20.7376 C   0  0  0  0  0  0  0  0  0  0  0  0
 19 20  1  0  0  0
 20 21  1  0  0  0
 21 22  1  0  0  0
 22 23  1  0  0  0
 23 18  1  0  0  0
 18 12  1  0  0  0
 12 13  2  0  0  0
 13 14  1  0  0  0
 14 15  2  0  0  0
 15 16  1  0  0  0
 16 17  2  0  0  0
 15  8  1  0  0  0
  8  9  2  0  0  0
  8 10  1  0  0  0
 10  1  1  0  0  0
  1  2  2  0  0  0
  2  3  1  0  0  0
  3  4  2  0  0  0
  4  5  1  0  0  0
  4  6  1  0  0  0
  6 26  1  0  0  0
 26 28  1  0  0  0
 28 29  2  0  0  0
 29 30  1  0  0  0
 30 31  2  0  0  0
 31 32  1  0  0  0
 32 33  2  0  0  0
 32 34  1  0  0  0
 34 35  2  0  0  0
 35 36  1  0  0  0
 36 37  2  0  0  0
 37 38  1  0  0  0
 38 39  2  0  0  0
  6  7  2  0  0  0
 23 24  1  0  0  0
 24 25  1  0  0  0
 25 20  1  0  0  0
 17 12  1  0  0  0
  7  1  1  0  0  0
 33 28  1  0  0  0
 39 34  1  0  0  0
 10 11  1  0  0  0
 26 27  1  0  0  0
M  END
> <minimizedAffinity>
-8.48956

> <CNNscore>
0.1811994314

> <CNNaffinity>
6.3725786209

> <CNN_VS>
1.1547076702

> <CNNaffinity_variance>
0.2192676067

$$$$
[H]c1nc(N([H])c2c([H])c(N([H])C(=O)c3c([H])c([H])c(C([H])([H])N4C([H])([H])C([H])([H])N(C([H])([H])[H])C([H])([H])C4([H])[H])c([H])c3[H])c([H])c([H])c2C([H])([H])[H])nc(-c2c([H])nc([H])c([H])c2[H])c1[H]


 39 43  0  0  0  0  0  0  0  0999 V2000
    4.0502    7.3027   17.8334 C   0  0  0  0  0  0  0  0  0  0  0  0
    3.8359    8.6124   18.1893 C   0  0  0  0  0  0  0  0  0  0  0  0
    4.1770    9.0698   19.4595 C   0  0  0  0  0  0  0  0  0  0  0  0
    4.7340    8.2653   20.4111 C   0  0  0  0  0  0  0  0  0  0  0  0
    5.0746    8.8271   21.7541 C   0  0  0  0  0  0  0  0  0  0  0  0
    4.9688    6.9213   20.0853 C   0  0  0  0  0  0  0  0  0  0  0  0
    4.6273    6.4873   18.8317 C   0  0  0  0  0  0  0  0  0  0  0  0
    2.8120    5.6946   16.3585 C   0  0  0  0  0  0  0  0  0  0  0  0
    2.1769    5.1110   17.2674 O   0  0  0  0  0  0  0  0  0  0  0  0
    3.7174    6.7402   16.5773 N   0  0  0  0  0  0  0  0  0  0  0  0
    4.2162    7.1742   15.7383 H   0  0  0  0  0  0  0  0  0  0  0  0
    2.1011    4.2640   12.4568 C   0  0  0  0  0  0  0  0  0  0  0  0
    1.1940    5.1016   13.0649 C   0  0  0  0  0  0  0  0  0  0  0  0
    1.4021    5.5842   14.3479 C   0  0  0  0  0  0  0  0  0  0  0  0
    2.5448    5.2026   15.0014 C   0  0  0  0  0  0  0  0  0  0  0  0
    3.4426    4.3604   14.3717 C   0  0  0  0  0  0  0  0  0  0  0  0
    3.2488    3.8756   13.1026 C   0  0  0  0  0  0  0  0  0  0  0  0
    1.7990    3.8051   11.0813 C   0  0  0  0  0  0  0  0  0  0  0  0
    0.2784    4.9733    6.2614 C   0  0  0  0  0  0  0  0  0  0  0  0
    1.1889    4.5559    7.3100 N   0  0  0  0  0  0  0  0  0  0  0  0
    0.5293    3.7044    8.2828 C   0  0  0  0  0  0  0  0  0  0  0  0
    0.2064    4.5795    9.4748 C   0  0  0  0  0  0  0  0  0  0  0  0
    1.4297    4.9226   10.2197 N   0  0  0  0  0  0  0  0  0  0  0  0
    2.4854    5.1786    9.2407 C   0  0  0  0  0  0  0  0  0  0  0  0
    1.8455    5.6661    7.9418 C   0  0  0  0  0  0  0  0  0  0  0  0
    5.5383    6.1185   21.0760 N   0  0  0  0  0  0  0  0  0  0  0  0
    6.0649    6.6449   21.8681 H   0  0  0  0  0  0  0  0  0  0  0  0
    5.5516    4.7192   21.2349 C   0  0  0  0  0  0  0  0  0  0  0  0
    6.3059    4.1689   22.2446 N   0  0  0  0  0  0  0  0  0  0  0  0
    6.3972    2.8762   22.4900 C   0  0  0  0  0  0  0  0  0  0  0  0
    5.6940    1.9768   21.6907 C   0  0  0  0  0  0  0  0  0  0  0  0
    4.9328    2.5108   20.6739 C   0  0  0  0  0  0  0  0  0  0  0  0
    4.8937    3.8423   20.4904 N   0  0  0  0  0  0  0  0  0  0  0  0
    4.1654    1.6104   19.7935 C   0  0  0  0  0  0  0  0  0  0  0  0
    4.1975    1.7413   18.4239 C   0  0  0  0  0  0  0  0  0  0  0  0
    3.4641    0.8767   17.6315 C   0  0  0  0  0  0  0  0  0  0  0  0
    2.6995   -0.1160   18.1824 C   0  0  0  0  0  0  0  0  0  0  0  0
    2.6695   -0.2410   19.5025 N   0  0  0  0  0  0  0  0  0  0  0  0
    3.3889    0.6053   20.3057 C   0  0  0  0  0  0  0  0  0  0  0  0
 19 20  1  0  0  0
 20 21  1  0  0  0
 21 22  1  0  0  0
 22 23  1  0  0  0
 23 18  1  0  0  0
 18 12  1  0  0  0
 12 13  2  0  0  0
 13 14  1  0  0  0
 14 15  2  0  0  0
 15 16  1  0  0  0
 16 17  2  0  0  0
 15  8  1  0  0  0
  8  9  2  0  0  0
  8 10  1  0  0  0
 10  1  1  0  0  0
  1  2  2  0  0  0
  2  3  1  0  0  0
  3  4  2  0  0  0
  4  5  1  0  0  0
  4  6  1  0  0  0
  6 26  1  0  0  0
 26 28  1  0  0  0
 28 29  2  0  0  0
 29 30  1  0  0  0
 30 31  2  0  0  0
 31 32  1  0  0  0
 32 33  2  0  0  0
 32 34  1  0  0  0
 34 35  2  0  0  0
 35 36  1  0  0  0
 36 37  2  0  0  0
 37 38  1  0  0  0
 38 39  2  0  0  0
  6  7  2  0  0  0
 23 24  1  0  0  0
 24 25  1  0  0  0
 25 20  1  0  0  0
 17 12  1  0  0  0
  7  1  1  0  0  0
 33 28  1  0  0  0
 39 34  1  0  0  0
 10 11  1  0  0  0
 26 27  1  0  0  0
M  END
> <minimizedAffinity>
-8.78676

> <CNNscore>
0.1797087342

> <CNNaffinity>
6.5101022720

> <CNN_VS>
1.1699222326

> <CNNaffinity_variance>
0.2272365093

$$$$
[H]c1nc(N([H])c2c([H])c(N([H])C(=O)c3c([H])c([H])c(C([H])([H])N4C([H])([H])C([H])([H])N(C([H])([H])[H])C([H])([H])C4([H])[H])c([H])c3[H])c([H])c([H])c2C([H])([H])[H])nc(-c2c([H])nc([H])c([H])c2[H])c1[H]


 39 43  0  0  0  0  0  0  0  0999 V2000
    3.3323    1.0383   16.9588 C   0  0  0  0  0  0  0  0  0  0  0  0
    2.4524    0.0678   17.3733 C   0  0  0  0  0  0  0  0  0  0  0  0
    2.3913   -0.3130   18.7113 C   0  0  0  0  0  0  0  0  0  0  0  0
    3.1829    0.2407   19.6754 C   0  0  0  0  0  0  0  0  0  0  0  0
    3.0611   -0.2187   21.0929 C   0  0  0  0  0  0  0  0  0  0  0  0
    4.0941    1.2357   19.2914 C   0  0  0  0  0  0  0  0  0  0  0  0
    4.1418    1.5986   17.9713 C   0  0  0  0  0  0  0  0  0  0  0  0
    2.9267    2.6361   15.0675 C   0  0  0  0  0  0  0  0  0  0  0  0
    2.2058    3.4424   15.7002 O   0  0  0  0  0  0  0  0  0  0  0  0
    3.4831    1.4763   15.6207 N   0  0  0  0  0  0  0  0  0  0  0  0
    4.0825    0.8457   15.0008 H   0  0  0  0  0  0  0  0  0  0  0  0
    3.5849    3.5934   11.0146 C   0  0  0  0  0  0  0  0  0  0  0  0
    4.1884    4.3296   12.0085 C   0  0  0  0  0  0  0  0  0  0  0  0
    3.9869    4.0378   13.3488 C   0  0  0  0  0  0  0  0  0  0  0  0
    3.1639    2.9876   13.6621 C   0  0  0  0  0  0  0  0  0  0  0  0
    2.5677    2.2613   12.6477 C   0  0  0  0  0  0  0  0  0  0  0  0
    2.7585    2.5395   11.3175 C   0  0  0  0  0  0  0  0  0  0  0  0
    3.8651    3.9730    9.6106 C   0  0  0  0  0  0  0  0  0  0  0  0
    8.0781    2.7216    6.8550 C   0  0  0  0  0  0  0  0  0  0  0  0
    6.8101    3.3660    7.1373 N   0  0  0  0  0  0  0  0  0  0  0  0
    6.7338    3.8149    8.5154 C   0  0  0  0  0  0  0  0  0  0  0  0
    5.9108    2.7859    9.2603 C   0  0  0  0  0  0  0  0  0  0  0  0
    4.4907    2.8761    8.8807 N   0  0  0  0  0  0  0  0  0  0  0  0
    4.4337    3.1272    7.4412 C   0  0  0  0  0  0  0  0  0  0  0  0
    5.6858    2.5430    6.7889 C   0  0  0  0  0  0  0  0  0  0  0  0
    4.8934    1.7858   20.2957 N   0  0  0  0  0  0  0  0  0  0  0  0
    5.7883    1.2236   20.5507 H   0  0  0  0  0  0  0  0  0  0  0  0
    4.7435    2.9641   21.0525 C   0  0  0  0  0  0  0  0  0  0  0  0
    4.6380    2.8704   22.4204 N   0  0  0  0  0  0  0  0  0  0  0  0
    4.4938    3.9005   23.2314 C   0  0  0  0  0  0  0  0  0  0  0  0
    4.4409    5.1877   22.6995 C   0  0  0  0  0  0  0  0  0  0  0  0
    4.5451    5.3004   21.3302 C   0  0  0  0  0  0  0  0  0  0  0  0
    4.6901    4.1984   20.5734 N   0  0  0  0  0  0  0  0  0  0  0  0
    4.4960    6.6361   20.7073 C   0  0  0  0  0  0  0  0  0  0  0  0
    4.9647    7.7536   21.3596 C   0  0  0  0  0  0  0  0  0  0  0  0
    4.9018    8.9895   20.7417 C   0  0  0  0  0  0  0  0  0  0  0  0
    4.3793    9.1292   19.4843 C   0  0  0  0  0  0  0  0  0  0  0  0
    3.9279    8.0515   18.8568 N   0  0  0  0  0  0  0  0  0  0  0  0
    3.9810    6.8175   19.4514 C   0  0  0  0  0  0  0  0  0  0  0  0
 19 20  1  0  0  0
 20 21  1  0  0  0
 21 22  1  0  0  0
 22 23  1  0  0  0
 23 18  1  0  0  0
 18 12  1  0  0  0
 12 13  2  0  0  0
 13 14  1  0  0  0
 14 15  2  0  0  0
 15 16  1  0  0  0
 16 17  2  0  0  0
 15  8  1  0  0  0
  8  9  2  0  0  0
  8 10  1  0  0  0
 10  1  1  0  0  0
  1  2  2  0  0  0
  2  3  1  0  0  0
  3  4  2  0  0  0
  4  5  1  0  0  0
  4  6  1  0  0  0
  6 26  1  0  0  0
 26 28  1  0  0  0
 28 29  2  0  0  0
 29 30  1  0  0  0
 30 31  2  0  0  0
 31 32  1  0  0  0
 32 33  2  0  0  0
 32 34  1  0  0  0
 34 35  2  0  0  0
 35 36  1  0  0  0
 36 37  2  0  0  0
 37 38  1  0  0  0
 38 39  2  0  0  0
  6  7  2  0  0  0
 23 24  1  0  0  0
 24 25  1  0  0  0
 25 20  1  0  0  0
 17 12  1  0  0  0
  7  1  1  0  0  0
 33 28  1  0  0  0
 39 34  1  0  0  0
 10 11  1  0  0  0
 26 27  1  0  0  0
M  END
> <minimizedAffinity>
-9.47774

> <CNNscore>
0.1796532571

> <CNNaffinity>
6.6107358932

> <CNN_VS>
1.1876401901

> <CNNaffinity_variance>
0.1237583980

$$$$
[H]c1nc([H])c(C#Cc2c([H])c(C(=O)N([H])c3c([H])c([H])c(C([H])([H])N4C([H])([H])C([H])([H])N(C([H])([H])[H])C([H])([H])C4([H])[H])c(C(F)(F)F)c3[H])c([H])c([H])c2C([H])([H])[H])c([H])c1[H]


 37 40  0  0  0  0  0  0  0  0999 V2000
    3.5632    2.9344   16.3113 N   0  0  0  0  0  0  0  0  0  0  0  0
    3.5624    1.6959   16.9321 C   0  0  0  0  0  0  0  0  0  0  0  0
    3.3992    0.6006   16.3545 O   0  0  0  0  0  0  0  0  0  0  0  0
    3.7076    3.7858   16.9492 H   0  0  0  0  0  0  0  0  0  0  0  0
    3.7664    1.5867   18.4069 C   0  0  0  0  0  0  0  0  0  0  0  0
    3.2492    0.5451   19.1230 C   0  0  0  0  0  0  0  0  0  0  0  0
    3.4679    0.4759   20.4749 C   0  0  0  0  0  0  0  0  0  0  0  0
    4.2079    1.4573   21.1038 C   0  0  0  0  0  0  0  0  0  0  0  0
    4.4434    1.3807   22.5657 C   0  0  0  0  0  0  0  0  0  0  0  0
    4.7446    2.5230   20.4106 C   0  0  0  0  0  0  0  0  0  0  0  0
    4.5031    2.5565   19.0568 C   0  0  0  0  0  0  0  0  0  0  0  0
    5.5186    3.5647   21.0194 C   0  0  0  0  0  0  0  0  0  0  0  0
    6.1554    4.4565   21.5396 C   0  0  0  0  0  0  0  0  0  0  0  0
    6.8886    5.5260   22.1591 C   0  0  0  0  0  0  0  0  0  0  0  0
    8.2383    5.4019   22.4752 C   0  0  0  0  0  0  0  0  0  0  0  0
    8.9433    6.4272   23.0697 C   0  0  0  0  0  0  0  0  0  0  0  0
    8.2785    7.5853   23.3460 C   0  0  0  0  0  0  0  0  0  0  0  0
    6.9887    7.7422   23.0590 N   0  0  0  0  0  0  0  0  0  0  0  0
    6.2981    6.7319   22.4742 C   0  0  0  0  0  0  0  0  0  0  0  0
    3.1031    3.8308   12.1989 C   0  0  0  0  0  0  0  0  0  0  0  0
    3.9377    4.5416   13.0210 C   0  0  0  0  0  0  0  0  0  0  0  0
    4.0982    4.2706   14.3548 C   0  0  0  0  0  0  0  0  0  0  0  0
    3.3955    3.2248   14.9545 C   0  0  0  0  0  0  0  0  0  0  0  0
    2.5695    2.5167   14.1550 C   0  0  0  0  0  0  0  0  0  0  0  0
    2.4067    2.7975   12.7846 C   0  0  0  0  0  0  0  0  0  0  0  0
    1.4976    1.9891   11.9521 C   0  0  0  0  0  0  0  0  0  0  0  0
    0.8374    1.0766   12.7972 F   0  0  0  0  0  0  0  0  0  0  0  0
    2.1789    1.1524   11.0603 F   0  0  0  0  0  0  0  0  0  0  0  0
    0.4884    2.6968   11.3504 F   0  0  0  0  0  0  0  0  0  0  0  0
    2.9461    4.1772   10.8005 C   0  0  0  0  0  0  0  0  0  0  0  0
    0.6406    5.8917    6.9815 C   0  0  0  0  0  0  0  0  0  0  0  0
    1.5095    5.4464    8.0540 N   0  0  0  0  0  0  0  0  0  0  0  0
    2.6509    6.3362    8.1406 C   0  0  0  0  0  0  0  0  0  0  0  0
    3.5746    5.9566    9.2740 C   0  0  0  0  0  0  0  0  0  0  0  0
    2.8816    5.5556   10.4537 N   0  0  0  0  0  0  0  0  0  0  0  0
    1.4782    5.9521   10.4520 C   0  0  0  0  0  0  0  0  0  0  0  0
    0.7286    5.4263    9.2650 C   0  0  0  0  0  0  0  0  0  0  0  0
 31 32  1  0  0  0
 32 33  1  0  0  0
 33 34  1  0  0  0
 34 35  1  0  0  0
 35 30  1  0  0  0
 30 20  1  0  0  0
 20 21  2  0  0  0
 21 22  1  0  0  0
 22 23  2  0  0  0
 23  1  1  0  0  0
  1  2  1  0  0  0
  2  3  2  0  0  0
  2  5  1  0  0  0
  5  6  2  0  0  0
  6  7  1  0  0  0
  7  8  2  0  0  0
  8  9  1  0  0  0
  8 10  1  0  0  0
 10 11  2  0  0  0
 10 12  1  0  0  0
 12 13  3  0  0  0
 13 14  1  0  0  0
 14 15  2  0  0  0
 15 16  1  0  0  0
 16 17  2  0  0  0
 17 18  1  0  0  0
 18 19  2  0  0  0
 23 24  1  0  0  0
 24 25  2  0  0  0
 25 26  1  0  0  0
 26 27  1  0  0  0
 26 28  1  0  0  0
 26 29  1  0  0  0
 35 36  1  0  0  0
 36 37  1  0  0  0
 37 32  1  0  0  0
 25 20  1  0  0  0
 11  5  1  0  0  0
 19 14  1  0  0  0
  1  4  1  0  0  0
M  END
> <minimizedAffinity>
-8.14472

> <CNNscore>
0.4876355529

> <CNNaffinity>
6.4945116043

> <CNN_VS>
3.1669547558

> <CNNaffinity_variance>
0.3195937872

$$$$
[H]c1nc([H])c(C#Cc2c([H])c(C(=O)N([H])c3c([H])c([H])c(C([H])([H])N4C([H])([H])C([H])([H])N(C([H])([H])[H])C([H])([H])C4([H])[H])c(C(F)(F)F)c3[H])c([H])c([H])c2C([H])([H])[H])c([H])c1[H]


 37 40  0  0  0  0  0  0  0  0999 V2000
    3.3118    3.6560   16.3062 N   0  0  0  0  0  0  0  0  0  0  0  0
    3.2454    2.5286   17.1088 C   0  0  0  0  0  0  0  0  0  0  0  0
    2.5633    1.5108   16.8664 O   0  0  0  0  0  0  0  0  0  0  0  0
    3.9381    4.4537   16.6580 H   0  0  0  0  0  0  0  0  0  0  0  0
    4.0247    2.4557   18.3800 C   0  0  0  0  0  0  0  0  0  0  0  0
    4.3775    1.2575   18.9323 C   0  0  0  0  0  0  0  0  0  0  0  0
    5.1025    1.2336   20.0959 C   0  0  0  0  0  0  0  0  0  0  0  0
    5.4712    2.4182   20.7019 C   0  0  0  0  0  0  0  0  0  0  0  0
    6.2553    2.3903   21.9600 C   0  0  0  0  0  0  0  0  0  0  0  0
    5.1313    3.6457   20.1709 C   0  0  0  0  0  0  0  0  0  0  0  0
    4.4043    3.6275   19.0034 C   0  0  0  0  0  0  0  0  0  0  0  0
    5.4910    4.9005   20.7634 C   0  0  0  0  0  0  0  0  0  0  0  0
    5.7820    5.9582   21.2810 C   0  0  0  0  0  0  0  0  0  0  0  0
    6.1088    7.2076   21.9116 C   0  0  0  0  0  0  0  0  0  0  0  0
    5.4517    8.3890   21.5809 C   0  0  0  0  0  0  0  0  0  0  0  0
    5.7643    9.5886   22.1849 C   0  0  0  0  0  0  0  0  0  0  0  0
    6.7478    9.5929   23.1294 C   0  0  0  0  0  0  0  0  0  0  0  0
    7.3987    8.4844   23.4728 N   0  0  0  0  0  0  0  0  0  0  0  0
    7.0890    7.3059   22.8769 C   0  0  0  0  0  0  0  0  0  0  0  0
    1.3516    4.4320   12.6344 C   0  0  0  0  0  0  0  0  0  0  0  0
    1.2849    5.2876   13.7026 C   0  0  0  0  0  0  0  0  0  0  0  0
    1.9083    5.0537   14.9004 C   0  0  0  0  0  0  0  0  0  0  0  0
    2.6629    3.8956   15.0917 C   0  0  0  0  0  0  0  0  0  0  0  0
    2.7363    3.0441   14.0465 C   0  0  0  0  0  0  0  0  0  0  0  0
    2.0947    3.2873   12.8167 C   0  0  0  0  0  0  0  0  0  0  0  0
    2.2121    2.3293   11.7025 C   0  0  0  0  0  0  0  0  0  0  0  0
    1.0123    1.5950   11.6383 F   0  0  0  0  0  0  0  0  0  0  0  0
    3.1725    1.3385   11.9381 F   0  0  0  0  0  0  0  0  0  0  0  0
    2.3342    2.9028   10.4626 F   0  0  0  0  0  0  0  0  0  0  0  0
    0.6485    4.7114   11.3983 C   0  0  0  0  0  0  0  0  0  0  0  0
   -2.5389    6.4739    8.3043 C   0  0  0  0  0  0  0  0  0  0  0  0
   -1.7003    6.0015    9.3892 N   0  0  0  0  0  0  0  0  0  0  0  0
   -2.5371    5.6665   10.5248 C   0  0  0  0  0  0  0  0  0  0  0  0
   -1.7280    5.1191   11.6769 C   0  0  0  0  0  0  0  0  0  0  0  0
   -0.6863    4.2376   11.2636 N   0  0  0  0  0  0  0  0  0  0  0  0
   -0.8557    3.7575    9.8971 C   0  0  0  0  0  0  0  0  0  0  0  0
   -0.9521    4.8717    8.8988 C   0  0  0  0  0  0  0  0  0  0  0  0
 31 32  1  0  0  0
 32 33  1  0  0  0
 33 34  1  0  0  0
 34 35  1  0  0  0
 35 30  1  0  0  0
 30 20  1  0  0  0
 20 21  2  0  0  0
 21 22  1  0  0  0
 22 23  2  0  0  0
 23  1  1  0  0  0
  1  2  1  0  0  0
  2  3  2  0  0  0
  2  5  1  0  0  0
  5  6  2  0  0  0
  6  7  1  0  0  0
  7  8  2  0  0  0
  8  9  1  0  0  0
  8 10  1  0  0  0
 10 11  2  0  0  0
 10 12  1  0  0  0
 12 13  3  0  0  0
 13 14  1  0  0  0
 14 15  2  0  0  0
 15 16  1  0  0  0
 16 17  2  0  0  0
 17 18  1  0  0  0
 18 19  2  0  0  0
 23 24  1  0  0  0
 24 25  2  0  0  0
 25 26  1  0  0  0
 26 27  1  0  0  0
 26 28  1  0  0  0
 26 29  1  0  0  0
 35 36  1  0  0  0
 36 37  1  0  0  0
 37 32  1  0  0  0
 25 20  1  0  0  0
 11  5  1  0  0  0
 19 14  1  0  0  0
  1  4  1  0  0  0
M  END
> <minimizedAffinity>
-8.20775

> <CNNscore>
0.4232501090

> <CNNaffinity>
6.2460060120

> <CNN_VS>
2.6436226368

> <CNNaffinity_variance>
0.5631216764

$$$$
[H]c1nc([H])c(C#Cc2c([H])c(C(=O)N([H])c3c([H])c([H])c(C([H])([H])N4C([H])([H])C([H])([H])N(C([H])([H])[H])C([H])([H])C4([H])[H])c(C(F)(F)F)c3[H])c([H])c([H])c2C([H])([H])[H])c([H])c1[H]


 37 40  0  0  0  0  0  0  0  0999 V2000
    3.9587    2.8054   16.9886 N   0  0  0  0  0  0  0  0  0  0  0  0
    3.8629    1.7692   17.9032 C   0  0  0  0  0  0  0  0  0  0  0  0
    3.3747    0.6437   17.6683 O   0  0  0  0  0  0  0  0  0  0  0  0
    4.3965    3.7175   17.3478 H   0  0  0  0  0  0  0  0  0  0  0  0
    4.3622    1.9414   19.2994 C   0  0  0  0  0  0  0  0  0  0  0  0
    4.4707    0.8813   20.1537 C   0  0  0  0  0  0  0  0  0  0  0  0
    4.9436    1.0799   21.4253 C   0  0  0  0  0  0  0  0  0  0  0  0
    5.3066    2.3476   21.8348 C   0  0  0  0  0  0  0  0  0  0  0  0
    5.8179    2.5603   23.2102 C   0  0  0  0  0  0  0  0  0  0  0  0
    5.2095    3.4402   20.9976 C   0  0  0  0  0  0  0  0  0  0  0  0
    4.7309    3.1999   19.7306 C   0  0  0  0  0  0  0  0  0  0  0  0
    5.5737    4.7736   21.3775 C   0  0  0  0  0  0  0  0  0  0  0  0
    5.8691    5.9003   21.7161 C   0  0  0  0  0  0  0  0  0  0  0  0
    6.2017    7.2341   22.1355 C   0  0  0  0  0  0  0  0  0  0  0  0
    5.4947    8.3429   21.6799 C   0  0  0  0  0  0  0  0  0  0  0  0
    5.8128    9.6233   22.0812 C   0  0  0  0  0  0  0  0  0  0  0  0
    6.8525    9.7828   22.9490 C   0  0  0  0  0  0  0  0  0  0  0  0
    7.5522    8.7477   23.4068 N   0  0  0  0  0  0  0  0  0  0  0  0
    7.2370    7.4895   23.0102 C   0  0  0  0  0  0  0  0  0  0  0  0
    2.6907    2.8298   12.9490 C   0  0  0  0  0  0  0  0  0  0  0  0
    2.3815    1.8132   13.8141 C   0  0  0  0  0  0  0  0  0  0  0  0
    2.7848    1.7840   15.1236 C   0  0  0  0  0  0  0  0  0  0  0  0
    3.5540    2.8220   15.6509 C   0  0  0  0  0  0  0  0  0  0  0  0
    3.8656    3.8299   14.8083 C   0  0  0  0  0  0  0  0  0  0  0  0
    3.4495    3.8572   13.4632 C   0  0  0  0  0  0  0  0  0  0  0  0
    3.8098    4.9852   12.5853 C   0  0  0  0  0  0  0  0  0  0  0  0
    4.2527    6.0425   13.4030 F   0  0  0  0  0  0  0  0  0  0  0  0
    2.7027    5.5385   11.9314 F   0  0  0  0  0  0  0  0  0  0  0  0
    4.8594    4.7401   11.7370 F   0  0  0  0  0  0  0  0  0  0  0  0
    2.2648    2.7983   11.5641 C   0  0  0  0  0  0  0  0  0  0  0  0
    2.0561    2.7526    6.7899 C   0  0  0  0  0  0  0  0  0  0  0  0
    1.9916    2.6072    8.2314 N   0  0  0  0  0  0  0  0  0  0  0  0
    1.7274    1.2194    8.5572 C   0  0  0  0  0  0  0  0  0  0  0  0
    1.6966    0.9886   10.0497 C   0  0  0  0  0  0  0  0  0  0  0  0
    2.7025    1.7153   10.7518 N   0  0  0  0  0  0  0  0  0  0  0  0
    3.7616    2.2089    9.8793 C   0  0  0  0  0  0  0  0  0  0  0  0
    3.2433    3.0751    8.7711 C   0  0  0  0  0  0  0  0  0  0  0  0
 31 32  1  0  0  0
 32 33  1  0  0  0
 33 34  1  0  0  0
 34 35  1  0  0  0
 35 30  1  0  0  0
 30 20  1  0  0  0
 20 21  2  0  0  0
 21 22  1  0  0  0
 22 23  2  0  0  0
 23  1  1  0  0  0
  1  2  1  0  0  0
  2  3  2  0  0  0
  2  5  1  0  0  0
  5  6  2  0  0  0
  6  7  1  0  0  0
  7  8  2  0  0  0
  8  9  1  0  0  0
  8 10  1  0  0  0
 10 11  2  0  0  0
 10 12  1  0  0  0
 12 13  3  0  0  0
 13 14  1  0  0  0
 14 15  2  0  0  0
 15 16  1  0  0  0
 16 17  2  0  0  0
 17 18  1  0  0  0
 18 19  2  0  0  0
 23 24  1  0  0  0
 24 25  2  0  0  0
 25 26  1  0  0  0
 26 27  1  0  0  0
 26 28  1  0  0  0
 26 29  1  0  0  0
 35 36  1  0  0  0
 36 37  1  0  0  0
 37 32  1  0  0  0
 25 20  1  0  0  0
 11  5  1  0  0  0
 19 14  1  0  0  0
  1  4  1  0  0  0
M  END
> <minimizedAffinity>
-8.61911

> <CNNscore>
0.3734842241

> <CNNaffinity>
6.3494892120

> <CNN_VS>
2.3714339733

> <CNNaffinity_variance>
0.3469410241

$$$$
[H]c1nc([H])c(C#Cc2c([H])c(C(=O)N([H])c3c([H])c([H])c(C([H])([H])N4C([H])([H])C([H])([H])N(C([H])([H])[H])C([H])([H])C4([H])[H])c(C(F)(F)F)c3[H])c([H])c([H])c2C([H])([H])[H])c([H])c1[H]


 37 40  0  0  0  0  0  0  0  0999 V2000
    2.9302    3.6923   15.2496 N   0  0  0  0  0  0  0  0  0  0  0  0
    2.6367    2.4333   14.7514 C   0  0  0  0  0  0  0  0  0  0  0  0
    2.5996    1.3825   15.4255 O   0  0  0  0  0  0  0  0  0  0  0  0
    2.9313    4.4965   14.5384 H   0  0  0  0  0  0  0  0  0  0  0  0
    2.3314    2.2432   13.3026 C   0  0  0  0  0  0  0  0  0  0  0  0
    1.1222    1.7645   12.8856 C   0  0  0  0  0  0  0  0  0  0  0  0
    0.8774    1.6140   11.5449 C   0  0  0  0  0  0  0  0  0  0  0  0
    1.8524    1.9462   10.6254 C   0  0  0  0  0  0  0  0  0  0  0  0
    1.5858    1.7828    9.1760 C   0  0  0  0  0  0  0  0  0  0  0  0
    3.0846    2.4321   11.0124 C   0  0  0  0  0  0  0  0  0  0  0  0
    3.2913    2.5687   12.3654 C   0  0  0  0  0  0  0  0  0  0  0  0
    4.1269    2.7899   10.0956 C   0  0  0  0  0  0  0  0  0  0  0  0
    5.0229    3.0925    9.3360 C   0  0  0  0  0  0  0  0  0  0  0  0
    6.1000    3.4534    8.4557 C   0  0  0  0  0  0  0  0  0  0  0  0
    7.2951    2.7405    8.4297 C   0  0  0  0  0  0  0  0  0  0  0  0
    8.3296    3.0857    7.5858 C   0  0  0  0  0  0  0  0  0  0  0  0
    8.1539    4.1587    6.7629 C   0  0  0  0  0  0  0  0  0  0  0  0
    7.0263    4.8651    6.7585 N   0  0  0  0  0  0  0  0  0  0  0  0
    6.0105    4.5232    7.5898 C   0  0  0  0  0  0  0  0  0  0  0  0
    3.8052    4.8296   19.2330 C   0  0  0  0  0  0  0  0  0  0  0  0
    3.3092    5.7084   18.3059 C   0  0  0  0  0  0  0  0  0  0  0  0
    3.0230    5.3619   17.0113 C   0  0  0  0  0  0  0  0  0  0  0  0
    3.2313    4.0563   16.5650 C   0  0  0  0  0  0  0  0  0  0  0  0
    3.7200    3.1807   17.4691 C   0  0  0  0  0  0  0  0  0  0  0  0
    4.0130    3.5396   18.7989 C   0  0  0  0  0  0  0  0  0  0  0  0
    4.5382    2.5437   19.7505 C   0  0  0  0  0  0  0  0  0  0  0  0
    4.6355    1.3123   19.0745 F   0  0  0  0  0  0  0  0  0  0  0  0
    3.6428    2.2606   20.7885 F   0  0  0  0  0  0  0  0  0  0  0  0
    5.8098    2.7938   20.1998 F   0  0  0  0  0  0  0  0  0  0  0  0
    4.1201    5.2539   20.5825 C   0  0  0  0  0  0  0  0  0  0  0  0
    5.5343    9.7419   19.7476 C   0  0  0  0  0  0  0  0  0  0  0  0
    5.2464    8.3252   19.8639 N   0  0  0  0  0  0  0  0  0  0  0  0
    6.4467    7.5704   19.5609 C   0  0  0  0  0  0  0  0  0  0  0  0
    6.2286    6.0834   19.7120 C   0  0  0  0  0  0  0  0  0  0  0  0
    5.4299    5.7445   20.8434 N   0  0  0  0  0  0  0  0  0  0  0  0
    5.3170    6.8332   21.8071 C   0  0  0  0  0  0  0  0  0  0  0  0
    4.7652    8.0886   21.2015 C   0  0  0  0  0  0  0  0  0  0  0  0
 31 32  1  0  0  0
 32 33  1  0  0  0
 33 34  1  0  0  0
 34 35  1  0  0  0
 35 30  1  0  0  0
 30 20  1  0  0  0
 20 21  2  0  0  0
 21 22  1  0  0  0
 22 23  2  0  0  0
 23  1  1  0  0  0
  1  2  1  0  0  0
  2  3  2  0  0  0
  2  5  1  0  0  0
  5  6  2  0  0  0
  6  7  1  0  0  0
  7  8  2  0  0  0
  8  9  1  0  0  0
  8 10  1  0  0  0
 10 11  2  0  0  0
 10 12  1  0  0  0
 12 13  3  0  0  0
 13 14  1  0  0  0
 14 15  2  0  0  0
 15 16  1  0  0  0
 16 17  2  0  0  0
 17 18  1  0  0  0
 18 19  2  0  0  0
 23 24  1  0  0  0
 24 25  2  0  0  0
 25 26  1  0  0  0
 26 27  1  0  0  0
 26 28  1  0  0  0
 26 29  1  0  0  0
 35 36  1  0  0  0
 36 37  1  0  0  0
 37 32  1  0  0  0
 25 20  1  0  0  0
 11  5  1  0  0  0
 19 14  1  0  0  0
  1  4  1  0  0  0
M  END
> <minimizedAffinity>
-7.49469

> <CNNscore>
0.3540540338

> <CNNaffinity>
6.0523004532

> <CNN_VS>
2.1428413391

> <CNNaffinity_variance>
0.2582290769

$$$$
[H]c1nc([H])c(C#Cc2c([H])c(C(=O)N([H])c3c([H])c([H])c(C([H])([H])N4C([H])([H])C([H])([H])N(C([H])([H])[H])C([H])([H])C4([H])[H])c(C(F)(F)F)c3[H])c([H])c([H])c2C([H])([H])[H])c([H])c1[H]


 37 40  0  0  0  0  0  0  0  0999 V2000
    3.5439    6.6821   16.4372 N   0  0  0  0  0  0  0  0  0  0  0  0
    2.6310    5.7006   16.0869 C   0  0  0  0  0  0  0  0  0  0  0  0
    2.0425    4.9448   16.8885 O   0  0  0  0  0  0  0  0  0  0  0  0
    3.9715    7.2440   15.6286 H   0  0  0  0  0  0  0  0  0  0  0  0
    2.2751    5.4722   14.6552 C   0  0  0  0  0  0  0  0  0  0  0  0
    0.9817    5.5417   14.2222 C   0  0  0  0  0  0  0  0  0  0  0  0
    0.6976    5.3356   12.8967 C   0  0  0  0  0  0  0  0  0  0  0  0
    1.7181    5.0592   12.0087 C   0  0  0  0  0  0  0  0  0  0  0  0
    1.4090    4.8368   10.5757 C   0  0  0  0  0  0  0  0  0  0  0  0
    3.0353    4.9815   12.4126 C   0  0  0  0  0  0  0  0  0  0  0  0
    3.2792    5.1944   13.7495 C   0  0  0  0  0  0  0  0  0  0  0  0
    4.1274    4.6975   11.5284 C   0  0  0  0  0  0  0  0  0  0  0  0
    5.0491    4.4766   10.7715 C   0  0  0  0  0  0  0  0  0  0  0  0
    6.1362    4.2364    9.8627 C   0  0  0  0  0  0  0  0  0  0  0  0
    6.9013    5.2771    9.3445 C   0  0  0  0  0  0  0  0  0  0  0  0
    7.9446    5.0482    8.4722 C   0  0  0  0  0  0  0  0  0  0  0  0
    8.2155    3.7585    8.1222 C   0  0  0  0  0  0  0  0  0  0  0  0
    7.5069    2.7368    8.5963 N   0  0  0  0  0  0  0  0  0  0  0  0
    6.4813    2.9651    9.4541 C   0  0  0  0  0  0  0  0  0  0  0  0
    4.8703    7.8051   20.2981 C   0  0  0  0  0  0  0  0  0  0  0  0
    4.7538    8.7006   19.2676 C   0  0  0  0  0  0  0  0  0  0  0  0
    4.3304    8.3575   18.0102 C   0  0  0  0  0  0  0  0  0  0  0  0
    3.9884    7.0375   17.7138 C   0  0  0  0  0  0  0  0  0  0  0  0
    4.0990    6.1451   18.7209 C   0  0  0  0  0  0  0  0  0  0  0  0
    4.5343    6.5008   20.0122 C   0  0  0  0  0  0  0  0  0  0  0  0
    4.6308    5.4897   21.0805 C   0  0  0  0  0  0  0  0  0  0  0  0
    4.1430    4.2728   20.5666 F   0  0  0  0  0  0  0  0  0  0  0  0
    3.7650    5.7466   22.1501 F   0  0  0  0  0  0  0  0  0  0  0  0
    5.9091    5.2059   21.4887 F   0  0  0  0  0  0  0  0  0  0  0  0
    5.3522    8.2136   21.6024 C   0  0  0  0  0  0  0  0  0  0  0  0
    8.5344    8.0866   25.1657 C   0  0  0  0  0  0  0  0  0  0  0  0
    7.5365    8.3193   24.1393 N   0  0  0  0  0  0  0  0  0  0  0  0
    7.5460    9.7233   23.7776 C   0  0  0  0  0  0  0  0  0  0  0  0
    6.5602   10.0259   22.6738 C   0  0  0  0  0  0  0  0  0  0  0  0
    6.5221    9.0210   21.6630 N   0  0  0  0  0  0  0  0  0  0  0  0
    7.6782    8.1328   21.6995 C   0  0  0  0  0  0  0  0  0  0  0  0
    7.8490    7.4578   23.0271 C   0  0  0  0  0  0  0  0  0  0  0  0
 31 32  1  0  0  0
 32 33  1  0  0  0
 33 34  1  0  0  0
 34 35  1  0  0  0
 35 30  1  0  0  0
 30 20  1  0  0  0
 20 21  2  0  0  0
 21 22  1  0  0  0
 22 23  2  0  0  0
 23  1  1  0  0  0
  1  2  1  0  0  0
  2  3  2  0  0  0
  2  5  1  0  0  0
  5  6  2  0  0  0
  6  7  1  0  0  0
  7  8  2  0  0  0
  8  9  1  0  0  0
  8 10  1  0  0  0
 10 11  2  0  0  0
 10 12  1  0  0  0
 12 13  3  0  0  0
 13 14  1  0  0  0
 14 15  2  0  0  0
 15 16  1  0  0  0
 16 17  2  0  0  0
 17 18  1  0  0  0
 18 19  2  0  0  0
 23 24  1  0  0  0
 24 25  2  0  0  0
 25 26  1  0  0  0
 26 27  1  0  0  0
 26 28  1  0  0  0
 26 29  1  0  0  0
 35 36  1  0  0  0
 36 37  1  0  0  0
 37 32  1  0  0  0
 25 20  1  0  0  0
 11  5  1  0  0  0
 19 14  1  0  0  0
  1  4  1  0  0  0
M  END
> <minimizedAffinity>
-7.59643

> <CNNscore>
0.3370895982

> <CNNaffinity>
5.7606439590

> <CNN_VS>
1.9418531656

> <CNNaffinity_variance>
0.5833821297

$$$$
[H]c1nc([H])c(C#Cc2c([H])c(C(=O)N([H])c3c([H])c([H])c(C([H])([H])N4C([H])([H])C([H])([H])N(C([H])([H])[H])C([H])([H])C4([H])[H])c(C(F)(F)F)c3[H])c([H])c([H])c2C([H])([H])[H])c([H])c1[H]


 37 40  0  0  0  0  0  0  0  0999 V2000
    3.9648    2.8086   17.5340 N   0  0  0  0  0  0  0  0  0  0  0  0
    3.7842    1.7265   18.3801 C   0  0  0  0  0  0  0  0  0  0  0  0
    3.2965    0.6257   18.0477 O   0  0  0  0  0  0  0  0  0  0  0  0
    4.3895    3.6907   17.9746 H   0  0  0  0  0  0  0  0  0  0  0  0
    4.1808    1.8125   19.8167 C   0  0  0  0  0  0  0  0  0  0  0  0
    3.7176    0.9181   20.7390 C   0  0  0  0  0  0  0  0  0  0  0  0
    4.1140    1.0254   22.0472 C   0  0  0  0  0  0  0  0  0  0  0  0
    4.9772    2.0347   22.4246 C   0  0  0  0  0  0  0  0  0  0  0  0
    5.4048    2.1490   23.8397 C   0  0  0  0  0  0  0  0  0  0  0  0
    5.4638    2.9549   21.5187 C   0  0  0  0  0  0  0  0  0  0  0  0
    5.0430    2.8136   20.2167 C   0  0  0  0  0  0  0  0  0  0  0  0
    6.3607    4.0188   21.8630 C   0  0  0  0  0  0  0  0  0  0  0  0
    7.1356    4.9049   22.1558 C   0  0  0  0  0  0  0  0  0  0  0  0
    8.0715    5.9375   22.5069 C   0  0  0  0  0  0  0  0  0  0  0  0
    9.4390    5.6909   22.5854 C   0  0  0  0  0  0  0  0  0  0  0  0
   10.3383    6.6805   22.9223 C   0  0  0  0  0  0  0  0  0  0  0  0
    9.8510    7.9275   23.1813 C   0  0  0  0  0  0  0  0  0  0  0  0
    8.5507    8.2024   23.1166 N   0  0  0  0  0  0  0  0  0  0  0  0
    7.6686    7.2269   22.7850 C   0  0  0  0  0  0  0  0  0  0  0  0
    3.0095    3.0676   13.4173 C   0  0  0  0  0  0  0  0  0  0  0  0
    2.8872    1.9051   14.1323 C   0  0  0  0  0  0  0  0  0  0  0  0
    3.1944    1.7988   15.4636 C   0  0  0  0  0  0  0  0  0  0  0  0
    3.6611    2.9060   16.1732 C   0  0  0  0  0  0  0  0  0  0  0  0
    3.7862    4.0577   15.4799 C   0  0  0  0  0  0  0  0  0  0  0  0
    3.4695    4.1639   14.1118 C   0  0  0  0  0  0  0  0  0  0  0  0
    3.6162    5.4471   13.4013 C   0  0  0  0  0  0  0  0  0  0  0  0
    4.1292    6.3884   14.3144 F   0  0  0  0  0  0  0  0  0  0  0  0
    2.3871    6.0067   13.0331 F   0  0  0  0  0  0  0  0  0  0  0  0
    4.5226    5.4332   12.3720 F   0  0  0  0  0  0  0  0  0  0  0  0
    2.6998    3.1199   12.0025 C   0  0  0  0  0  0  0  0  0  0  0  0
    0.0074    6.2105    9.5453 C   0  0  0  0  0  0  0  0  0  0  0  0
    0.6851    5.2914   10.4393 N   0  0  0  0  0  0  0  0  0  0  0  0
   -0.2939    4.6595   11.3020 C   0  0  0  0  0  0  0  0  0  0  0  0
    0.3418    3.6498   12.2283 C   0  0  0  0  0  0  0  0  0  0  0  0
    1.3580    2.8719   11.5996 N   0  0  0  0  0  0  0  0  0  0  0  0
    1.3075    2.9393   10.1438 C   0  0  0  0  0  0  0  0  0  0  0  0
    1.4013    4.3425    9.6247 C   0  0  0  0  0  0  0  0  0  0  0  0
 31 32  1  0  0  0
 32 33  1  0  0  0
 33 34  1  0  0  0
 34 35  1  0  0  0
 35 30  1  0  0  0
 30 20  1  0  0  0
 20 21  2  0  0  0
 21 22  1  0  0  0
 22 23  2  0  0  0
 23  1  1  0  0  0
  1  2  1  0  0  0
  2  3  2  0  0  0
  2  5  1  0  0  0
  5  6  2  0  0  0
  6  7  1  0  0  0
  7  8  2  0  0  0
  8  9  1  0  0  0
  8 10  1  0  0  0
 10 11  2  0  0  0
 10 12  1  0  0  0
 12 13  3  0  0  0
 13 14  1  0  0  0
 14 15  2  0  0  0
 15 16  1  0  0  0
 16 17  2  0  0  0
 17 18  1  0  0  0
 18 19  2  0  0  0
 23 24  1  0  0  0
 24 25  2  0  0  0
 25 26  1  0  0  0
 26 27  1  0  0  0
 26 28  1  0  0  0
 26 29  1  0  0  0
 35 36  1  0  0  0
 36 37  1  0  0  0
 37 32  1  0  0  0
 25 20  1  0  0  0
 11  5  1  0  0  0
 19 14  1  0  0  0
  1  4  1  0  0  0
M  END
> <minimizedAffinity>
-8.84414

> <CNNscore>
0.3137654066

> <CNNaffinity>
6.3078713417

> <CNN_VS>
1.9791917801

> <CNNaffinity_variance>
0.2354809791

$$$$
[H]c1nc([H])c(C#Cc2c([H])c(C(=O)N([H])c3c([H])c([H])c(C([H])([H])N4C([H])([H])C([H])([H])N(C([H])([H])[H])C([H])([H])C4([H])[H])c(C(F)(F)F)c3[H])c([H])c([H])c2C([H])([H])[H])c([H])c1[H]


 37 40  0  0  0  0  0  0  0  0999 V2000
    6.1021    4.3617   21.4019 N   0  0  0  0  0  0  0  0  0  0  0  0
    5.7363    3.1198   21.8952 C   0  0  0  0  0  0  0  0  0  0  0  0
    6.0379    2.6751   23.0228 O   0  0  0  0  0  0  0  0  0  0  0  0
    5.7715    4.5942   20.4074 H   0  0  0  0  0  0  0  0  0  0  0  0
    4.9167    2.1863   21.0673 C   0  0  0  0  0  0  0  0  0  0  0  0
    4.3648    1.0570   21.6014 C   0  0  0  0  0  0  0  0  0  0  0  0
    3.6098    0.2306   20.8095 C   0  0  0  0  0  0  0  0  0  0  0  0
    3.4120    0.5434   19.4793 C   0  0  0  0  0  0  0  0  0  0  0  0
    2.5951   -0.3514   18.6247 C   0  0  0  0  0  0  0  0  0  0  0  0
    3.9551    1.6760   18.9079 C   0  0  0  0  0  0  0  0  0  0  0  0
    4.7057    2.4790   19.7349 C   0  0  0  0  0  0  0  0  0  0  0  0
    3.7776    2.0418   17.5333 C   0  0  0  0  0  0  0  0  0  0  0  0
    3.6198    2.3319   16.3661 C   0  0  0  0  0  0  0  0  0  0  0  0
    3.4265    2.6516   14.9784 C   0  0  0  0  0  0  0  0  0  0  0  0
    3.9312    3.8218   14.4191 C   0  0  0  0  0  0  0  0  0  0  0  0
    3.7465    4.1301   13.0878 C   0  0  0  0  0  0  0  0  0  0  0  0
    3.0469    3.2488   12.3175 C   0  0  0  0  0  0  0  0  0  0  0  0
    2.5488    2.1199   12.8154 N   0  0  0  0  0  0  0  0  0  0  0  0
    2.7321    1.8195   14.1254 C   0  0  0  0  0  0  0  0  0  0  0  0
    8.3381    7.3937   23.3342 C   0  0  0  0  0  0  0  0  0  0  0  0
    6.9966    7.5126   23.0814 C   0  0  0  0  0  0  0  0  0  0  0  0
    6.2555    6.5454   22.4543 C   0  0  0  0  0  0  0  0  0  0  0  0
    6.8538    5.3579   22.0311 C   0  0  0  0  0  0  0  0  0  0  0  0
    8.1755    5.2286   22.2743 C   0  0  0  0  0  0  0  0  0  0  0  0
    8.9345    6.2242   22.9192 C   0  0  0  0  0  0  0  0  0  0  0  0
   10.3746    6.0315   23.1685 C   0  0  0  0  0  0  0  0  0  0  0  0
   10.5349    5.6955   24.5266 F   0  0  0  0  0  0  0  0  0  0  0  0
   11.1087    7.2175   23.0513 F   0  0  0  0  0  0  0  0  0  0  0  0
   10.9410    4.9866   22.4838 F   0  0  0  0  0  0  0  0  0  0  0  0
    9.0831    8.4594   23.9742 C   0  0  0  0  0  0  0  0  0  0  0  0
   10.8438   12.1612   26.4309 C   0  0  0  0  0  0  0  0  0  0  0  0
   10.4312   10.9216   25.8012 N   0  0  0  0  0  0  0  0  0  0  0  0
   10.5621    9.8379   26.7554 C   0  0  0  0  0  0  0  0  0  0  0  0
   10.1002    8.5211   26.1772 C   0  0  0  0  0  0  0  0  0  0  0  0
    8.9263    8.6395   25.3768 N   0  0  0  0  0  0  0  0  0  0  0  0
    8.2157    9.8948   25.5908 C   0  0  0  0  0  0  0  0  0  0  0  0
    9.0760   11.0974   25.3438 C   0  0  0  0  0  0  0  0  0  0  0  0
 31 32  1  0  0  0
 32 33  1  0  0  0
 33 34  1  0  0  0
 34 35  1  0  0  0
 35 30  1  0  0  0
 30 20  1  0  0  0
 20 21  2  0  0  0
 21 22  1  0  0  0
 22 23  2  0  0  0
 23  1  1  0  0  0
  1  2  1  0  0  0
  2  3  2  0  0  0
  2  5  1  0  0  0
  5  6  2  0  0  0
  6  7  1  0  0  0
  7  8  2  0  0  0
  8  9  1  0  0  0
  8 10  1  0  0  0
 10 11  2  0  0  0
 10 12  1  0  0  0
 12 13  3  0  0  0
 13 14  1  0  0  0
 14 15  2  0  0  0
 15 16  1  0  0  0
 16 17  2  0  0  0
 17 18  1  0  0  0
 18 19  2  0  0  0
 23 24  1  0  0  0
 24 25  2  0  0  0
 25 26  1  0  0  0
 26 27  1  0  0  0
 26 28  1  0  0  0
 26 29  1  0  0  0
 35 36  1  0  0  0
 36 37  1  0  0  0
 37 32  1  0  0  0
 25 20  1  0  0  0
 11  5  1  0  0  0
 19 14  1  0  0  0
  1  4  1  0  0  0
M  END
> <minimizedAffinity>
-8.98620

> <CNNscore>
0.2735309899

> <CNNaffinity>
6.4439239502

> <CNN_VS>
1.7626129389

> <CNNaffinity_variance>
0.1588960141

$$$$
[H]c1nc([H])c(C#Cc2c([H])c(C(=O)N([H])c3c([H])c([H])c(C([H])([H])N4C([H])([H])C([H])([H])N(C([H])([H])[H])C([H])([H])C4([H])[H])c(C(F)(F)F)c3[H])c([H])c([H])c2C([H])([H])[H])c([H])c1[H]


 37 40  0  0  0  0  0  0  0  0999 V2000
    3.5225    3.7313   18.0326 N   0  0  0  0  0  0  0  0  0  0  0  0
    4.0681    2.5634   18.5404 C   0  0  0  0  0  0  0  0  0  0  0  0
    4.2671    1.5176   17.8871 O   0  0  0  0  0  0  0  0  0  0  0  0
    3.4065    4.5425   18.7261 H   0  0  0  0  0  0  0  0  0  0  0  0
    4.4729    2.4765   19.9746 C   0  0  0  0  0  0  0  0  0  0  0  0
    3.9130    1.5609   20.8192 C   0  0  0  0  0  0  0  0  0  0  0  0
    4.3198    1.5065   22.1275 C   0  0  0  0  0  0  0  0  0  0  0  0
    5.2910    2.3756   22.5834 C   0  0  0  0  0  0  0  0  0  0  0  0
    5.7297    2.3152   23.9984 C   0  0  0  0  0  0  0  0  0  0  0  0
    5.8770    3.3127   21.7571 C   0  0  0  0  0  0  0  0  0  0  0  0
    5.4421    3.3356   20.4524 C   0  0  0  0  0  0  0  0  0  0  0  0
    6.8877    4.2350   22.1846 C   0  0  0  0  0  0  0  0  0  0  0  0
    7.7489    5.0182   22.5259 C   0  0  0  0  0  0  0  0  0  0  0  0
    8.7775    5.9469   22.9065 C   0  0  0  0  0  0  0  0  0  0  0  0
   10.1279    5.6488   22.7498 C   0  0  0  0  0  0  0  0  0  0  0  0
   11.1161    6.5388   23.1147 C   0  0  0  0  0  0  0  0  0  0  0  0
   10.7356    7.7377   23.6413 C   0  0  0  0  0  0  0  0  0  0  0  0
    9.4551    8.0592   23.8067 N   0  0  0  0  0  0  0  0  0  0  0  0
    8.4853    7.1817   23.4468 C   0  0  0  0  0  0  0  0  0  0  0  0
    2.2621    4.5663   14.0777 C   0  0  0  0  0  0  0  0  0  0  0  0
    2.6771    5.5446   14.9428 C   0  0  0  0  0  0  0  0  0  0  0  0
    3.0852    5.2964   16.2274 C   0  0  0  0  0  0  0  0  0  0  0  0
    3.0960    3.9938   16.7277 C   0  0  0  0  0  0  0  0  0  0  0  0
    2.6890    3.0206   15.8850 C   0  0  0  0  0  0  0  0  0  0  0  0
    2.2705    3.2787   14.5654 C   0  0  0  0  0  0  0  0  0  0  0  0
    1.8424    2.1795   13.6815 C   0  0  0  0  0  0  0  0  0  0  0  0
    1.9390    0.9786   14.4106 F   0  0  0  0  0  0  0  0  0  0  0  0
    2.7223    1.9683   12.6135 F   0  0  0  0  0  0  0  0  0  0  0  0
    0.5307    2.2393   13.2847 F   0  0  0  0  0  0  0  0  0  0  0  0
    1.8113    4.8851   12.7378 C   0  0  0  0  0  0  0  0  0  0  0  0
   -2.2123    4.8927   10.1591 C   0  0  0  0  0  0  0  0  0  0  0  0
   -0.9225    5.0289   10.8081 N   0  0  0  0  0  0  0  0  0  0  0  0
   -0.4076    6.3624   10.5658 C   0  0  0  0  0  0  0  0  0  0  0  0
    0.9158    6.5881   11.2581 C   0  0  0  0  0  0  0  0  0  0  0  0
    0.9709    6.0201   12.5647 N   0  0  0  0  0  0  0  0  0  0  0  0
   -0.3455    5.6883   13.0971 C   0  0  0  0  0  0  0  0  0  0  0  0
   -1.1109    4.7531   12.2100 C   0  0  0  0  0  0  0  0  0  0  0  0
 31 32  1  0  0  0
 32 33  1  0  0  0
 33 34  1  0  0  0
 34 35  1  0  0  0
 35 30  1  0  0  0
 30 20  1  0  0  0
 20 21  2  0  0  0
 21 22  1  0  0  0
 22 23  2  0  0  0
 23  1  1  0  0  0
  1  2  1  0  0  0
  2  3  2  0  0  0
  2  5  1  0  0  0
  5  6  2  0  0  0
  6  7  1  0  0  0
  7  8  2  0  0  0
  8  9  1  0  0  0
  8 10  1  0  0  0
 10 11  2  0  0  0
 10 12  1  0  0  0
 12 13  3  0  0  0
 13 14  1  0  0  0
 14 15  2  0  0  0
 15 16  1  0  0  0
 16 17  2  0  0  0
 17 18  1  0  0  0
 18 19  2  0  0  0
 23 24  1  0  0  0
 24 25  2  0  0  0
 25 26  1  0  0  0
 26 27  1  0  0  0
 26 28  1  0  0  0
 26 29  1  0  0  0
 35 36  1  0  0  0
 36 37  1  0  0  0
 37 32  1  0  0  0
 25 20  1  0  0  0
 11  5  1  0  0  0
 19 14  1  0  0  0
  1  4  1  0  0  0
M  END
> <minimizedAffinity>
-8.55196

> <CNNscore>
0.2592183948

> <CNNaffinity>
6.1586775780

> <CNN_VS>
1.5964424610

> <CNNaffinity_variance>
0.0535133705

$$$$
[H]c1nc([H])c(C#Cc2c([H])c(C(=O)N([H])c3c([H])c([H])c(C([H])([H])N4C([H])([H])C([H])([H])N(C([H])([H])[H])C([H])([H])C4([H])[H])c(C(F)(F)F)c3[H])c([H])c([H])c2C([H])([H])[H])c([H])c1[H]


 37 40  0  0  0  0  0  0  0  0999 V2000
    2.2900    5.7126   16.4291 N   0  0  0  0  0  0  0  0  0  0  0  0
    2.4731    5.6960   15.0560 C   0  0  0  0  0  0  0  0  0  0  0  0
    3.5778    5.7508   14.4757 O   0  0  0  0  0  0  0  0  0  0  0  0
    1.2743    5.6679   16.7738 H   0  0  0  0  0  0  0  0  0  0  0  0
    1.3010    5.6077   14.1356 C   0  0  0  0  0  0  0  0  0  0  0  0
    0.2643    6.4932   14.2145 C   0  0  0  0  0  0  0  0  0  0  0  0
   -0.7893    6.3842   13.3437 C   0  0  0  0  0  0  0  0  0  0  0  0
   -0.7968    5.3819   12.3941 C   0  0  0  0  0  0  0  0  0  0  0  0
   -1.9369    5.2657   11.4533 C   0  0  0  0  0  0  0  0  0  0  0  0
    0.2340    4.4708   12.2871 C   0  0  0  0  0  0  0  0  0  0  0  0
    1.2720    4.6136   13.1783 C   0  0  0  0  0  0  0  0  0  0  0  0
    0.2702    3.4145   11.3187 C   0  0  0  0  0  0  0  0  0  0  0  0
    0.3012    2.5063   10.5151 C   0  0  0  0  0  0  0  0  0  0  0  0
    0.3410    1.4141    9.5820 C   0  0  0  0  0  0  0  0  0  0  0  0
    0.2622    0.0893   10.0013 C   0  0  0  0  0  0  0  0  0  0  0  0
    0.3004   -0.9599    9.1072 C   0  0  0  0  0  0  0  0  0  0  0  0
    0.4190   -0.6669    7.7807 C   0  0  0  0  0  0  0  0  0  0  0  0
    0.4970    0.5866    7.3410 N   0  0  0  0  0  0  0  0  0  0  0  0
    0.4591    1.6164    8.2229 C   0  0  0  0  0  0  0  0  0  0  0  0
    5.2232    5.9806   19.4708 C   0  0  0  0  0  0  0  0  0  0  0  0
    5.0218    6.9745   18.5491 C   0  0  0  0  0  0  0  0  0  0  0  0
    4.0811    6.9061   17.5549 C   0  0  0  0  0  0  0  0  0  0  0  0
    3.2601    5.7844   17.4328 C   0  0  0  0  0  0  0  0  0  0  0  0
    3.4488    4.7978   18.3350 C   0  0  0  0  0  0  0  0  0  0  0  0
    4.4162    4.8710   19.3557 C   0  0  0  0  0  0  0  0  0  0  0  0
    4.5779    3.7694   20.3218 C   0  0  0  0  0  0  0  0  0  0  0  0
    3.7542    2.7064   19.9041 F   0  0  0  0  0  0  0  0  0  0  0  0
    4.0693    4.0798   21.5884 F   0  0  0  0  0  0  0  0  0  0  0  0
    5.8385    3.2313   20.3733 F   0  0  0  0  0  0  0  0  0  0  0  0
    6.2528    6.0889   20.4849 C   0  0  0  0  0  0  0  0  0  0  0  0
    8.9493    9.4215   22.5972 C   0  0  0  0  0  0  0  0  0  0  0  0
    8.1641    8.2979   22.1237 N   0  0  0  0  0  0  0  0  0  0  0  0
    7.6161    7.5880   23.2629 C   0  0  0  0  0  0  0  0  0  0  0  0
    6.7437    6.4307   22.8373 C   0  0  0  0  0  0  0  0  0  0  0  0
    5.9222    6.7303   21.7111 N   0  0  0  0  0  0  0  0  0  0  0  0
    5.8107    8.1612   21.4526 C   0  0  0  0  0  0  0  0  0  0  0  0
    7.1424    8.8195   21.2513 C   0  0  0  0  0  0  0  0  0  0  0  0
 31 32  1  0  0  0
 32 33  1  0  0  0
 33 34  1  0  0  0
 34 35  1  0  0  0
 35 30  1  0  0  0
 30 20  1  0  0  0
 20 21  2  0  0  0
 21 22  1  0  0  0
 22 23  2  0  0  0
 23  1  1  0  0  0
  1  2  1  0  0  0
  2  3  2  0  0  0
  2  5  1  0  0  0
  5  6  2  0  0  0
  6  7  1  0  0  0
  7  8  2  0  0  0
  8  9  1  0  0  0
  8 10  1  0  0  0
 10 11  2  0  0  0
 10 12  1  0  0  0
 12 13  3  0  0  0
 13 14  1  0  0  0
 14 15  2  0  0  0
 15 16  1  0  0  0
 16 17  2  0  0  0
 17 18  1  0  0  0
 18 19  2  0  0  0
 23 24  1  0  0  0
 24 25  2  0  0  0
 25 26  1  0  0  0
 26 27  1  0  0  0
 26 28  1  0  0  0
 26 29  1  0  0  0
 35 36  1  0  0  0
 36 37  1  0  0  0
 37 32  1  0  0  0
 25 20  1  0  0  0
 11  5  1  0  0  0
 19 14  1  0  0  0
  1  4  1  0  0  0
M  END
> <minimizedAffinity>
-7.39772

> <CNNscore>
0.2562809885

> <CNNaffinity>
5.8615655899

> <CNN_VS>
1.5022078753

> <CNNaffinity_variance>
0.5480477214

$$$$
[H]c1nc2c([H])c(OC([H])([H])C([H])([H])C([H])([H])N3C([H])([H])C([H])([H])OC([H])([H])C3([H])[H])c(OC([H])([H])[H])c([H])c2c(Oc2c([H])c([H])c(N([H])C(=O)C3(C(=O)N([H])c4c([H])c([H])c(F)c([H])c4[H])C([H])([H])C3([H])[H])c([H])c2F)c1[H]


 48 53  0  0  0  0  0  0  0  0999 V2000
    5.2411    3.2474   22.1928 C   0  0  0  0  0  0  0  0  0  0  0  0
    6.4532    3.8096   21.8230 C   0  0  0  0  0  0  0  0  0  0  0  0
    6.6412    5.1936   21.8058 C   0  0  0  0  0  0  0  0  0  0  0  0
    5.6438    6.0722   22.1536 C   0  0  0  0  0  0  0  0  0  0  0  0
    4.4380    5.5060   22.5217 C   0  0  0  0  0  0  0  0  0  0  0  0
    4.2372    4.1214   22.5414 C   0  0  0  0  0  0  0  0  0  0  0  0
    3.0195    3.6130   22.8908 F   0  0  0  0  0  0  0  0  0  0  0  0
    5.8139    7.4879   22.1270 N   0  0  0  0  0  0  0  0  0  0  0  0
    6.0014    8.2662   20.9645 C   0  0  0  0  0  0  0  0  0  0  0  0
    6.0779    7.7850   19.8179 O   0  0  0  0  0  0  0  0  0  0  0  0
    5.7930    7.9991   23.0455 H   0  0  0  0  0  0  0  0  0  0  0  0
    6.0844    9.7688   21.1362 C   0  0  0  0  0  0  0  0  0  0  0  0
    5.0289   10.5575   20.3774 C   0  0  0  0  0  0  0  0  0  0  0  0
    6.4397   10.4394   19.8301 C   0  0  0  0  0  0  0  0  0  0  0  0
    6.6683   10.2840   22.3822 C   0  0  0  0  0  0  0  0  0  0  0  0
    6.0912    9.9228   23.4892 O   0  0  0  0  0  0  0  0  0  0  0  0
    7.7753   11.1357   22.5000 N   0  0  0  0  0  0  0  0  0  0  0  0
    8.2358   11.5065   21.6131 H   0  0  0  0  0  0  0  0  0  0  0  0
    8.3191   11.5821   23.7504 C   0  0  0  0  0  0  0  0  0  0  0  0
    9.0167   10.7218   24.5312 C   0  0  0  0  0  0  0  0  0  0  0  0
    9.4991   11.1304   25.7571 C   0  0  0  0  0  0  0  0  0  0  0  0
    9.2585   12.4364   26.1781 C   0  0  0  0  0  0  0  0  0  0  0  0
    9.7114   12.9059   27.3744 F   0  0  0  0  0  0  0  0  0  0  0  0
    8.5436   13.3302   25.3853 C   0  0  0  0  0  0  0  0  0  0  0  0
    8.0890   12.8729   24.1806 C   0  0  0  0  0  0  0  0  0  0  0  0
    5.1085    1.8558   22.1874 O   0  0  0  0  0  0  0  0  0  0  0  0
    4.5961    3.4628   18.4559 C   0  0  0  0  0  0  0  0  0  0  0  0
    4.7546    2.9047   19.7061 C   0  0  0  0  0  0  0  0  0  0  0  0
    4.1639    1.6701   20.0105 C   0  0  0  0  0  0  0  0  0  0  0  0
    4.3475    1.1297   21.2903 C   0  0  0  0  0  0  0  0  0  0  0  0
    3.7763   -0.0745   21.5904 C   0  0  0  0  0  0  0  0  0  0  0  0
    3.0269   -0.7224   20.6084 C   0  0  0  0  0  0  0  0  0  0  0  0
    2.8690   -0.1775   19.3868 N   0  0  0  0  0  0  0  0  0  0  0  0
    3.4191    0.9947   19.0733 C   0  0  0  0  0  0  0  0  0  0  0  0
    3.2524    1.5414   17.8221 C   0  0  0  0  0  0  0  0  0  0  0  0
    3.8277    2.7432   17.5281 C   0  0  0  0  0  0  0  0  0  0  0  0
    6.4803    4.8221   17.7163 C   0  0  0  0  0  0  0  0  0  0  0  0
    5.1526    4.6636   18.1029 O   0  0  0  0  0  0  0  0  0  0  0  0
    3.6352    3.2568   16.2789 O   0  0  0  0  0  0  0  0  0  0  0  0
    2.5383    2.9252   15.4516 C   0  0  0  0  0  0  0  0  0  0  0  0
    2.7992    3.2629   14.0074 C   0  0  0  0  0  0  0  0  0  0  0  0
    3.4487    4.6104   13.9329 C   0  0  0  0  0  0  0  0  0  0  0  0
    2.5907    5.6900   14.3863 N   0  0  0  0  0  0  0  0  0  0  0  0
    1.6988    5.9645   13.2360 C   0  0  0  0  0  0  0  0  0  0  0  0
    0.9153    7.2223   13.4017 C   0  0  0  0  0  0  0  0  0  0  0  0
    1.6411    8.2628   14.0098 O   0  0  0  0  0  0  0  0  0  0  0  0
    2.9786    8.0421   13.7513 C   0  0  0  0  0  0  0  0  0  0  0  0
    3.4540    6.8582   14.5961 C   0  0  0  0  0  0  0  0  0  0  0  0
 37 38  1  0  0  0
 38 27  1  0  0  0
 27 28  2  0  0  0
 28 29  1  0  0  0
 29 30  2  0  0  0
 30 26  1  0  0  0
 26  1  1  0  0  0
  1  2  2  0  0  0
  2  3  1  0  0  0
  3  4  2  0  0  0
  4  8  1  0  0  0
  8  9  1  0  0  0
  9 10  2  0  0  0
  9 12  1  0  0  0
 12 13  1  0  0  0
 13 14  1  0  0  0
 12 15  1  0  0  0
 15 16  2  0  0  0
 15 17  1  0  0  0
 17 19  1  0  0  0
 19 20  2  0  0  0
 20 21  1  0  0  0
 21 22  2  0  0  0
 22 23  1  0  0  0
 22 24  1  0  0  0
 24 25  2  0  0  0
  4  5  1  0  0  0
  5  6  2  0  0  0
  6  7  1  0  0  0
 30 31  1  0  0  0
 31 32  2  0  0  0
 32 33  1  0  0  0
 33 34  2  0  0  0
 34 35  1  0  0  0
 35 36  2  0  0  0
 36 39  1  0  0  0
 39 40  1  0  0  0
 40 41  1  0  0  0
 41 42  1  0  0  0
 42 43  1  0  0  0
 43 44  1  0  0  0
 44 45  1  0  0  0
 45 46  1  0  0  0
 46 47  1  0  0  0
 47 48  1  0  0  0
 36 27  1  0  0  0
 48 43  1  0  0  0
 34 29  1  0  0  0
  6  1  1  0  0  0
 14 12  1  0  0  0
 25 19  1  0  0  0
  8 11  1  0  0  0
 17 18  1  0  0  0
M  END
> <minimizedAffinity>
-8.71468

> <CNNscore>
0.4856494665

> <CNNaffinity>
7.5361547470

> <CNN_VS>
3.6599295139

> <CNNaffinity_variance>
0.1532265991

$$$$
[H]c1nc2c([H])c(OC([H])([H])C([H])([H])C([H])([H])N3C([H])([H])C([H])([H])OC([H])([H])C3([H])[H])c(OC([H])([H])[H])c([H])c2c(Oc2c([H])c([H])c(N([H])C(=O)C3(C(=O)N([H])c4c([H])c([H])c(F)c([H])c4[H])C([H])([H])C3([H])[H])c([H])c2F)c1[H]


 48 53  0  0  0  0  0  0  0  0999 V2000
    4.9363    2.7752   21.3007 C   0  0  0  0  0  0  0  0  0  0  0  0
    3.8666    3.6412   21.1341 C   0  0  0  0  0  0  0  0  0  0  0  0
    4.0108    5.0204   21.3022 C   0  0  0  0  0  0  0  0  0  0  0  0
    5.2127    5.5953   21.6381 C   0  0  0  0  0  0  0  0  0  0  0  0
    6.2753    4.7270   21.8024 C   0  0  0  0  0  0  0  0  0  0  0  0
    6.1429    3.3438   21.6383 C   0  0  0  0  0  0  0  0  0  0  0  0
    7.2188    2.5269   21.8345 F   0  0  0  0  0  0  0  0  0  0  0  0
    5.3739    6.9994   21.8284 N   0  0  0  0  0  0  0  0  0  0  0  0
    6.0641    7.8679   20.9557 C   0  0  0  0  0  0  0  0  0  0  0  0
    6.6506    7.4861   19.9250 O   0  0  0  0  0  0  0  0  0  0  0  0
    4.9399    7.4287   22.6844 H   0  0  0  0  0  0  0  0  0  0  0  0
    6.0580    9.3449   21.2915 C   0  0  0  0  0  0  0  0  0  0  0  0
    7.2468    9.8179   22.1132 C   0  0  0  0  0  0  0  0  0  0  0  0
    5.9085    9.5563   22.7797 C   0  0  0  0  0  0  0  0  0  0  0  0
    5.3612   10.2531   20.3705 C   0  0  0  0  0  0  0  0  0  0  0  0
    5.4431   11.5236   20.6317 O   0  0  0  0  0  0  0  0  0  0  0  0
    4.6058    9.8905   19.2469 N   0  0  0  0  0  0  0  0  0  0  0  0
    4.4604    8.8557   19.0367 H   0  0  0  0  0  0  0  0  0  0  0  0
    3.9715   10.8282   18.3654 C   0  0  0  0  0  0  0  0  0  0  0  0
    4.7117   11.5160   17.4623 C   0  0  0  0  0  0  0  0  0  0  0  0
    4.1163   12.4553   16.6463 C   0  0  0  0  0  0  0  0  0  0  0  0
    2.7474   12.6849   16.7652 C   0  0  0  0  0  0  0  0  0  0  0  0
    2.0960   13.5938   15.9867 F   0  0  0  0  0  0  0  0  0  0  0  0
    1.9756   11.9848   17.6887 C   0  0  0  0  0  0  0  0  0  0  0  0
    2.6165   11.0661   18.4714 C   0  0  0  0  0  0  0  0  0  0  0  0
    4.7329    1.4034   21.1241 O   0  0  0  0  0  0  0  0  0  0  0  0
    4.8112    2.8185   17.2821 C   0  0  0  0  0  0  0  0  0  0  0  0
    4.7671    2.3289   18.5697 C   0  0  0  0  0  0  0  0  0  0  0  0
    3.8624    1.3135   18.9106 C   0  0  0  0  0  0  0  0  0  0  0  0
    3.8459    0.8365   20.2281 C   0  0  0  0  0  0  0  0  0  0  0  0
    2.9680   -0.1549   20.5641 C   0  0  0  0  0  0  0  0  0  0  0  0
    2.1160   -0.6556   19.5796 C   0  0  0  0  0  0  0  0  0  0  0  0
    2.1560   -0.1768   18.3214 N   0  0  0  0  0  0  0  0  0  0  0  0
    3.0058    0.7883   17.9727 C   0  0  0  0  0  0  0  0  0  0  0  0
    3.0390    1.2690   16.6843 C   0  0  0  0  0  0  0  0  0  0  0  0
    3.9200    2.2576   16.3548 C   0  0  0  0  0  0  0  0  0  0  0  0
    5.8762    4.9886   17.6002 C   0  0  0  0  0  0  0  0  0  0  0  0
    5.6762    3.8066   16.8928 O   0  0  0  0  0  0  0  0  0  0  0  0
    3.9196    2.7132   15.0688 O   0  0  0  0  0  0  0  0  0  0  0  0
    3.0106    3.6763   14.5749 C   0  0  0  0  0  0  0  0  0  0  0  0
    3.7162    4.8272   13.9078 C   0  0  0  0  0  0  0  0  0  0  0  0
    3.4832    6.0708   14.7093 C   0  0  0  0  0  0  0  0  0  0  0  0
    3.9537    7.2768   14.0524 N   0  0  0  0  0  0  0  0  0  0  0  0
    4.8680    7.9033   15.0351 C   0  0  0  0  0  0  0  0  0  0  0  0
    5.2532    9.2937   14.6589 C   0  0  0  0  0  0  0  0  0  0  0  0
    4.2039   10.0335   14.0836 O   0  0  0  0  0  0  0  0  0  0  0  0
    3.0181    9.5044   14.5511 C   0  0  0  0  0  0  0  0  0  0  0  0
    2.7860    8.1490   13.8801 C   0  0  0  0  0  0  0  0  0  0  0  0
 37 38  1  0  0  0
 38 27  1  0  0  0
 27 28  2  0  0  0
 28 29  1  0  0  0
 29 30  2  0  0  0
 30 26  1  0  0  0
 26  1  1  0  0  0
  1  2  2  0  0  0
  2  3  1  0  0  0
  3  4  2  0  0  0
  4  8  1  0  0  0
  8  9  1  0  0  0
  9 10  2  0  0  0
  9 12  1  0  0  0
 12 13  1  0  0  0
 13 14  1  0  0  0
 12 15  1  0  0  0
 15 16  2  0  0  0
 15 17  1  0  0  0
 17 19  1  0  0  0
 19 20  2  0  0  0
 20 21  1  0  0  0
 21 22  2  0  0  0
 22 23  1  0  0  0
 22 24  1  0  0  0
 24 25  2  0  0  0
  4  5  1  0  0  0
  5  6  2  0  0  0
  6  7  1  0  0  0
 30 31  1  0  0  0
 31 32  2  0  0  0
 32 33  1  0  0  0
 33 34  2  0  0  0
 34 35  1  0  0  0
 35 36  2  0  0  0
 36 39  1  0  0  0
 39 40  1  0  0  0
 40 41  1  0  0  0
 41 42  1  0  0  0
 42 43  1  0  0  0
 43 44  1  0  0  0
 44 45  1  0  0  0
 45 46  1  0  0  0
 46 47  1  0  0  0
 47 48  1  0  0  0
 36 27  1  0  0  0
 48 43  1  0  0  0
 34 29  1  0  0  0
  6  1  1  0  0  0
 14 12  1  0  0  0
 25 19  1  0  0  0
  8 11  1  0  0  0
 17 18  1  0  0  0
M  END
> <minimizedAffinity>
-9.17760

> <CNNscore>
0.4586631060

> <CNNaffinity>
7.2701354027

> <CNN_VS>
3.3345429897

> <CNNaffinity_variance>
0.4402422905

$$$$
[H]c1nc2c([H])c(OC([H])([H])C([H])([H])C([H])([H])N3C([H])([H])C([H])([H])OC([H])([H])C3([H])[H])c(OC([H])([H])[H])c([H])c2c(Oc2c([H])c([H])c(N([H])C(=O)C3(C(=O)N([H])c4c([H])c([H])c(F)c([H])c4[H])C([H])([H])C3([H])[H])c([H])c2F)c1[H]


 48 53  0  0  0  0  0  0  0  0999 V2000
    4.0032    2.6326   16.0172 C   0  0  0  0  0  0  0  0  0  0  0  0
    4.2156    3.9493   16.3954 C   0  0  0  0  0  0  0  0  0  0  0  0
    3.8159    5.0151   15.5857 C   0  0  0  0  0  0  0  0  0  0  0  0
    3.1916    4.8222   14.3770 C   0  0  0  0  0  0  0  0  0  0  0  0
    2.9822    3.5076   14.0057 C   0  0  0  0  0  0  0  0  0  0  0  0
    3.3795    2.4318   14.8073 C   0  0  0  0  0  0  0  0  0  0  0  0
    3.1700    1.1511   14.3840 F   0  0  0  0  0  0  0  0  0  0  0  0
    2.7907    5.8983   13.5314 N   0  0  0  0  0  0  0  0  0  0  0  0
    3.4410    6.2870   12.3404 C   0  0  0  0  0  0  0  0  0  0  0  0
    4.4778    5.7445   11.9127 O   0  0  0  0  0  0  0  0  0  0  0  0
    1.9381    6.4465   13.8105 H   0  0  0  0  0  0  0  0  0  0  0  0
    2.8150    7.4081   11.5371 C   0  0  0  0  0  0  0  0  0  0  0  0
    2.2004    8.5232   12.3683 C   0  0  0  0  0  0  0  0  0  0  0  0
    1.3203    7.4517   11.7509 C   0  0  0  0  0  0  0  0  0  0  0  0
    3.3492    7.6680   10.1932 C   0  0  0  0  0  0  0  0  0  0  0  0
    2.5229    7.5261    9.2002 O   0  0  0  0  0  0  0  0  0  0  0  0
    4.6614    8.0400    9.8701 N   0  0  0  0  0  0  0  0  0  0  0  0
    5.3852    8.1029   10.6501 H   0  0  0  0  0  0  0  0  0  0  0  0
    5.1173    8.3101    8.5368 C   0  0  0  0  0  0  0  0  0  0  0  0
    5.0440    9.5679    8.0379 C   0  0  0  0  0  0  0  0  0  0  0  0
    5.4337    9.8248    6.7399 C   0  0  0  0  0  0  0  0  0  0  0  0
    5.9017    8.7747    5.9532 C   0  0  0  0  0  0  0  0  0  0  0  0
    6.3078    8.9604    4.6659 F   0  0  0  0  0  0  0  0  0  0  0  0
    5.9824    7.4780    6.4539 C   0  0  0  0  0  0  0  0  0  0  0  0
    5.5835    7.2801    7.7457 C   0  0  0  0  0  0  0  0  0  0  0  0
    4.4283    1.6057   16.8652 O   0  0  0  0  0  0  0  0  0  0  0  0
    5.2332    2.2600   20.8267 C   0  0  0  0  0  0  0  0  0  0  0  0
    4.9463    2.0246   19.4993 C   0  0  0  0  0  0  0  0  0  0  0  0
    3.8990    1.1632   19.1432 C   0  0  0  0  0  0  0  0  0  0  0  0
    3.6322    0.9482   17.7845 C   0  0  0  0  0  0  0  0  0  0  0  0
    2.6108    0.1120   17.4328 C   0  0  0  0  0  0  0  0  0  0  0  0
    1.8701   -0.5008   18.4436 C   0  0  0  0  0  0  0  0  0  0  0  0
    2.1504   -0.2737   19.7413 N   0  0  0  0  0  0  0  0  0  0  0  0
    3.1409    0.5396   20.1054 C   0  0  0  0  0  0  0  0  0  0  0  0
    3.4177    0.7653   21.4338 C   0  0  0  0  0  0  0  0  0  0  0  0
    4.4377    1.6036   21.7781 C   0  0  0  0  0  0  0  0  0  0  0  0
    7.4395    2.6529   21.7873 C   0  0  0  0  0  0  0  0  0  0  0  0
    6.2418    3.0936   21.2317 O   0  0  0  0  0  0  0  0  0  0  0  0
    4.6864    1.7981   23.1054 O   0  0  0  0  0  0  0  0  0  0  0  0
    4.4541    3.0186   23.7794 C   0  0  0  0  0  0  0  0  0  0  0  0
    3.4142    3.8572   23.0845 C   0  0  0  0  0  0  0  0  0  0  0  0
    3.9814    5.2190   22.8254 C   0  0  0  0  0  0  0  0  0  0  0  0
    4.7378    5.3028   21.5892 N   0  0  0  0  0  0  0  0  0  0  0  0
    5.5155    6.5575   21.7133 C   0  0  0  0  0  0  0  0  0  0  0  0
    6.1588    6.9657   20.4316 C   0  0  0  0  0  0  0  0  0  0  0  0
    5.3599    6.7270   19.2985 O   0  0  0  0  0  0  0  0  0  0  0  0
    4.0425    6.7407   19.7091 C   0  0  0  0  0  0  0  0  0  0  0  0
    3.7620    5.4644   20.5050 C   0  0  0  0  0  0  0  0  0  0  0  0
 37 38  1  0  0  0
 38 27  1  0  0  0
 27 28  2  0  0  0
 28 29  1  0  0  0
 29 30  2  0  0  0
 30 26  1  0  0  0
 26  1  1  0  0  0
  1  2  2  0  0  0
  2  3  1  0  0  0
  3  4  2  0  0  0
  4  8  1  0  0  0
  8  9  1  0  0  0
  9 10  2  0  0  0
  9 12  1  0  0  0
 12 13  1  0  0  0
 13 14  1  0  0  0
 12 15  1  0  0  0
 15 16  2  0  0  0
 15 17  1  0  0  0
 17 19  1  0  0  0
 19 20  2  0  0  0
 20 21  1  0  0  0
 21 22  2  0  0  0
 22 23  1  0  0  0
 22 24  1  0  0  0
 24 25  2  0  0  0
  4  5  1  0  0  0
  5  6  2  0  0  0
  6  7  1  0  0  0
 30 31  1  0  0  0
 31 32  2  0  0  0
 32 33  1  0  0  0
 33 34  2  0  0  0
 34 35  1  0  0  0
 35 36  2  0  0  0
 36 39  1  0  0  0
 39 40  1  0  0  0
 40 41  1  0  0  0
 41 42  1  0  0  0
 42 43  1  0  0  0
 43 44  1  0  0  0
 44 45  1  0  0  0
 45 46  1  0  0  0
 46 47  1  0  0  0
 47 48  1  0  0  0
 36 27  1  0  0  0
 48 43  1  0  0  0
 34 29  1  0  0  0
  6  1  1  0  0  0
 14 12  1  0  0  0
 25 19  1  0  0  0
  8 11  1  0  0  0
 17 18  1  0  0  0
M  END
> <minimizedAffinity>
-8.29864

> <CNNscore>
0.3871250153

> <CNNaffinity>
7.0653371811

> <CNN_VS>
2.7351686954

> <CNNaffinity_variance>
0.2691618800

$$$$
[H]c1nc2c([H])c(OC([H])([H])C([H])([H])C([H])([H])N3C([H])([H])C([H])([H])OC([H])([H])C3([H])[H])c(OC([H])([H])[H])c([H])c2c(Oc2c([H])c([H])c(N([H])C(=O)C3(C(=O)N([H])c4c([H])c([H])c(F)c([H])c4[H])C([H])([H])C3([H])[H])c([H])c2F)c1[H]


 48 53  0  0  0  0  0  0  0  0999 V2000
    4.2222    1.7222   17.4404 C   0  0  0  0  0  0  0  0  0  0  0  0
    4.4671    2.8808   16.7195 C   0  0  0  0  0  0  0  0  0  0  0  0
    3.7903    3.1569   15.5292 C   0  0  0  0  0  0  0  0  0  0  0  0
    2.8478    2.3038   15.0081 C   0  0  0  0  0  0  0  0  0  0  0  0
    2.6077    1.1508   15.7313 C   0  0  0  0  0  0  0  0  0  0  0  0
    3.2803    0.8625   16.9238 C   0  0  0  0  0  0  0  0  0  0  0  0
    3.0229   -0.3017   17.5885 F   0  0  0  0  0  0  0  0  0  0  0  0
    2.1586    2.5629   13.7868 N   0  0  0  0  0  0  0  0  0  0  0  0
    2.7036    3.2262   12.6663 C   0  0  0  0  0  0  0  0  0  0  0  0
    3.8559    3.6993   12.6387 O   0  0  0  0  0  0  0  0  0  0  0  0
    1.1647    2.2294   13.7072 H   0  0  0  0  0  0  0  0  0  0  0  0
    1.8362    3.3356   11.4295 C   0  0  0  0  0  0  0  0  0  0  0  0
    1.8787    2.1248   10.5107 C   0  0  0  0  0  0  0  0  0  0  0  0
    2.6846    3.3678   10.1801 C   0  0  0  0  0  0  0  0  0  0  0  0
    0.6450    4.1925   11.5027 C   0  0  0  0  0  0  0  0  0  0  0  0
    0.6502    5.2620   10.7643 O   0  0  0  0  0  0  0  0  0  0  0  0
   -0.4909    3.9832   12.2968 N   0  0  0  0  0  0  0  0  0  0  0  0
   -0.5058    3.1527   12.9648 H   0  0  0  0  0  0  0  0  0  0  0  0
   -1.6396    4.8429   12.3027 C   0  0  0  0  0  0  0  0  0  0  0  0
   -1.6601    5.9401   13.0978 C   0  0  0  0  0  0  0  0  0  0  0  0
   -2.7807    6.7430   13.1460 C   0  0  0  0  0  0  0  0  0  0  0  0
   -3.8866    6.4091   12.3675 C   0  0  0  0  0  0  0  0  0  0  0  0
   -5.0225    7.1617   12.3637 F   0  0  0  0  0  0  0  0  0  0  0  0
   -3.8783    5.2848   11.5461 C   0  0  0  0  0  0  0  0  0  0  0  0
   -2.7425    4.5251   11.5368 C   0  0  0  0  0  0  0  0  0  0  0  0
    4.9325    1.4955   18.6229 O   0  0  0  0  0  0  0  0  0  0  0  0
    5.2129    5.3610   19.9452 C   0  0  0  0  0  0  0  0  0  0  0  0
    5.1106    4.0538   19.5206 C   0  0  0  0  0  0  0  0  0  0  0  0
    4.5580    3.0774   20.3615 C   0  0  0  0  0  0  0  0  0  0  0  0
    4.4661    1.7584   19.8974 C   0  0  0  0  0  0  0  0  0  0  0  0
    3.9258    0.8043   20.7122 C   0  0  0  0  0  0  0  0  0  0  0  0
    3.4860    1.1799   21.9816 C   0  0  0  0  0  0  0  0  0  0  0  0
    3.5873    2.4564   22.3991 N   0  0  0  0  0  0  0  0  0  0  0  0
    4.1094    3.4023   21.6195 C   0  0  0  0  0  0  0  0  0  0  0  0
    4.2068    4.7032   22.0556 C   0  0  0  0  0  0  0  0  0  0  0  0
    4.7453    5.6518   21.2358 C   0  0  0  0  0  0  0  0  0  0  0  0
    7.0417    6.3486   18.6702 C   0  0  0  0  0  0  0  0  0  0  0  0
    5.7408    6.3557   19.1653 O   0  0  0  0  0  0  0  0  0  0  0  0
    4.8311    6.9299   21.7052 O   0  0  0  0  0  0  0  0  0  0  0  0
    6.0500    7.5741   22.0171 C   0  0  0  0  0  0  0  0  0  0  0  0
    6.1237    8.9573   21.4263 C   0  0  0  0  0  0  0  0  0  0  0  0
    4.7681    9.3422   20.9190 C   0  0  0  0  0  0  0  0  0  0  0  0
    4.7886    9.8828   19.5719 N   0  0  0  0  0  0  0  0  0  0  0  0
    4.8167   11.3517   19.7608 C   0  0  0  0  0  0  0  0  0  0  0  0
    4.5722   12.1002   18.4947 C   0  0  0  0  0  0  0  0  0  0  0  0
    3.6065   11.5030   17.6639 O   0  0  0  0  0  0  0  0  0  0  0  0
    2.7648   10.7644   18.4705 C   0  0  0  0  0  0  0  0  0  0  0  0
    3.5112    9.5172   18.9487 C   0  0  0  0  0  0  0  0  0  0  0  0
 37 38  1  0  0  0
 38 27  1  0  0  0
 27 28  2  0  0  0
 28 29  1  0  0  0
 29 30  2  0  0  0
 30 26  1  0  0  0
 26  1  1  0  0  0
  1  2  2  0  0  0
  2  3  1  0  0  0
  3  4  2  0  0  0
  4  8  1  0  0  0
  8  9  1  0  0  0
  9 10  2  0  0  0
  9 12  1  0  0  0
 12 13  1  0  0  0
 13 14  1  0  0  0
 12 15  1  0  0  0
 15 16  2  0  0  0
 15 17  1  0  0  0
 17 19  1  0  0  0
 19 20  2  0  0  0
 20 21  1  0  0  0
 21 22  2  0  0  0
 22 23  1  0  0  0
 22 24  1  0  0  0
 24 25  2  0  0  0
  4  5  1  0  0  0
  5  6  2  0  0  0
  6  7  1  0  0  0
 30 31  1  0  0  0
 31 32  2  0  0  0
 32 33  1  0  0  0
 33 34  2  0  0  0
 34 35  1  0  0  0
 35 36  2  0  0  0
 36 39  1  0  0  0
 39 40  1  0  0  0
 40 41  1  0  0  0
 41 42  1  0  0  0
 42 43  1  0  0  0
 43 44  1  0  0  0
 44 45  1  0  0  0
 45 46  1  0  0  0
 46 47  1  0  0  0
 47 48  1  0  0  0
 36 27  1  0  0  0
 48 43  1  0  0  0
 34 29  1  0  0  0
  6  1  1  0  0  0
 14 12  1  0  0  0
 25 19  1  0  0  0
  8 11  1  0  0  0
 17 18  1  0  0  0
M  END
> <minimizedAffinity>
-9.82117

> <CNNscore>
0.2887133062

> <CNNaffinity>
7.1525397301

> <CNN_VS>
2.0650334358

> <CNNaffinity_variance>
0.2527728379

$$$$
[H]c1nc2c([H])c(OC([H])([H])C([H])([H])C([H])([H])N3C([H])([H])C([H])([H])OC([H])([H])C3([H])[H])c(OC([H])([H])[H])c([H])c2c(Oc2c([H])c([H])c(N([H])C(=O)C3(C(=O)N([H])c4c([H])c([H])c(F)c([H])c4[H])C([H])([H])C3([H])[H])c([H])c2F)c1[H]


 48 53  0  0  0  0  0  0  0  0999 V2000
    4.2037    1.4590   17.8805 C   0  0  0  0  0  0  0  0  0  0  0  0
    4.5097    2.5712   17.1116 C   0  0  0  0  0  0  0  0  0  0  0  0
    3.8933    2.7988   15.8790 C   0  0  0  0  0  0  0  0  0  0  0  0
    2.9532    1.9409   15.3611 C   0  0  0  0  0  0  0  0  0  0  0  0
    2.6521    0.8342   16.1322 C   0  0  0  0  0  0  0  0  0  0  0  0
    3.2639    0.5948   17.3676 C   0  0  0  0  0  0  0  0  0  0  0  0
    2.9478   -0.5258   18.0802 F   0  0  0  0  0  0  0  0  0  0  0  0
    2.3255    2.1501   14.0978 N   0  0  0  0  0  0  0  0  0  0  0  0
    2.8790    2.8755   13.0209 C   0  0  0  0  0  0  0  0  0  0  0  0
    3.9810    3.4544   13.0740 O   0  0  0  0  0  0  0  0  0  0  0  0
    1.3748    1.7263   13.9494 H   0  0  0  0  0  0  0  0  0  0  0  0
    2.0892    2.9191   11.7292 C   0  0  0  0  0  0  0  0  0  0  0  0
    1.0180    1.8477   11.5993 C   0  0  0  0  0  0  0  0  0  0  0  0
    2.3538    1.6867   10.8966 C   0  0  0  0  0  0  0  0  0  0  0  0
    1.9516    4.2171   11.0548 C   0  0  0  0  0  0  0  0  0  0  0  0
    1.2370    5.1167   11.6624 O   0  0  0  0  0  0  0  0  0  0  0  0
    2.4999    4.5813    9.8173 N   0  0  0  0  0  0  0  0  0  0  0  0
    3.0373    3.8504    9.2576 H   0  0  0  0  0  0  0  0  0  0  0  0
    2.3550    5.8787    9.2221 C   0  0  0  0  0  0  0  0  0  0  0  0
    3.2529    6.8550    9.4994 C   0  0  0  0  0  0  0  0  0  0  0  0
    3.0915    8.1187    8.9705 C   0  0  0  0  0  0  0  0  0  0  0  0
    1.9949    8.3742    8.1502 C   0  0  0  0  0  0  0  0  0  0  0  0
    1.7794    9.5979    7.5910 F   0  0  0  0  0  0  0  0  0  0  0  0
    1.0654    7.3798    7.8572 C   0  0  0  0  0  0  0  0  0  0  0  0
    1.2739    6.1466    8.4075 C   0  0  0  0  0  0  0  0  0  0  0  0
    4.8552    1.2797   19.1043 O   0  0  0  0  0  0  0  0  0  0  0  0
    5.7350    5.1186   20.2256 C   0  0  0  0  0  0  0  0  0  0  0  0
    5.4289    3.8231   19.8685 C   0  0  0  0  0  0  0  0  0  0  0  0
    4.6741    3.0114   20.7271 C   0  0  0  0  0  0  0  0  0  0  0  0
    4.3783    1.7000   20.3319 C   0  0  0  0  0  0  0  0  0  0  0  0
    3.6406    0.9065   21.1640 C   0  0  0  0  0  0  0  0  0  0  0  0
    3.2097    1.4329   22.3819 C   0  0  0  0  0  0  0  0  0  0  0  0
    3.5098    2.6979   22.7336 N   0  0  0  0  0  0  0  0  0  0  0  0
    4.2262    3.4887   21.9358 C   0  0  0  0  0  0  0  0  0  0  0  0
    4.5258    4.7797   22.3045 C   0  0  0  0  0  0  0  0  0  0  0  0
    5.2609    5.5677   21.4676 C   0  0  0  0  0  0  0  0  0  0  0  0
    6.2149    6.1527   18.0703 C   0  0  0  0  0  0  0  0  0  0  0  0
    6.4656    5.9564   19.4253 O   0  0  0  0  0  0  0  0  0  0  0  0
    5.5434    6.8403   21.8700 O   0  0  0  0  0  0  0  0  0  0  0  0
    4.7928    7.9736   21.4827 C   0  0  0  0  0  0  0  0  0  0  0  0
    5.5854    9.2470   21.6157 C   0  0  0  0  0  0  0  0  0  0  0  0
    5.2349   10.1588   20.4803 C   0  0  0  0  0  0  0  0  0  0  0  0
    6.3932   10.7622   19.8466 N   0  0  0  0  0  0  0  0  0  0  0  0
    7.3802   10.9121   20.9409 C   0  0  0  0  0  0  0  0  0  0  0  0
    8.5452   11.7585   20.5542 C   0  0  0  0  0  0  0  0  0  0  0  0
    8.2006   12.8563   19.7447 O   0  0  0  0  0  0  0  0  0  0  0  0
    6.8849   13.1738   20.0140 C   0  0  0  0  0  0  0  0  0  0  0  0
    5.9843   12.0994   19.4010 C   0  0  0  0  0  0  0  0  0  0  0  0
 37 38  1  0  0  0
 38 27  1  0  0  0
 27 28  2  0  0  0
 28 29  1  0  0  0
 29 30  2  0  0  0
 30 26  1  0  0  0
 26  1  1  0  0  0
  1  2  2  0  0  0
  2  3  1  0  0  0
  3  4  2  0  0  0
  4  8  1  0  0  0
  8  9  1  0  0  0
  9 10  2  0  0  0
  9 12  1  0  0  0
 12 13  1  0  0  0
 13 14  1  0  0  0
 12 15  1  0  0  0
 15 16  2  0  0  0
 15 17  1  0  0  0
 17 19  1  0  0  0
 19 20  2  0  0  0
 20 21  1  0  0  0
 21 22  2  0  0  0
 22 23  1  0  0  0
 22 24  1  0  0  0
 24 25  2  0  0  0
  4  5  1  0  0  0
  5  6  2  0  0  0
  6  7  1  0  0  0
 30 31  1  0  0  0
 31 32  2  0  0  0
 32 33  1  0  0  0
 33 34  2  0  0  0
 34 35  1  0  0  0
 35 36  2  0  0  0
 36 39  1  0  0  0
 39 40  1  0  0  0
 40 41  1  0  0  0
 41 42  1  0  0  0
 42 43  1  0  0  0
 43 44  1  0  0  0
 44 45  1  0  0  0
 45 46  1  0  0  0
 46 47  1  0  0  0
 47 48  1  0  0  0
 36 27  1  0  0  0
 48 43  1  0  0  0
 34 29  1  0  0  0
  6  1  1  0  0  0
 14 12  1  0  0  0
 25 19  1  0  0  0
  8 11  1  0  0  0
 17 18  1  0  0  0
M  END
> <minimizedAffinity>
-8.35131

> <CNNscore>
0.2810293734

> <CNNaffinity>
6.8545737267

> <CNN_VS>
1.9263365269

> <CNNaffinity_variance>
0.1963159144

$$$$
[H]c1nc2c([H])c(OC([H])([H])C([H])([H])C([H])([H])N3C([H])([H])C([H])([H])OC([H])([H])C3([H])[H])c(OC([H])([H])[H])c([H])c2c(Oc2c([H])c([H])c(N([H])C(=O)C3(C(=O)N([H])c4c([H])c([H])c(F)c([H])c4[H])C([H])([H])C3([H])[H])c([H])c2F)c1[H]


 48 53  0  0  0  0  0  0  0  0999 V2000
    2.8875    3.0662   14.1626 C   0  0  0  0  0  0  0  0  0  0  0  0
    2.6422    2.2836   13.0449 C   0  0  0  0  0  0  0  0  0  0  0  0
    1.6932    2.6531   12.0889 C   0  0  0  0  0  0  0  0  0  0  0  0
    0.9542    3.8062   12.1984 C   0  0  0  0  0  0  0  0  0  0  0  0
    1.2034    4.5824   13.3144 C   0  0  0  0  0  0  0  0  0  0  0  0
    2.1502    4.2221   14.2795 C   0  0  0  0  0  0  0  0  0  0  0  0
    2.3424    5.0125   15.3758 F   0  0  0  0  0  0  0  0  0  0  0  0
   -0.0291    4.1906   11.2397 N   0  0  0  0  0  0  0  0  0  0  0  0
    0.2072    4.9979   10.1062 C   0  0  0  0  0  0  0  0  0  0  0  0
    1.3144    5.5023    9.8381 O   0  0  0  0  0  0  0  0  0  0  0  0
   -1.0108    3.8419   11.3811 H   0  0  0  0  0  0  0  0  0  0  0  0
   -0.9530    5.2306    9.1607 C   0  0  0  0  0  0  0  0  0  0  0  0
   -0.5763    5.2828    7.6884 C   0  0  0  0  0  0  0  0  0  0  0  0
   -0.8187    6.5645    8.4646 C   0  0  0  0  0  0  0  0  0  0  0  0
   -2.2852    4.7825    9.5888 C   0  0  0  0  0  0  0  0  0  0  0  0
   -2.4567    3.5002    9.7130 O   0  0  0  0  0  0  0  0  0  0  0  0
   -3.3943    5.5940    9.8641 N   0  0  0  0  0  0  0  0  0  0  0  0
   -3.3131    6.6458    9.7108 H   0  0  0  0  0  0  0  0  0  0  0  0
   -4.6650    5.0982   10.3089 C   0  0  0  0  0  0  0  0  0  0  0  0
   -5.6715    4.9198    9.4192 C   0  0  0  0  0  0  0  0  0  0  0  0
   -6.9106    4.4913    9.8477 C   0  0  0  0  0  0  0  0  0  0  0  0
   -7.1101    4.2461   11.2045 C   0  0  0  0  0  0  0  0  0  0  0  0
   -8.3068    3.8158   11.6936 F   0  0  0  0  0  0  0  0  0  0  0  0
   -6.0843    4.4251   12.1288 C   0  0  0  0  0  0  0  0  0  0  0  0
   -4.8775    4.8508   11.6497 C   0  0  0  0  0  0  0  0  0  0  0  0
    3.8457    2.6451   15.0893 O   0  0  0  0  0  0  0  0  0  0  0  0
    5.3110    4.0196   18.6576 C   0  0  0  0  0  0  0  0  0  0  0  0
    4.8104    3.5382   17.4671 C   0  0  0  0  0  0  0  0  0  0  0  0
    4.0869    2.3375   17.4372 C   0  0  0  0  0  0  0  0  0  0  0  0
    3.5893    1.8780   16.2104 C   0  0  0  0  0  0  0  0  0  0  0  0
    2.8813    0.7102   16.1769 C   0  0  0  0  0  0  0  0  0  0  0  0
    2.6813    0.0150   17.3696 C   0  0  0  0  0  0  0  0  0  0  0  0
    3.1718    0.4827   18.5335 N   0  0  0  0  0  0  0  0  0  0  0  0
    3.8631    1.6203   18.5882 C   0  0  0  0  0  0  0  0  0  0  0  0
    4.3584    2.0894   19.7827 C   0  0  0  0  0  0  0  0  0  0  0  0
    5.0627    3.2579   19.8094 C   0  0  0  0  0  0  0  0  0  0  0  0
    6.0231    6.1734   17.7635 C   0  0  0  0  0  0  0  0  0  0  0  0
    6.0215    5.1873   18.7459 O   0  0  0  0  0  0  0  0  0  0  0  0
    5.5435    3.6883   21.0115 O   0  0  0  0  0  0  0  0  0  0  0  0
    4.8330    4.5451   21.8826 C   0  0  0  0  0  0  0  0  0  0  0  0
    5.6477    5.7482   22.2783 C   0  0  0  0  0  0  0  0  0  0  0  0
    7.1022    5.4120   22.1559 C   0  0  0  0  0  0  0  0  0  0  0  0
    7.9697    6.5743   22.2171 N   0  0  0  0  0  0  0  0  0  0  0  0
    7.2261    7.5504   23.0468 C   0  0  0  0  0  0  0  0  0  0  0  0
    7.8286    8.9139   23.0115 C   0  0  0  0  0  0  0  0  0  0  0  0
    8.3235    9.2791   21.7461 O   0  0  0  0  0  0  0  0  0  0  0  0
    7.6162    8.5636   20.8015 C   0  0  0  0  0  0  0  0  0  0  0  0
    8.0680    7.1026   20.8514 C   0  0  0  0  0  0  0  0  0  0  0  0
 37 38  1  0  0  0
 38 27  1  0  0  0
 27 28  2  0  0  0
 28 29  1  0  0  0
 29 30  2  0  0  0
 30 26  1  0  0  0
 26  1  1  0  0  0
  1  2  2  0  0  0
  2  3  1  0  0  0
  3  4  2  0  0  0
  4  8  1  0  0  0
  8  9  1  0  0  0
  9 10  2  0  0  0
  9 12  1  0  0  0
 12 13  1  0  0  0
 13 14  1  0  0  0
 12 15  1  0  0  0
 15 16  2  0  0  0
 15 17  1  0  0  0
 17 19  1  0  0  0
 19 20  2  0  0  0
 20 21  1  0  0  0
 21 22  2  0  0  0
 22 23  1  0  0  0
 22 24  1  0  0  0
 24 25  2  0  0  0
  4  5  1  0  0  0
  5  6  2  0  0  0
  6  7  1  0  0  0
 30 31  1  0  0  0
 31 32  2  0  0  0
 32 33  1  0  0  0
 33 34  2  0  0  0
 34 35  1  0  0  0
 35 36  2  0  0  0
 36 39  1  0  0  0
 39 40  1  0  0  0
 40 41  1  0  0  0
 41 42  1  0  0  0
 42 43  1  0  0  0
 43 44  1  0  0  0
 44 45  1  0  0  0
 45 46  1  0  0  0
 46 47  1  0  0  0
 47 48  1  0  0  0
 36 27  1  0  0  0
 48 43  1  0  0  0
 34 29  1  0  0  0
  6  1  1  0  0  0
 14 12  1  0  0  0
 25 19  1  0  0  0
  8 11  1  0  0  0
 17 18  1  0  0  0
M  END
> <minimizedAffinity>
-8.60784

> <CNNscore>
0.1905375421

> <CNNaffinity>
6.6308922768

> <CNN_VS>
1.2634339333

> <CNNaffinity_variance>
0.2660098672

$$$$
[H]c1nc2c([H])c(OC([H])([H])C([H])([H])C([H])([H])N3C([H])([H])C([H])([H])OC([H])([H])C3([H])[H])c(OC([H])([H])[H])c([H])c2c(Oc2c([H])c([H])c(N([H])C(=O)C3(C(=O)N([H])c4c([H])c([H])c(F)c([H])c4[H])C([H])([H])C3([H])[H])c([H])c2F)c1[H]


 48 53  0  0  0  0  0  0  0  0999 V2000
    4.1611    1.5399   17.7815 C   0  0  0  0  0  0  0  0  0  0  0  0
    4.4810    2.6663   17.0395 C   0  0  0  0  0  0  0  0  0  0  0  0
    3.8590    2.9373   15.8185 C   0  0  0  0  0  0  0  0  0  0  0  0
    2.8993    2.1104   15.2864 C   0  0  0  0  0  0  0  0  0  0  0  0
    2.5842    0.9894   16.0308 C   0  0  0  0  0  0  0  0  0  0  0  0
    3.2015    0.7065   17.2542 C   0  0  0  0  0  0  0  0  0  0  0  0
    2.8708   -0.4266   17.9399 F   0  0  0  0  0  0  0  0  0  0  0  0
    2.2653    2.3641   14.0344 N   0  0  0  0  0  0  0  0  0  0  0  0
    2.8107    3.1327   12.9836 C   0  0  0  0  0  0  0  0  0  0  0  0
    3.9100    3.7148   13.0543 O   0  0  0  0  0  0  0  0  0  0  0  0
    1.3161    1.9413   13.8737 H   0  0  0  0  0  0  0  0  0  0  0  0
    2.0154    3.2211   11.6976 C   0  0  0  0  0  0  0  0  0  0  0  0
    1.3886    4.5797   11.4266 C   0  0  0  0  0  0  0  0  0  0  0  0
    0.5500    3.4456   11.9873 C   0  0  0  0  0  0  0  0  0  0  0  0
    2.3937    2.3254   10.5961 C   0  0  0  0  0  0  0  0  0  0  0  0
    3.5241    2.5739   10.0049 O   0  0  0  0  0  0  0  0  0  0  0  0
    1.6553    1.2387   10.1079 N   0  0  0  0  0  0  0  0  0  0  0  0
    0.6932    1.0424   10.5227 H   0  0  0  0  0  0  0  0  0  0  0  0
    2.0927    0.3795    9.0453 C   0  0  0  0  0  0  0  0  0  0  0  0
    2.8545   -0.7064    9.3226 C   0  0  0  0  0  0  0  0  0  0  0  0
    3.3201   -1.5082    8.3014 C   0  0  0  0  0  0  0  0  0  0  0  0
    2.9962   -1.1849    6.9856 C   0  0  0  0  0  0  0  0  0  0  0  0
    3.4184   -1.9372    5.9309 F   0  0  0  0  0  0  0  0  0  0  0  0
    2.2141   -0.0723    6.6873 C   0  0  0  0  0  0  0  0  0  0  0  0
    1.7796    0.6869    7.7370 C   0  0  0  0  0  0  0  0  0  0  0  0
    4.8190    1.3166   18.9946 O   0  0  0  0  0  0  0  0  0  0  0  0
    5.7306    5.1472   20.1193 C   0  0  0  0  0  0  0  0  0  0  0  0
    5.4143    3.8544   19.7613 C   0  0  0  0  0  0  0  0  0  0  0  0
    4.6766    3.0391   20.6312 C   0  0  0  0  0  0  0  0  0  0  0  0
    4.3696    1.7306   20.2347 C   0  0  0  0  0  0  0  0  0  0  0  0
    3.6485    0.9335   21.0779 C   0  0  0  0  0  0  0  0  0  0  0  0
    3.2451    1.4534   22.3079 C   0  0  0  0  0  0  0  0  0  0  0  0
    3.5553    2.7158   22.6605 N   0  0  0  0  0  0  0  0  0  0  0  0
    4.2559    3.5100   21.8521 C   0  0  0  0  0  0  0  0  0  0  0  0
    4.5660    4.7981   22.2219 C   0  0  0  0  0  0  0  0  0  0  0  0
    5.2844    5.5897   21.3739 C   0  0  0  0  0  0  0  0  0  0  0  0
    6.1554    6.2061   17.9645 C   0  0  0  0  0  0  0  0  0  0  0  0
    6.4454    5.9883   19.3083 O   0  0  0  0  0  0  0  0  0  0  0  0
    5.5781    6.8594   21.7776 O   0  0  0  0  0  0  0  0  0  0  0  0
    4.8051    7.9926   21.4370 C   0  0  0  0  0  0  0  0  0  0  0  0
    5.5852    9.2722   21.5848 C   0  0  0  0  0  0  0  0  0  0  0  0
    5.2262   10.1932   20.4596 C   0  0  0  0  0  0  0  0  0  0  0  0
    6.3808   10.7822   19.8058 N   0  0  0  0  0  0  0  0  0  0  0  0
    5.8131   11.8113   18.9042 C   0  0  0  0  0  0  0  0  0  0  0  0
    6.8163   12.3516   17.9425 C   0  0  0  0  0  0  0  0  0  0  0  0
    7.7058   11.3793   17.4499 O   0  0  0  0  0  0  0  0  0  0  0  0
    7.0663   10.1583   17.5196 C   0  0  0  0  0  0  0  0  0  0  0  0
    6.9877    9.7273   18.9857 C   0  0  0  0  0  0  0  0  0  0  0  0
 37 38  1  0  0  0
 38 27  1  0  0  0
 27 28  2  0  0  0
 28 29  1  0  0  0
 29 30  2  0  0  0
 30 26  1  0  0  0
 26  1  1  0  0  0
  1  2  2  0  0  0
  2  3  1  0  0  0
  3  4  2  0  0  0
  4  8  1  0  0  0
  8  9  1  0  0  0
  9 10  2  0  0  0
  9 12  1  0  0  0
 12 13  1  0  0  0
 13 14  1  0  0  0
 12 15  1  0  0  0
 15 16  2  0  0  0
 15 17  1  0  0  0
 17 19  1  0  0  0
 19 20  2  0  0  0
 20 21  1  0  0  0
 21 22  2  0  0  0
 22 23  1  0  0  0
 22 24  1  0  0  0
 24 25  2  0  0  0
  4  5  1  0  0  0
  5  6  2  0  0  0
  6  7  1  0  0  0
 30 31  1  0  0  0
 31 32  2  0  0  0
 32 33  1  0  0  0
 33 34  2  0  0  0
 34 35  1  0  0  0
 35 36  2  0  0  0
 36 39  1  0  0  0
 39 40  1  0  0  0
 40 41  1  0  0  0
 41 42  1  0  0  0
 42 43  1  0  0  0
 43 44  1  0  0  0
 44 45  1  0  0  0
 45 46  1  0  0  0
 46 47  1  0  0  0
 47 48  1  0  0  0
 36 27  1  0  0  0
 48 43  1  0  0  0
 34 29  1  0  0  0
  6  1  1  0  0  0
 14 12  1  0  0  0
 25 19  1  0  0  0
  8 11  1  0  0  0
 17 18  1  0  0  0
M  END
> <minimizedAffinity>
-8.34323

> <CNNscore>
0.1904525310

> <CNNaffinity>
6.7954397202

> <CNN_VS>
1.2942086458

> <CNNaffinity_variance>
0.2420178652

$$$$
[H]c1nc2c([H])c(OC([H])([H])C([H])([H])C([H])([H])N3C([H])([H])C([H])([H])OC([H])([H])C3([H])[H])c(OC([H])([H])[H])c([H])c2c(Oc2c([H])c([H])c(N([H])C(=O)C3(C(=O)N([H])c4c([H])c([H])c(F)c([H])c4[H])C([H])([H])C3([H])[H])c([H])c2F)c1[H]


 48 53  0  0  0  0  0  0  0  0999 V2000
    4.2773    1.7863   17.4663 C   0  0  0  0  0  0  0  0  0  0  0  0
    4.5991    2.9404   16.7689 C   0  0  0  0  0  0  0  0  0  0  0  0
    3.9613    3.2714   15.5711 C   0  0  0  0  0  0  0  0  0  0  0  0
    2.9835    2.4795   15.0191 C   0  0  0  0  0  0  0  0  0  0  0  0
    2.6668    1.3307   15.7190 C   0  0  0  0  0  0  0  0  0  0  0  0
    3.2997    0.9877   16.9188 C   0  0  0  0  0  0  0  0  0  0  0  0
    2.9662   -0.1705   17.5597 F   0  0  0  0  0  0  0  0  0  0  0  0
    2.3331    2.7948   13.7898 N   0  0  0  0  0  0  0  0  0  0  0  0
    1.6049    3.9759   13.5305 C   0  0  0  0  0  0  0  0  0  0  0  0
    1.4169    4.8696   14.3779 O   0  0  0  0  0  0  0  0  0  0  0  0
    2.4036    2.0961   13.0073 H   0  0  0  0  0  0  0  0  0  0  0  0
    1.0525    4.1629   12.1326 C   0  0  0  0  0  0  0  0  0  0  0  0
    1.0395    5.6008   11.6382 C   0  0  0  0  0  0  0  0  0  0  0  0
   -0.2311    4.9586   12.1648 C   0  0  0  0  0  0  0  0  0  0  0  0
    1.1686    3.0378   11.1948 C   0  0  0  0  0  0  0  0  0  0  0  0
    2.3725    2.6468   10.8998 O   0  0  0  0  0  0  0  0  0  0  0  0
    0.1158    2.3512   10.5746 N   0  0  0  0  0  0  0  0  0  0  0  0
   -0.8834    2.6839   10.7397 H   0  0  0  0  0  0  0  0  0  0  0  0
    0.2918    1.2370    9.6880 C   0  0  0  0  0  0  0  0  0  0  0  0
    0.3292   -0.0236   10.1840 C   0  0  0  0  0  0  0  0  0  0  0  0
    0.5483   -1.0952    9.3435 C   0  0  0  0  0  0  0  0  0  0  0  0
    0.7301   -0.8617    7.9822 C   0  0  0  0  0  0  0  0  0  0  0  0
    0.9448   -1.8748    7.0968 F   0  0  0  0  0  0  0  0  0  0  0  0
    0.6936    0.4285    7.4600 C   0  0  0  0  0  0  0  0  0  0  0  0
    0.4731    1.4527    8.3372 C   0  0  0  0  0  0  0  0  0  0  0  0
    4.9514    1.5028   18.6577 O   0  0  0  0  0  0  0  0  0  0  0  0
    5.7837    5.2021   20.2044 C   0  0  0  0  0  0  0  0  0  0  0  0
    5.4938    3.9512   19.7036 C   0  0  0  0  0  0  0  0  0  0  0  0
    4.7565    3.0358   20.4681 C   0  0  0  0  0  0  0  0  0  0  0  0
    4.4769    1.7736   19.9276 C   0  0  0  0  0  0  0  0  0  0  0  0
    3.7563    0.8795   20.6676 C   0  0  0  0  0  0  0  0  0  0  0  0
    3.3261    1.2574   21.9397 C   0  0  0  0  0  0  0  0  0  0  0  0
    3.6104    2.4785   22.4316 N   0  0  0  0  0  0  0  0  0  0  0  0
    4.3100    3.3657   21.7255 C   0  0  0  0  0  0  0  0  0  0  0  0
    4.5935    4.6106   22.2373 C   0  0  0  0  0  0  0  0  0  0  0  0
    5.3116    5.4997   21.4918 C   0  0  0  0  0  0  0  0  0  0  0  0
    6.1416    6.5956   18.2359 C   0  0  0  0  0  0  0  0  0  0  0  0
    6.4968    6.1363   19.5009 O   0  0  0  0  0  0  0  0  0  0  0  0
    5.5785    6.7224   22.0350 O   0  0  0  0  0  0  0  0  0  0  0  0
    4.8686    7.9005   21.7098 C   0  0  0  0  0  0  0  0  0  0  0  0
    5.7074    9.1359   21.9046 C   0  0  0  0  0  0  0  0  0  0  0  0
    7.1296    8.7266   22.1348 C   0  0  0  0  0  0  0  0  0  0  0  0
    7.7269    9.3487   23.3025 N   0  0  0  0  0  0  0  0  0  0  0  0
    9.1829    9.3297   23.0305 C   0  0  0  0  0  0  0  0  0  0  0  0
    9.9975    9.6835   24.2282 C   0  0  0  0  0  0  0  0  0  0  0  0
    9.4865    9.1635   25.4315 O   0  0  0  0  0  0  0  0  0  0  0  0
    8.7566    8.0348   25.1189 C   0  0  0  0  0  0  0  0  0  0  0  0
    7.4537    8.4637   24.4410 C   0  0  0  0  0  0  0  0  0  0  0  0
 37 38  1  0  0  0
 38 27  1  0  0  0
 27 28  2  0  0  0
 28 29  1  0  0  0
 29 30  2  0  0  0
 30 26  1  0  0  0
 26  1  1  0  0  0
  1  2  2  0  0  0
  2  3  1  0  0  0
  3  4  2  0  0  0
  4  8  1  0  0  0
  8  9  1  0  0  0
  9 10  2  0  0  0
  9 12  1  0  0  0
 12 13  1  0  0  0
 13 14  1  0  0  0
 12 15  1  0  0  0
 15 16  2  0  0  0
 15 17  1  0  0  0
 17 19  1  0  0  0
 19 20  2  0  0  0
 20 21  1  0  0  0
 21 22  2  0  0  0
 22 23  1  0  0  0
 22 24  1  0  0  0
 24 25  2  0  0  0
  4  5  1  0  0  0
  5  6  2  0  0  0
  6  7  1  0  0  0
 30 31  1  0  0  0
 31 32  2  0  0  0
 32 33  1  0  0  0
 33 34  2  0  0  0
 34 35  1  0  0  0
 35 36  2  0  0  0
 36 39  1  0  0  0
 39 40  1  0  0  0
 40 41  1  0  0  0
 41 42  1  0  0  0
 42 43  1  0  0  0
 43 44  1  0  0  0
 44 45  1  0  0  0
 45 46  1  0  0  0
 46 47  1  0  0  0
 47 48  1  0  0  0
 36 27  1  0  0  0
 48 43  1  0  0  0
 34 29  1  0  0  0
  6  1  1  0  0  0
 14 12  1  0  0  0
 25 19  1  0  0  0
  8 11  1  0  0  0
 17 18  1  0  0  0
M  END
> <minimizedAffinity>
-8.46895

> <CNNscore>
0.1901899576

> <CNNaffinity>
6.8758468628

> <CNN_VS>
1.3077169657

> <CNNaffinity_variance>
0.2112971246

$$$$
[H]c1nc2c([H])c(OC([H])([H])C([H])([H])C([H])([H])N3C([H])([H])C([H])([H])OC([H])([H])C3([H])[H])c(OC([H])([H])[H])c([H])c2c(Oc2c([H])c([H])c(N([H])C(=O)C3(C(=O)N([H])c4c([H])c([H])c(F)c([H])c4[H])C([H])([H])C3([H])[H])c([H])c2F)c1[H]


 48 53  0  0  0  0  0  0  0  0999 V2000
    3.9935    2.6453   16.2041 C   0  0  0  0  0  0  0  0  0  0  0  0
    3.7204    3.8487   15.5723 C   0  0  0  0  0  0  0  0  0  0  0  0
    2.8040    3.9300   14.5212 C   0  0  0  0  0  0  0  0  0  0  0  0
    2.1233    2.8306   14.0567 C   0  0  0  0  0  0  0  0  0  0  0  0
    2.3994    1.6340   14.6907 C   0  0  0  0  0  0  0  0  0  0  0  0
    3.3163    1.5397   15.7434 C   0  0  0  0  0  0  0  0  0  0  0  0
    3.5704    0.3293   16.3211 F   0  0  0  0  0  0  0  0  0  0  0  0
    1.1960    2.8931   12.9751 N   0  0  0  0  0  0  0  0  0  0  0  0
    1.5204    3.2099   11.6384 C   0  0  0  0  0  0  0  0  0  0  0  0
    2.6687    3.5122   11.2611 O   0  0  0  0  0  0  0  0  0  0  0  0
    0.1876    2.6810   13.1841 H   0  0  0  0  0  0  0  0  0  0  0  0
    0.4051    3.1473   10.6156 C   0  0  0  0  0  0  0  0  0  0  0  0
    0.3198    1.8403    9.8431 C   0  0  0  0  0  0  0  0  0  0  0  0
    0.9653    3.0621    9.2153 C   0  0  0  0  0  0  0  0  0  0  0  0
   -0.7898    3.9679   10.8549 C   0  0  0  0  0  0  0  0  0  0  0  0
   -0.7077    4.8547   11.8015 O   0  0  0  0  0  0  0  0  0  0  0  0
   -2.0139    3.8844   10.1772 N   0  0  0  0  0  0  0  0  0  0  0  0
   -2.1426    3.1262    9.4391 H   0  0  0  0  0  0  0  0  0  0  0  0
   -3.1386    4.7366   10.4367 C   0  0  0  0  0  0  0  0  0  0  0  0
   -3.6662    4.8007   11.6833 C   0  0  0  0  0  0  0  0  0  0  0  0
   -4.7781    5.5792   11.9284 C   0  0  0  0  0  0  0  0  0  0  0  0
   -5.3479    6.2954   10.8782 C   0  0  0  0  0  0  0  0  0  0  0  0
   -6.4428    7.0875   11.0528 F   0  0  0  0  0  0  0  0  0  0  0  0
   -4.8153    6.2385    9.5930 C   0  0  0  0  0  0  0  0  0  0  0  0
   -3.7136    5.4520    9.4064 C   0  0  0  0  0  0  0  0  0  0  0  0
    4.9234    2.6222   17.2476 O   0  0  0  0  0  0  0  0  0  0  0  0
    5.6711    5.9187   19.5591 C   0  0  0  0  0  0  0  0  0  0  0  0
    5.4131    4.7978   18.7999 C   0  0  0  0  0  0  0  0  0  0  0  0
    4.8660    3.6513   19.3931 C   0  0  0  0  0  0  0  0  0  0  0  0
    4.6133    2.5300   18.5917 C   0  0  0  0  0  0  0  0  0  0  0  0
    4.0775    1.4116   19.1648 C   0  0  0  0  0  0  0  0  0  0  0  0
    3.8030    1.4272   20.5324 C   0  0  0  0  0  0  0  0  0  0  0  0
    4.0566    2.5209   21.2764 N   0  0  0  0  0  0  0  0  0  0  0  0
    4.5771    3.6221   20.7366 C   0  0  0  0  0  0  0  0  0  0  0  0
    4.8309    4.7340   21.5057 C   0  0  0  0  0  0  0  0  0  0  0  0
    5.3638    5.8486   20.9264 C   0  0  0  0  0  0  0  0  0  0  0  0
    7.5627    7.2703   18.8238 C   0  0  0  0  0  0  0  0  0  0  0  0
    6.2016    7.0664   19.0321 O   0  0  0  0  0  0  0  0  0  0  0  0
    5.6075    6.9296   21.7222 O   0  0  0  0  0  0  0  0  0  0  0  0
    6.6740    7.0024   22.6468 C   0  0  0  0  0  0  0  0  0  0  0  0
    7.3869    8.3272   22.5819 C   0  0  0  0  0  0  0  0  0  0  0  0
    6.4054    9.4220   22.8672 C   0  0  0  0  0  0  0  0  0  0  0  0
    7.0172   10.6134   23.4272 N   0  0  0  0  0  0  0  0  0  0  0  0
    7.1222   11.5500   22.2845 C   0  0  0  0  0  0  0  0  0  0  0  0
    7.9688   12.7388   22.5897 C   0  0  0  0  0  0  0  0  0  0  0  0
    9.0955   12.4414   23.3782 O   0  0  0  0  0  0  0  0  0  0  0  0
    9.4173   11.1173   23.1593 C   0  0  0  0  0  0  0  0  0  0  0  0
    8.3721   10.2369   23.8474 C   0  0  0  0  0  0  0  0  0  0  0  0
 37 38  1  0  0  0
 38 27  1  0  0  0
 27 28  2  0  0  0
 28 29  1  0  0  0
 29 30  2  0  0  0
 30 26  1  0  0  0
 26  1  1  0  0  0
  1  2  2  0  0  0
  2  3  1  0  0  0
  3  4  2  0  0  0
  4  8  1  0  0  0
  8  9  1  0  0  0
  9 10  2  0  0  0
  9 12  1  0  0  0
 12 13  1  0  0  0
 13 14  1  0  0  0
 12 15  1  0  0  0
 15 16  2  0  0  0
 15 17  1  0  0  0
 17 19  1  0  0  0
 19 20  2  0  0  0
 20 21  1  0  0  0
 21 22  2  0  0  0
 22 23  1  0  0  0
 22 24  1  0  0  0
 24 25  2  0  0  0
  4  5  1  0  0  0
  5  6  2  0  0  0
  6  7  1  0  0  0
 30 31  1  0  0  0
 31 32  2  0  0  0
 32 33  1  0  0  0
 33 34  2  0  0  0
 34 35  1  0  0  0
 35 36  2  0  0  0
 36 39  1  0  0  0
 39 40  1  0  0  0
 40 41  1  0  0  0
 41 42  1  0  0  0
 42 43  1  0  0  0
 43 44  1  0  0  0
 44 45  1  0  0  0
 45 46  1  0  0  0
 46 47  1  0  0  0
 47 48  1  0  0  0
 36 27  1  0  0  0
 48 43  1  0  0  0
 34 29  1  0  0  0
  6  1  1  0  0  0
 14 12  1  0  0  0
 25 19  1  0  0  0
  8 11  1  0  0  0
 17 18  1  0  0  0
M  END
> <minimizedAffinity>
-8.93897

> <CNNscore>
0.1764133573

> <CNNaffinity>
6.5443596840

> <CNN_VS>
1.1545124054

> <CNNaffinity_variance>
0.2832642198

$$$$
[H]c1nc2c([H])c([H])c([H])c([H])n2c1C(=O)N([H])c1c([H])c(N([H])C(=O)c2c([H])c([H])c(C([H])([H])N3C([H])([H])C([H])([H])N(C([H])([H])[H])C([H])([H])C3([H])[H])c(C(F)(F)F)c2[H])c([H])c([H])c1C([H])([H])[H]


 42 46  0  0  0  0  0  0  0  0999 V2000
    3.4665    2.6643   14.9227 C   0  0  0  0  0  0  0  0  0  0  0  0
    2.9300    1.5415   14.8840 O   0  0  0  0  0  0  0  0  0  0  0  0
    3.5098    3.4954   13.7977 N   0  0  0  0  0  0  0  0  0  0  0  0
    3.9935    4.4390   13.9557 H   0  0  0  0  0  0  0  0  0  0  0  0
    2.9850    3.1821   12.5248 C   0  0  0  0  0  0  0  0  0  0  0  0
    2.3781    2.0160   12.1722 C   0  0  0  0  0  0  0  0  0  0  0  0
    1.8776    1.8376   10.9029 C   0  0  0  0  0  0  0  0  0  0  0  0
    1.9751    2.8283    9.9546 C   0  0  0  0  0  0  0  0  0  0  0  0
    1.4367    2.6342    8.5902 C   0  0  0  0  0  0  0  0  0  0  0  0
    2.5887    4.0372   10.2718 C   0  0  0  0  0  0  0  0  0  0  0  0
    3.0808    4.1895   11.5496 C   0  0  0  0  0  0  0  0  0  0  0  0
    2.6588    5.0134    9.2797 N   0  0  0  0  0  0  0  0  0  0  0  0
    1.9779    6.2332    9.1601 C   0  0  0  0  0  0  0  0  0  0  0  0
    1.1587    6.6098   10.0154 O   0  0  0  0  0  0  0  0  0  0  0  0
    3.3375    4.8236    8.4628 H   0  0  0  0  0  0  0  0  0  0  0  0
    2.2114    7.1230    8.0014 C   0  0  0  0  0  0  0  0  0  0  0  0
    1.3480    7.2405    6.9324 C   0  0  0  0  0  0  0  0  0  0  0  0
    1.8732    8.1296    6.0852 N   0  0  0  0  0  0  0  0  0  0  0  0
    3.0335    8.5712    6.5868 C   0  0  0  0  0  0  0  0  0  0  0  0
    3.9557    9.4930    6.0965 C   0  0  0  0  0  0  0  0  0  0  0  0
    5.0909    9.7786    6.8166 C   0  0  0  0  0  0  0  0  0  0  0  0
    5.2660    9.1223    8.0188 C   0  0  0  0  0  0  0  0  0  0  0  0
    4.3416    8.2134    8.4866 C   0  0  0  0  0  0  0  0  0  0  0  0
    3.2364    7.9412    7.7766 N   0  0  0  0  0  0  0  0  0  0  0  0
    5.1137    3.7163   18.7549 C   0  0  0  0  0  0  0  0  0  0  0  0
    5.2119    4.5586   17.6665 C   0  0  0  0  0  0  0  0  0  0  0  0
    4.6895    4.2464   16.4048 C   0  0  0  0  0  0  0  0  0  0  0  0
    4.0446    3.0529   16.2172 C   0  0  0  0  0  0  0  0  0  0  0  0
    3.9414    2.2150   17.2844 C   0  0  0  0  0  0  0  0  0  0  0  0
    4.4594    2.5127   18.5540 C   0  0  0  0  0  0  0  0  0  0  0  0
    4.3141    1.5526   19.6469 C   0  0  0  0  0  0  0  0  0  0  0  0
    3.5593    0.4400   19.3641 F   0  0  0  0  0  0  0  0  0  0  0  0
    5.5311    1.2093   20.2238 F   0  0  0  0  0  0  0  0  0  0  0  0
    3.6167    2.1865   20.6895 F   0  0  0  0  0  0  0  0  0  0  0  0
    5.6246    4.0778   20.0805 C   0  0  0  0  0  0  0  0  0  0  0  0
    7.8268    7.1522   22.6496 C   0  0  0  0  0  0  0  0  0  0  0  0
    7.2576    6.1555   21.8106 N   0  0  0  0  0  0  0  0  0  0  0  0
    6.6441    5.0502   22.4647 C   0  0  0  0  0  0  0  0  0  0  0  0
    5.1936    4.8944   22.2607 C   0  0  0  0  0  0  0  0  0  0  0  0
    4.8420    5.0088   20.8307 N   0  0  0  0  0  0  0  0  0  0  0  0
    5.1558    6.4143   20.5565 C   0  0  0  0  0  0  0  0  0  0  0  0
    6.6270    6.5925   20.6175 C   0  0  0  0  0  0  0  0  0  0  0  0
 36 37  1  0  0  0
 37 38  1  0  0  0
 38 39  1  0  0  0
 39 40  1  0  0  0
 40 35  1  0  0  0
 35 25  1  0  0  0
 25 26  2  0  0  0
 26 27  1  0  0  0
 27 28  2  0  0  0
 28 29  1  0  0  0
 29 30  2  0  0  0
 30 31  1  0  0  0
 31 32  1  0  0  0
 31 33  1  0  0  0
 31 34  1  0  0  0
 28  1  1  0  0  0
  1  2  2  0  0  0
  1  3  1  0  0  0
  3  5  1  0  0  0
  5  6  2  0  0  0
  6  7  1  0  0  0
  7  8  2  0  0  0
  8  9  1  0  0  0
  8 10  1  0  0  0
 10 12  1  0  0  0
 12 13  1  0  0  0
 13 14  2  0  0  0
 13 16  1  0  0  0
 16 17  2  0  0  0
 17 18  1  0  0  0
 18 19  2  0  0  0
 19 20  1  0  0  0
 20 21  2  0  0  0
 21 22  1  0  0  0
 22 23  2  0  0  0
 23 24  1  0  0  0
 10 11  2  0  0  0
 40 41  1  0  0  0
 41 42  1  0  0  0
 42 37  1  0  0  0
 30 25  1  0  0  0
 11  5  1  0  0  0
 24 16  1  0  0  0
 24 19  1  0  0  0
  3  4  1  0  0  0
 12 15  1  0  0  0
M  END
> <minimizedAffinity>
-8.60074

> <CNNscore>
0.1959782243

> <CNNaffinity>
6.2726745605

> <CNN_VS>
1.2293076515

> <CNNaffinity_variance>
0.2725442648

$$$$
[H]c1nc2c([H])c([H])c([H])c([H])n2c1C(=O)N([H])c1c([H])c(N([H])C(=O)c2c([H])c([H])c(C([H])([H])N3C([H])([H])C([H])([H])N(C([H])([H])[H])C([H])([H])C3([H])[H])c(C(F)(F)F)c2[H])c([H])c([H])c1C([H])([H])[H]


 42 46  0  0  0  0  0  0  0  0999 V2000
    2.1953    5.1531   15.2508 C   0  0  0  0  0  0  0  0  0  0  0  0
    2.2074    4.0245   14.7251 O   0  0  0  0  0  0  0  0  0  0  0  0
    1.4093    6.1917   14.7394 N   0  0  0  0  0  0  0  0  0  0  0  0
    1.4790    7.1148   15.2801 H   0  0  0  0  0  0  0  0  0  0  0  0
    0.5721    6.1059   13.6056 C   0  0  0  0  0  0  0  0  0  0  0  0
   -0.6791    5.5714   13.5709 C   0  0  0  0  0  0  0  0  0  0  0  0
   -1.4136    5.5716   12.4073 C   0  0  0  0  0  0  0  0  0  0  0  0
   -0.9079    6.1095   11.2474 C   0  0  0  0  0  0  0  0  0  0  0  0
   -1.6993    6.1082    9.9973 C   0  0  0  0  0  0  0  0  0  0  0  0
    0.3681    6.6665   11.2373 C   0  0  0  0  0  0  0  0  0  0  0  0
    1.0818    6.6535   12.4158 C   0  0  0  0  0  0  0  0  0  0  0  0
    0.8356    7.2047   10.0399 N   0  0  0  0  0  0  0  0  0  0  0  0
    1.6714    6.6471    9.0620 C   0  0  0  0  0  0  0  0  0  0  0  0
    2.1272    5.4962    9.1721 O   0  0  0  0  0  0  0  0  0  0  0  0
    0.5181    8.2088    9.8054 H   0  0  0  0  0  0  0  0  0  0  0  0
    2.0449    7.4154    7.8541 C   0  0  0  0  0  0  0  0  0  0  0  0
    1.2618    7.5022    6.7221 C   0  0  0  0  0  0  0  0  0  0  0  0
    1.9059    8.2757    5.8441 N   0  0  0  0  0  0  0  0  0  0  0  0
    3.0630    8.6748    6.3871 C   0  0  0  0  0  0  0  0  0  0  0  0
    4.0822    9.4831    5.8887 C   0  0  0  0  0  0  0  0  0  0  0  0
    5.1885    9.7476    6.6600 C   0  0  0  0  0  0  0  0  0  0  0  0
    5.2370    9.1860    7.9204 C   0  0  0  0  0  0  0  0  0  0  0  0
    4.2179    8.3887    8.3953 C   0  0  0  0  0  0  0  0  0  0  0  0
    3.1418    8.1362    7.6351 N   0  0  0  0  0  0  0  0  0  0  0  0
    4.6823    5.5366   18.7399 C   0  0  0  0  0  0  0  0  0  0  0  0
    4.4358    6.6055   17.9030 C   0  0  0  0  0  0  0  0  0  0  0  0
    3.6337    6.5149   16.7582 C   0  0  0  0  0  0  0  0  0  0  0  0
    3.0538    5.3176   16.4327 C   0  0  0  0  0  0  0  0  0  0  0  0
    3.2897    4.2570   17.2519 C   0  0  0  0  0  0  0  0  0  0  0  0
    4.0907    4.3312   18.4016 C   0  0  0  0  0  0  0  0  0  0  0  0
    4.3017    3.1413   19.2243 C   0  0  0  0  0  0  0  0  0  0  0  0
    3.7617    1.9768   18.7345 F   0  0  0  0  0  0  0  0  0  0  0  0
    5.6320    2.9717   19.5898 F   0  0  0  0  0  0  0  0  0  0  0  0
    3.6411    3.3395   20.4488 F   0  0  0  0  0  0  0  0  0  0  0  0
    5.4859    5.6590   19.9598 C   0  0  0  0  0  0  0  0  0  0  0  0
    8.0778    7.4444   23.2758 C   0  0  0  0  0  0  0  0  0  0  0  0
    7.3807    6.8680   22.1790 N   0  0  0  0  0  0  0  0  0  0  0  0
    6.7878    5.5936   22.4032 C   0  0  0  0  0  0  0  0  0  0  0  0
    5.3185    5.5336   22.3182 C   0  0  0  0  0  0  0  0  0  0  0  0
    4.8276    6.2118   21.1014 N   0  0  0  0  0  0  0  0  0  0  0  0
    5.1754    7.6092   21.3762 C   0  0  0  0  0  0  0  0  0  0  0  0
    6.6517    7.7469   21.3376 C   0  0  0  0  0  0  0  0  0  0  0  0
 36 37  1  0  0  0
 37 38  1  0  0  0
 38 39  1  0  0  0
 39 40  1  0  0  0
 40 35  1  0  0  0
 35 25  1  0  0  0
 25 26  2  0  0  0
 26 27  1  0  0  0
 27 28  2  0  0  0
 28 29  1  0  0  0
 29 30  2  0  0  0
 30 31  1  0  0  0
 31 32  1  0  0  0
 31 33  1  0  0  0
 31 34  1  0  0  0
 28  1  1  0  0  0
  1  2  2  0  0  0
  1  3  1  0  0  0
  3  5  1  0  0  0
  5  6  2  0  0  0
  6  7  1  0  0  0
  7  8  2  0  0  0
  8  9  1  0  0  0
  8 10  1  0  0  0
 10 12  1  0  0  0
 12 13  1  0  0  0
 13 14  2  0  0  0
 13 16  1  0  0  0
 16 17  2  0  0  0
 17 18  1  0  0  0
 18 19  2  0  0  0
 19 20  1  0  0  0
 20 21  2  0  0  0
 21 22  1  0  0  0
 22 23  2  0  0  0
 23 24  1  0  0  0
 10 11  2  0  0  0
 40 41  1  0  0  0
 41 42  1  0  0  0
 42 37  1  0  0  0
 30 25  1  0  0  0
 11  5  1  0  0  0
 24 16  1  0  0  0
 24 19  1  0  0  0
  3  4  1  0  0  0
 12 15  1  0  0  0
M  END
> <minimizedAffinity>
-8.24796

> <CNNscore>
0.1855588108

> <CNNaffinity>
5.9736003876

> <CNN_VS>
1.1084542274

> <CNNaffinity_variance>
0.3055923581

$$$$
[H]c1nc2c([H])c([H])c([H])c([H])n2c1C(=O)N([H])c1c([H])c(N([H])C(=O)c2c([H])c([H])c(C([H])([H])N3C([H])([H])C([H])([H])N(C([H])([H])[H])C([H])([H])C3([H])[H])c(C(F)(F)F)c2[H])c([H])c([H])c1C([H])([H])[H]


 42 46  0  0  0  0  0  0  0  0999 V2000
    3.3972    2.9481   14.2877 C   0  0  0  0  0  0  0  0  0  0  0  0
    2.8950    1.9637   13.7142 O   0  0  0  0  0  0  0  0  0  0  0  0
    3.6982    4.1258   13.5944 N   0  0  0  0  0  0  0  0  0  0  0  0
    4.1223    4.9047   14.1967 H   0  0  0  0  0  0  0  0  0  0  0  0
    3.4922    4.3414   12.2142 C   0  0  0  0  0  0  0  0  0  0  0  0
    2.3327    4.7501   11.6304 C   0  0  0  0  0  0  0  0  0  0  0  0
    2.2619    4.9553   10.2716 C   0  0  0  0  0  0  0  0  0  0  0  0
    3.3565    4.7542    9.4642 C   0  0  0  0  0  0  0  0  0  0  0  0
    3.2779    4.9750    8.0034 C   0  0  0  0  0  0  0  0  0  0  0  0
    4.5628    4.3356   10.0191 C   0  0  0  0  0  0  0  0  0  0  0  0
    4.6063    4.1379   11.3820 C   0  0  0  0  0  0  0  0  0  0  0  0
    5.6459    4.1506    9.1620 N   0  0  0  0  0  0  0  0  0  0  0  0
    6.2418    2.9693    8.6979 C   0  0  0  0  0  0  0  0  0  0  0  0
    5.8212    1.8498    9.0361 O   0  0  0  0  0  0  0  0  0  0  0  0
    6.1185    5.0429    8.7816 H   0  0  0  0  0  0  0  0  0  0  0  0
    7.4028    3.0133    7.7820 C   0  0  0  0  0  0  0  0  0  0  0  0
    8.6723    3.3945    8.1631 C   0  0  0  0  0  0  0  0  0  0  0  0
    9.4594    3.3090    7.0874 N   0  0  0  0  0  0  0  0  0  0  0  0
    8.7270    2.8882    6.0484 C   0  0  0  0  0  0  0  0  0  0  0  0
    9.0708    2.6401    4.7215 C   0  0  0  0  0  0  0  0  0  0  0  0
    8.1157    2.2056    3.8340 C   0  0  0  0  0  0  0  0  0  0  0  0
    6.8320    2.0322    4.3121 C   0  0  0  0  0  0  0  0  0  0  0  0
    6.5119    2.2832    5.6290 C   0  0  0  0  0  0  0  0  0  0  0  0
    7.4512    2.7071    6.4879 N   0  0  0  0  0  0  0  0  0  0  0  0
    4.1640    2.5871   18.5052 C   0  0  0  0  0  0  0  0  0  0  0  0
    3.8477    1.4916   17.7285 C   0  0  0  0  0  0  0  0  0  0  0  0
    3.5898    1.5739   16.3540 C   0  0  0  0  0  0  0  0  0  0  0  0
    3.6491    2.7902   15.7273 C   0  0  0  0  0  0  0  0  0  0  0  0
    3.9610    3.8772   16.4840 C   0  0  0  0  0  0  0  0  0  0  0  0
    4.2215    3.8116   17.8612 C   0  0  0  0  0  0  0  0  0  0  0  0
    4.5408    5.0295   18.6042 C   0  0  0  0  0  0  0  0  0  0  0  0
    3.5734    5.4632   19.4781 F   0  0  0  0  0  0  0  0  0  0  0  0
    5.7892    4.9741   19.2129 F   0  0  0  0  0  0  0  0  0  0  0  0
    4.6661    6.0801   17.6792 F   0  0  0  0  0  0  0  0  0  0  0  0
    4.4770    2.4776   19.9332 C   0  0  0  0  0  0  0  0  0  0  0  0
    5.5693    2.0013   24.3470 C   0  0  0  0  0  0  0  0  0  0  0  0
    5.2359    2.2769   22.9927 N   0  0  0  0  0  0  0  0  0  0  0  0
    6.2233    1.9571   22.0185 C   0  0  0  0  0  0  0  0  0  0  0  0
    5.8641    0.9128   21.0438 C   0  0  0  0  0  0  0  0  0  0  0  0
    4.5233    1.1555   20.4737 N   0  0  0  0  0  0  0  0  0  0  0  0
    3.6602    0.9545   21.6415 C   0  0  0  0  0  0  0  0  0  0  0  0
    3.8901    2.0644   22.5981 C   0  0  0  0  0  0  0  0  0  0  0  0
 36 37  1  0  0  0
 37 38  1  0  0  0
 38 39  1  0  0  0
 39 40  1  0  0  0
 40 35  1  0  0  0
 35 25  1  0  0  0
 25 26  2  0  0  0
 26 27  1  0  0  0
 27 28  2  0  0  0
 28 29  1  0  0  0
 29 30  2  0  0  0
 30 31  1  0  0  0
 31 32  1  0  0  0
 31 33  1  0  0  0
 31 34  1  0  0  0
 28  1  1  0  0  0
  1  2  2  0  0  0
  1  3  1  0  0  0
  3  5  1  0  0  0
  5  6  2  0  0  0
  6  7  1  0  0  0
  7  8  2  0  0  0
  8  9  1  0  0  0
  8 10  1  0  0  0
 10 12  1  0  0  0
 12 13  1  0  0  0
 13 14  2  0  0  0
 13 16  1  0  0  0
 16 17  2  0  0  0
 17 18  1  0  0  0
 18 19  2  0  0  0
 19 20  1  0  0  0
 20 21  2  0  0  0
 21 22  1  0  0  0
 22 23  2  0  0  0
 23 24  1  0  0  0
 10 11  2  0  0  0
 40 41  1  0  0  0
 41 42  1  0  0  0
 42 37  1  0  0  0
 30 25  1  0  0  0
 11  5  1  0  0  0
 24 16  1  0  0  0
 24 19  1  0  0  0
  3  4  1  0  0  0
 12 15  1  0  0  0
M  END
> <minimizedAffinity>
-7.99847

> <CNNscore>
0.1476962417

> <CNNaffinity>
5.9541864395

> <CNN_VS>
0.8794109821

> <CNNaffinity_variance>
0.3132571578

$$$$
[H]c1nc2c([H])c([H])c([H])c([H])n2c1C(=O)N([H])c1c([H])c(N([H])C(=O)c2c([H])c([H])c(C([H])([H])N3C([H])([H])C([H])([H])N(C([H])([H])[H])C([H])([H])C3([H])[H])c(C(F)(F)F)c2[H])c([H])c([H])c1C([H])([H])[H]


 42 46  0  0  0  0  0  0  0  0999 V2000
    2.5355    5.5139   16.5365 C   0  0  0  0  0  0  0  0  0  0  0  0
    1.7846    4.5968   16.9175 O   0  0  0  0  0  0  0  0  0  0  0  0
    2.3295    6.1721   15.3190 N   0  0  0  0  0  0  0  0  0  0  0  0
    3.0384    6.9467   15.1025 H   0  0  0  0  0  0  0  0  0  0  0  0
    1.2971    5.8904   14.3978 C   0  0  0  0  0  0  0  0  0  0  0  0
    0.1108    6.5497   14.2959 C   0  0  0  0  0  0  0  0  0  0  0  0
   -0.8090    6.2011   13.3337 C   0  0  0  0  0  0  0  0  0  0  0  0
   -0.5592    5.1792   12.4485 C   0  0  0  0  0  0  0  0  0  0  0  0
   -1.5498    4.8058   11.4150 C   0  0  0  0  0  0  0  0  0  0  0  0
    0.6413    4.4774   12.5169 C   0  0  0  0  0  0  0  0  0  0  0  0
    1.5446    4.8469   13.4894 C   0  0  0  0  0  0  0  0  0  0  0  0
    0.8520    3.4537   11.5950 N   0  0  0  0  0  0  0  0  0  0  0  0
    1.0925    2.0875   11.7985 C   0  0  0  0  0  0  0  0  0  0  0  0
    1.1462    1.5971   12.9392 O   0  0  0  0  0  0  0  0  0  0  0  0
    0.8318    3.7310   10.5526 H   0  0  0  0  0  0  0  0  0  0  0  0
    1.2936    1.1728   10.6532 C   0  0  0  0  0  0  0  0  0  0  0  0
    0.3347    0.2983   10.1865 C   0  0  0  0  0  0  0  0  0  0  0  0
    0.8585   -0.3585    9.1481 N   0  0  0  0  0  0  0  0  0  0  0  0
    2.1100    0.0743    8.9499 C   0  0  0  0  0  0  0  0  0  0  0  0
    3.0695   -0.2873    8.0069 C   0  0  0  0  0  0  0  0  0  0  0  0
    4.3031    0.3184    8.0150 C   0  0  0  0  0  0  0  0  0  0  0  0
    4.5368    1.2779    8.9800 C   0  0  0  0  0  0  0  0  0  0  0  0
    3.5740    1.6216    9.9045 C   0  0  0  0  0  0  0  0  0  0  0  0
    2.3726    1.0248    9.8887 N   0  0  0  0  0  0  0  0  0  0  0  0
    5.7202    6.4597   19.2695 C   0  0  0  0  0  0  0  0  0  0  0  0
    5.6830    6.9772   17.9910 C   0  0  0  0  0  0  0  0  0  0  0  0
    4.6630    6.6881   17.0754 C   0  0  0  0  0  0  0  0  0  0  0  0
    3.6411    5.8541   17.4437 C   0  0  0  0  0  0  0  0  0  0  0  0
    3.6676    5.3388   18.7028 C   0  0  0  0  0  0  0  0  0  0  0  0
    4.6818    5.6182   19.6313 C   0  0  0  0  0  0  0  0  0  0  0  0
    4.6410    5.0157   20.9627 C   0  0  0  0  0  0  0  0  0  0  0  0
    5.8200    4.4633   21.4014 F   0  0  0  0  0  0  0  0  0  0  0  0
    4.0888    5.8620   21.9171 F   0  0  0  0  0  0  0  0  0  0  0  0
    3.7473    3.9319   20.9197 F   0  0  0  0  0  0  0  0  0  0  0  0
    6.7698    6.8090   20.2315 C   0  0  0  0  0  0  0  0  0  0  0  0
    9.2269    7.8165   23.9529 C   0  0  0  0  0  0  0  0  0  0  0  0
    8.5040    7.3817   22.8085 N   0  0  0  0  0  0  0  0  0  0  0  0
    7.0863    7.3447   22.9300 C   0  0  0  0  0  0  0  0  0  0  0  0
    6.3323    8.2569   22.0531 C   0  0  0  0  0  0  0  0  0  0  0  0
    6.8118    8.1721   20.6586 N   0  0  0  0  0  0  0  0  0  0  0  0
    8.1654    8.7233   20.7732 C   0  0  0  0  0  0  0  0  0  0  0  0
    9.0033    7.7682   21.5384 C   0  0  0  0  0  0  0  0  0  0  0  0
 36 37  1  0  0  0
 37 38  1  0  0  0
 38 39  1  0  0  0
 39 40  1  0  0  0
 40 35  1  0  0  0
 35 25  1  0  0  0
 25 26  2  0  0  0
 26 27  1  0  0  0
 27 28  2  0  0  0
 28 29  1  0  0  0
 29 30  2  0  0  0
 30 31  1  0  0  0
 31 32  1  0  0  0
 31 33  1  0  0  0
 31 34  1  0  0  0
 28  1  1  0  0  0
  1  2  2  0  0  0
  1  3  1  0  0  0
  3  5  1  0  0  0
  5  6  2  0  0  0
  6  7  1  0  0  0
  7  8  2  0  0  0
  8  9  1  0  0  0
  8 10  1  0  0  0
 10 12  1  0  0  0
 12 13  1  0  0  0
 13 14  2  0  0  0
 13 16  1  0  0  0
 16 17  2  0  0  0
 17 18  1  0  0  0
 18 19  2  0  0  0
 19 20  1  0  0  0
 20 21  2  0  0  0
 21 22  1  0  0  0
 22 23  2  0  0  0
 23 24  1  0  0  0
 10 11  2  0  0  0
 40 41  1  0  0  0
 41 42  1  0  0  0
 42 37  1  0  0  0
 30 25  1  0  0  0
 11  5  1  0  0  0
 24 16  1  0  0  0
 24 19  1  0  0  0
  3  4  1  0  0  0
 12 15  1  0  0  0
M  END
> <minimizedAffinity>
-8.15268

> <CNNscore>
0.1436278820

> <CNNaffinity>
6.0247135162

> <CNN_VS>
0.8653168678

> <CNNaffinity_variance>
0.2740461826

$$$$
[H]c1nc2c([H])c([H])c([H])c([H])n2c1C(=O)N([H])c1c([H])c(N([H])C(=O)c2c([H])c([H])c(C([H])([H])N3C([H])([H])C([H])([H])N(C([H])([H])[H])C([H])([H])C3([H])[H])c(C(F)(F)F)c2[H])c([H])c([H])c1C([H])([H])[H]


 42 46  0  0  0  0  0  0  0  0999 V2000
    2.9384    3.4049   13.8699 C   0  0  0  0  0  0  0  0  0  0  0  0
    2.9676    2.4937   13.0220 O   0  0  0  0  0  0  0  0  0  0  0  0
    2.5982    4.7175   13.5242 N   0  0  0  0  0  0  0  0  0  0  0  0
    2.6032    5.4119   14.3410 H   0  0  0  0  0  0  0  0  0  0  0  0
    2.2684    5.1655   12.2264 C   0  0  0  0  0  0  0  0  0  0  0  0
    3.1358    5.3329   11.1910 C   0  0  0  0  0  0  0  0  0  0  0  0
    2.6893    5.7487    9.9577 C   0  0  0  0  0  0  0  0  0  0  0  0
    1.3576    6.0074    9.7338 C   0  0  0  0  0  0  0  0  0  0  0  0
    0.8798    6.4548    8.4070 C   0  0  0  0  0  0  0  0  0  0  0  0
    0.4354    5.8498   10.7648 C   0  0  0  0  0  0  0  0  0  0  0  0
    0.9091    5.4322   11.9894 C   0  0  0  0  0  0  0  0  0  0  0  0
   -0.9040    6.1183   10.4888 N   0  0  0  0  0  0  0  0  0  0  0  0
   -1.9690    5.2427   10.2343 C   0  0  0  0  0  0  0  0  0  0  0  0
   -1.8134    4.0097   10.2300 O   0  0  0  0  0  0  0  0  0  0  0  0
   -1.1922    7.1576   10.4608 H   0  0  0  0  0  0  0  0  0  0  0  0
   -3.3277    5.7593    9.9585 C   0  0  0  0  0  0  0  0  0  0  0  0
   -4.4079    5.5750   10.7959 C   0  0  0  0  0  0  0  0  0  0  0  0
   -5.4604    6.1769   10.2354 N   0  0  0  0  0  0  0  0  0  0  0  0
   -5.0761    6.7302    9.0781 C   0  0  0  0  0  0  0  0  0  0  0  0
   -5.7856    7.4612    8.1281 C   0  0  0  0  0  0  0  0  0  0  0  0
   -5.1479    7.9280    7.0037 C   0  0  0  0  0  0  0  0  0  0  0  0
   -3.8038    7.6427    6.8675 C   0  0  0  0  0  0  0  0  0  0  0  0
   -3.1195    6.9176    7.8191 C   0  0  0  0  0  0  0  0  0  0  0  0
   -3.7506    6.4661    8.9134 N   0  0  0  0  0  0  0  0  0  0  0  0
    3.8758    2.1722   17.8834 C   0  0  0  0  0  0  0  0  0  0  0  0
    4.3537    3.3546   17.3568 C   0  0  0  0  0  0  0  0  0  0  0  0
    4.0702    3.7846   16.0540 C   0  0  0  0  0  0  0  0  0  0  0  0
    3.2817    3.0114   15.2441 C   0  0  0  0  0  0  0  0  0  0  0  0
    2.8043    1.8435   15.7539 C   0  0  0  0  0  0  0  0  0  0  0  0
    3.0793    1.3987   17.0559 C   0  0  0  0  0  0  0  0  0  0  0  0
    2.5345    0.1255   17.5244 C   0  0  0  0  0  0  0  0  0  0  0  0
    3.4193   -0.6928   18.1838 F   0  0  0  0  0  0  0  0  0  0  0  0
    1.3527    0.2793   18.2398 F   0  0  0  0  0  0  0  0  0  0  0  0
    2.1487   -0.6205   16.3976 F   0  0  0  0  0  0  0  0  0  0  0  0
    4.1430    1.7589   19.2642 C   0  0  0  0  0  0  0  0  0  0  0  0
    4.3765    2.8014   23.7095 C   0  0  0  0  0  0  0  0  0  0  0  0
    4.1792    2.4503   22.3460 N   0  0  0  0  0  0  0  0  0  0  0  0
    4.2258    3.5157   21.4033 C   0  0  0  0  0  0  0  0  0  0  0  0
    5.3158    3.4644   20.4139 C   0  0  0  0  0  0  0  0  0  0  0  0
    5.4159    2.1240   19.8015 N   0  0  0  0  0  0  0  0  0  0  0  0
    5.8436    1.3055   20.9400 C   0  0  0  0  0  0  0  0  0  0  0  0
    4.7228    1.2157   21.9073 C   0  0  0  0  0  0  0  0  0  0  0  0
 36 37  1  0  0  0
 37 38  1  0  0  0
 38 39  1  0  0  0
 39 40  1  0  0  0
 40 35  1  0  0  0
 35 25  1  0  0  0
 25 26  2  0  0  0
 26 27  1  0  0  0
 27 28  2  0  0  0
 28 29  1  0  0  0
 29 30  2  0  0  0
 30 31  1  0  0  0
 31 32  1  0  0  0
 31 33  1  0  0  0
 31 34  1  0  0  0
 28  1  1  0  0  0
  1  2  2  0  0  0
  1  3  1  0  0  0
  3  5  1  0  0  0
  5  6  2  0  0  0
  6  7  1  0  0  0
  7  8  2  0  0  0
  8  9  1  0  0  0
  8 10  1  0  0  0
 10 12  1  0  0  0
 12 13  1  0  0  0
 13 14  2  0  0  0
 13 16  1  0  0  0
 16 17  2  0  0  0
 17 18  1  0  0  0
 18 19  2  0  0  0
 19 20  1  0  0  0
 20 21  2  0  0  0
 21 22  1  0  0  0
 22 23  2  0  0  0
 23 24  1  0  0  0
 10 11  2  0  0  0
 40 41  1  0  0  0
 41 42  1  0  0  0
 42 37  1  0  0  0
 30 25  1  0  0  0
 11  5  1  0  0  0
 24 16  1  0  0  0
 24 19  1  0  0  0
  3  4  1  0  0  0
 12 15  1  0  0  0
M  END
> <minimizedAffinity>
-8.38996

> <CNNscore>
0.1420214027

> <CNNaffinity>
6.0811119080

> <CNN_VS>
0.8636480570

> <CNNaffinity_variance>
0.1483192146

$$$$
[H]c1nc2c([H])c([H])c([H])c([H])n2c1C(=O)N([H])c1c([H])c(N([H])C(=O)c2c([H])c([H])c(C([H])([H])N3C([H])([H])C([H])([H])N(C([H])([H])[H])C([H])([H])C3([H])[H])c(C(F)(F)F)c2[H])c([H])c([H])c1C([H])([H])[H]


 42 46  0  0  0  0  0  0  0  0999 V2000
    3.8500    2.0331   17.0995 C   0  0  0  0  0  0  0  0  0  0  0  0
    4.1675    0.8424   17.2766 O   0  0  0  0  0  0  0  0  0  0  0  0
    3.9325    2.9752   18.1309 N   0  0  0  0  0  0  0  0  0  0  0  0
    3.6368    3.9683   17.8558 H   0  0  0  0  0  0  0  0  0  0  0  0
    4.3568    2.7115   19.4516 C   0  0  0  0  0  0  0  0  0  0  0  0
    4.1047    1.5797   20.1642 C   0  0  0  0  0  0  0  0  0  0  0  0
    4.5989    1.4247   21.4391 C   0  0  0  0  0  0  0  0  0  0  0  0
    5.3596    2.4053   22.0307 C   0  0  0  0  0  0  0  0  0  0  0  0
    5.8896    2.2368   23.4018 C   0  0  0  0  0  0  0  0  0  0  0  0
    5.6417    3.5798   21.3383 C   0  0  0  0  0  0  0  0  0  0  0  0
    5.1349    3.7091   20.0636 C   0  0  0  0  0  0  0  0  0  0  0  0
    6.4214    4.5424   21.9767 N   0  0  0  0  0  0  0  0  0  0  0  0
    6.9455    5.7494   21.4928 C   0  0  0  0  0  0  0  0  0  0  0  0
    6.7470    6.1256   20.3251 O   0  0  0  0  0  0  0  0  0  0  0  0
    6.6759    4.3514   23.0077 H   0  0  0  0  0  0  0  0  0  0  0  0
    7.7614    6.6258   22.3619 C   0  0  0  0  0  0  0  0  0  0  0  0
    8.8905    6.2093   23.0354 C   0  0  0  0  0  0  0  0  0  0  0  0
    9.3676    7.2583   23.7108 N   0  0  0  0  0  0  0  0  0  0  0  0
    8.5768    8.3146   23.4833 C   0  0  0  0  0  0  0  0  0  0  0  0
    8.6395    9.6269   23.9465 C   0  0  0  0  0  0  0  0  0  0  0  0
    7.6878   10.5389   23.5575 C   0  0  0  0  0  0  0  0  0  0  0  0
    6.6927   10.0996   22.7070 C   0  0  0  0  0  0  0  0  0  0  0  0
    6.6482    8.7966   22.2598 C   0  0  0  0  0  0  0  0  0  0  0  0
    7.5817    7.9135   22.6450 N   0  0  0  0  0  0  0  0  0  0  0  0
    2.5279    3.1415   13.1587 C   0  0  0  0  0  0  0  0  0  0  0  0
    2.2836    1.8879   13.6806 C   0  0  0  0  0  0  0  0  0  0  0  0
    2.7018    1.4934   14.9580 C   0  0  0  0  0  0  0  0  0  0  0  0
    3.3880    2.3777   15.7472 C   0  0  0  0  0  0  0  0  0  0  0  0
    3.6336    3.6173   15.2424 C   0  0  0  0  0  0  0  0  0  0  0  0
    3.2220    4.0276   13.9653 C   0  0  0  0  0  0  0  0  0  0  0  0
    3.5344    5.3757   13.4939 C   0  0  0  0  0  0  0  0  0  0  0  0
    2.5141    6.0306   12.8476 F   0  0  0  0  0  0  0  0  0  0  0  0
    4.1044    6.1701   14.4818 F   0  0  0  0  0  0  0  0  0  0  0  0
    4.5460    5.2710   12.5239 F   0  0  0  0  0  0  0  0  0  0  0  0
    2.0429    3.5544   11.8384 C   0  0  0  0  0  0  0  0  0  0  0  0
    0.4462    4.5732    7.6773 C   0  0  0  0  0  0  0  0  0  0  0  0
    0.8575    4.3410    9.0183 N   0  0  0  0  0  0  0  0  0  0  0  0
    0.5213    3.0747    9.5748 C   0  0  0  0  0  0  0  0  0  0  0  0
    1.6503    2.2004    9.9362 C   0  0  0  0  0  0  0  0  0  0  0  0
    2.6685    2.9387   10.7108 N   0  0  0  0  0  0  0  0  0  0  0  0
    3.1743    3.8868    9.7135 C   0  0  0  0  0  0  0  0  0  0  0  0
    2.1096    4.8757    9.4162 C   0  0  0  0  0  0  0  0  0  0  0  0
 36 37  1  0  0  0
 37 38  1  0  0  0
 38 39  1  0  0  0
 39 40  1  0  0  0
 40 35  1  0  0  0
 35 25  1  0  0  0
 25 26  2  0  0  0
 26 27  1  0  0  0
 27 28  2  0  0  0
 28 29  1  0  0  0
 29 30  2  0  0  0
 30 31  1  0  0  0
 31 32  1  0  0  0
 31 33  1  0  0  0
 31 34  1  0  0  0
 28  1  1  0  0  0
  1  2  2  0  0  0
  1  3  1  0  0  0
  3  5  1  0  0  0
  5  6  2  0  0  0
  6  7  1  0  0  0
  7  8  2  0  0  0
  8  9  1  0  0  0
  8 10  1  0  0  0
 10 12  1  0  0  0
 12 13  1  0  0  0
 13 14  2  0  0  0
 13 16  1  0  0  0
 16 17  2  0  0  0
 17 18  1  0  0  0
 18 19  2  0  0  0
 19 20  1  0  0  0
 20 21  2  0  0  0
 21 22  1  0  0  0
 22 23  2  0  0  0
 23 24  1  0  0  0
 10 11  2  0  0  0
 40 41  1  0  0  0
 41 42  1  0  0  0
 42 37  1  0  0  0
 30 25  1  0  0  0
 11  5  1  0  0  0
 24 16  1  0  0  0
 24 19  1  0  0  0
  3  4  1  0  0  0
 12 15  1  0  0  0
M  END
> <minimizedAffinity>
-8.72236

> <CNNscore>
0.1414348483

> <CNNaffinity>
6.2679271698

> <CNN_VS>
0.8865033388

> <CNNaffinity_variance>
0.1594782025

$$$$
[H]c1nc2c([H])c([H])c([H])c([H])n2c1C(=O)N([H])c1c([H])c(N([H])C(=O)c2c([H])c([H])c(C([H])([H])N3C([H])([H])C([H])([H])N(C([H])([H])[H])C([H])([H])C3([H])[H])c(C(F)(F)F)c2[H])c([H])c([H])c1C([H])([H])[H]


 42 46  0  0  0  0  0  0  0  0999 V2000
    3.3094    2.8996   14.2131 C   0  0  0  0  0  0  0  0  0  0  0  0
    3.8891    3.8435   13.6446 O   0  0  0  0  0  0  0  0  0  0  0  0
    2.4657    2.0294   13.5137 N   0  0  0  0  0  0  0  0  0  0  0  0
    2.0281    1.2534   14.1101 H   0  0  0  0  0  0  0  0  0  0  0  0
    2.1648    2.1079   12.1363 C   0  0  0  0  0  0  0  0  0  0  0  0
    2.8617    1.5164   11.1280 C   0  0  0  0  0  0  0  0  0  0  0  0
    2.4520    1.6412    9.8203 C   0  0  0  0  0  0  0  0  0  0  0  0
    1.3300    2.3653    9.4928 C   0  0  0  0  0  0  0  0  0  0  0  0
    0.8916    2.4985    8.0860 C   0  0  0  0  0  0  0  0  0  0  0  0
    0.5873    2.9876   10.4925 C   0  0  0  0  0  0  0  0  0  0  0  0
    1.0194    2.8464   11.7932 C   0  0  0  0  0  0  0  0  0  0  0  0
   -0.5452    3.7056   10.1129 N   0  0  0  0  0  0  0  0  0  0  0  0
   -0.8256    5.0754   10.2166 C   0  0  0  0  0  0  0  0  0  0  0  0
   -0.0085    5.8735   10.7064 O   0  0  0  0  0  0  0  0  0  0  0  0
   -1.3479    3.1401    9.6658 H   0  0  0  0  0  0  0  0  0  0  0  0
   -2.1154    5.6247    9.7437 C   0  0  0  0  0  0  0  0  0  0  0  0
   -2.2818    6.2747    8.5388 C   0  0  0  0  0  0  0  0  0  0  0  0
   -3.5671    6.6253    8.4435 N   0  0  0  0  0  0  0  0  0  0  0  0
   -4.2090    6.2178    9.5457 C   0  0  0  0  0  0  0  0  0  0  0  0
   -5.5428    6.3364    9.9299 C   0  0  0  0  0  0  0  0  0  0  0  0
   -5.9588    5.8231   11.1349 C   0  0  0  0  0  0  0  0  0  0  0  0
   -5.0125    5.2005   11.9244 C   0  0  0  0  0  0  0  0  0  0  0  0
   -3.6973    5.0933   11.5262 C   0  0  0  0  0  0  0  0  0  0  0  0
   -3.3006    5.5975   10.3480 N   0  0  0  0  0  0  0  0  0  0  0  0
    4.1050    2.6013   18.4302 C   0  0  0  0  0  0  0  0  0  0  0  0
    3.7237    1.5051   17.6840 C   0  0  0  0  0  0  0  0  0  0  0  0
    3.4546    1.5675   16.3106 C   0  0  0  0  0  0  0  0  0  0  0  0
    3.5693    2.7636   15.6535 C   0  0  0  0  0  0  0  0  0  0  0  0
    3.9456    3.8510   16.3799 C   0  0  0  0  0  0  0  0  0  0  0  0
    4.2181    3.8052   17.7556 C   0  0  0  0  0  0  0  0  0  0  0  0
    4.6083    5.0225   18.4650 C   0  0  0  0  0  0  0  0  0  0  0  0
    3.8200    5.3640   19.5371 F   0  0  0  0  0  0  0  0  0  0  0  0
    5.9574    5.0389   18.7990 F   0  0  0  0  0  0  0  0  0  0  0  0
    4.4704    6.1033   17.5773 F   0  0  0  0  0  0  0  0  0  0  0  0
    4.4283    2.5102   19.8571 C   0  0  0  0  0  0  0  0  0  0  0  0
    5.5241    2.0867   24.2754 C   0  0  0  0  0  0  0  0  0  0  0  0
    5.1966    2.3458   22.9164 N   0  0  0  0  0  0  0  0  0  0  0  0
    6.1586    1.9492   21.9452 C   0  0  0  0  0  0  0  0  0  0  0  0
    5.7372    0.9015   20.9994 C   0  0  0  0  0  0  0  0  0  0  0  0
    4.4074    1.2015   20.4308 N   0  0  0  0  0  0  0  0  0  0  0  0
    3.5430    1.0764   21.6082 C   0  0  0  0  0  0  0  0  0  0  0  0
    3.8386    2.1961   22.5349 C   0  0  0  0  0  0  0  0  0  0  0  0
 36 37  1  0  0  0
 37 38  1  0  0  0
 38 39  1  0  0  0
 39 40  1  0  0  0
 40 35  1  0  0  0
 35 25  1  0  0  0
 25 26  2  0  0  0
 26 27  1  0  0  0
 27 28  2  0  0  0
 28 29  1  0  0  0
 29 30  2  0  0  0
 30 31  1  0  0  0
 31 32  1  0  0  0
 31 33  1  0  0  0
 31 34  1  0  0  0
 28  1  1  0  0  0
  1  2  2  0  0  0
  1  3  1  0  0  0
  3  5  1  0  0  0
  5  6  2  0  0  0
  6  7  1  0  0  0
  7  8  2  0  0  0
  8  9  1  0  0  0
  8 10  1  0  0  0
 10 12  1  0  0  0
 12 13  1  0  0  0
 13 14  2  0  0  0
 13 16  1  0  0  0
 16 17  2  0  0  0
 17 18  1  0  0  0
 18 19  2  0  0  0
 19 20  1  0  0  0
 20 21  2  0  0  0
 21 22  1  0  0  0
 22 23  2  0  0  0
 23 24  1  0  0  0
 10 11  2  0  0  0
 40 41  1  0  0  0
 41 42  1  0  0  0
 42 37  1  0  0  0
 30 25  1  0  0  0
 11  5  1  0  0  0
 24 16  1  0  0  0
 24 19  1  0  0  0
  3  4  1  0  0  0
 12 15  1  0  0  0
M  END
> <minimizedAffinity>
-9.36786

> <CNNscore>
0.1390825361

> <CNNaffinity>
6.2327194214

> <CNN_VS>
0.8668624163

> <CNNaffinity_variance>
0.2340763807

$$$$
[H]c1nc2c([H])c([H])c([H])c([H])n2c1C(=O)N([H])c1c([H])c(N([H])C(=O)c2c([H])c([H])c(C([H])([H])N3C([H])([H])C([H])([H])N(C([H])([H])[H])C([H])([H])C3([H])[H])c(C(F)(F)F)c2[H])c([H])c([H])c1C([H])([H])[H]


 42 46  0  0  0  0  0  0  0  0999 V2000
    4.1952    4.6308   16.7680 C   0  0  0  0  0  0  0  0  0  0  0  0
    3.3815    3.7400   17.0753 O   0  0  0  0  0  0  0  0  0  0  0  0
    4.3165    5.0910   15.4521 N   0  0  0  0  0  0  0  0  0  0  0  0
    5.0473    5.8629   15.3126 H   0  0  0  0  0  0  0  0  0  0  0  0
    3.5746    4.6211   14.3464 C   0  0  0  0  0  0  0  0  0  0  0  0
    4.0388    3.8145   13.3532 C   0  0  0  0  0  0  0  0  0  0  0  0
    3.2084    3.3964   12.3388 C   0  0  0  0  0  0  0  0  0  0  0  0
    1.8886    3.7795   12.2969 C   0  0  0  0  0  0  0  0  0  0  0  0
    0.9977    3.3290   11.2049 C   0  0  0  0  0  0  0  0  0  0  0  0
    1.3717    4.6045   13.2921 C   0  0  0  0  0  0  0  0  0  0  0  0
    2.2245    5.0083   14.2961 C   0  0  0  0  0  0  0  0  0  0  0  0
    0.0271    4.9615   13.2105 N   0  0  0  0  0  0  0  0  0  0  0  0
   -0.5683    6.1532   12.7731 C   0  0  0  0  0  0  0  0  0  0  0  0
    0.1112    7.1122   12.3694 O   0  0  0  0  0  0  0  0  0  0  0  0
   -0.6894    4.2204   13.5290 H   0  0  0  0  0  0  0  0  0  0  0  0
   -2.0391    6.3135   12.7770 C   0  0  0  0  0  0  0  0  0  0  0  0
   -2.7151    7.2117   13.5759 C   0  0  0  0  0  0  0  0  0  0  0  0
   -4.0184    7.0851   13.3120 N   0  0  0  0  0  0  0  0  0  0  0  0
   -4.1802    6.1401   12.3773 C   0  0  0  0  0  0  0  0  0  0  0  0
   -5.3269    5.6384   11.7658 C   0  0  0  0  0  0  0  0  0  0  0  0
   -5.2229    4.6497   10.8169 C   0  0  0  0  0  0  0  0  0  0  0  0
   -3.9574    4.1912   10.5090 C   0  0  0  0  0  0  0  0  0  0  0  0
   -2.8350    4.7007   11.1255 C   0  0  0  0  0  0  0  0  0  0  0  0
   -2.9465    5.6658   12.0506 N   0  0  0  0  0  0  0  0  0  0  0  0
    6.5243    6.1233   20.0625 C   0  0  0  0  0  0  0  0  0  0  0  0
    6.6747    6.6190   18.7837 C   0  0  0  0  0  0  0  0  0  0  0  0
    5.9350    6.1544   17.6886 C   0  0  0  0  0  0  0  0  0  0  0  0
    5.0106    5.1604   17.8706 C   0  0  0  0  0  0  0  0  0  0  0  0
    4.8537    4.6650   19.1282 C   0  0  0  0  0  0  0  0  0  0  0  0
    5.5867    5.1191   20.2351 C   0  0  0  0  0  0  0  0  0  0  0  0
    5.3641    4.5267   21.5530 C   0  0  0  0  0  0  0  0  0  0  0  0
    6.4176    3.8114   22.0686 F   0  0  0  0  0  0  0  0  0  0  0  0
    4.8697    5.4417   22.4751 F   0  0  0  0  0  0  0  0  0  0  0  0
    4.3310    3.5813   21.4332 F   0  0  0  0  0  0  0  0  0  0  0  0
    7.2727    6.6526   21.2066 C   0  0  0  0  0  0  0  0  0  0  0  0
   10.2960    8.8735   23.8198 C   0  0  0  0  0  0  0  0  0  0  0  0
    9.4399    8.0853   23.0030 N   0  0  0  0  0  0  0  0  0  0  0  0
    8.2621    7.5792   23.6214 C   0  0  0  0  0  0  0  0  0  0  0  0
    6.9810    8.0673   23.0826 C   0  0  0  0  0  0  0  0  0  0  0  0
    6.9591    7.9878   21.6079 N   0  0  0  0  0  0  0  0  0  0  0  0
    7.9744    8.9790   21.2393 C   0  0  0  0  0  0  0  0  0  0  0  0
    9.3063    8.4666   21.6433 C   0  0  0  0  0  0  0  0  0  0  0  0
 36 37  1  0  0  0
 37 38  1  0  0  0
 38 39  1  0  0  0
 39 40  1  0  0  0
 40 35  1  0  0  0
 35 25  1  0  0  0
 25 26  2  0  0  0
 26 27  1  0  0  0
 27 28  2  0  0  0
 28 29  1  0  0  0
 29 30  2  0  0  0
 30 31  1  0  0  0
 31 32  1  0  0  0
 31 33  1  0  0  0
 31 34  1  0  0  0
 28  1  1  0  0  0
  1  2  2  0  0  0
  1  3  1  0  0  0
  3  5  1  0  0  0
  5  6  2  0  0  0
  6  7  1  0  0  0
  7  8  2  0  0  0
  8  9  1  0  0  0
  8 10  1  0  0  0
 10 12  1  0  0  0
 12 13  1  0  0  0
 13 14  2  0  0  0
 13 16  1  0  0  0
 16 17  2  0  0  0
 17 18  1  0  0  0
 18 19  2  0  0  0
 19 20  1  0  0  0
 20 21  2  0  0  0
 21 22  1  0  0  0
 22 23  2  0  0  0
 23 24  1  0  0  0
 10 11  2  0  0  0
 40 41  1  0  0  0
 41 42  1  0  0  0
 42 37  1  0  0  0
 30 25  1  0  0  0
 11  5  1  0  0  0
 24 16  1  0  0  0
 24 19  1  0  0  0
  3  4  1  0  0  0
 12 15  1  0  0  0
M  END
> <minimizedAffinity>
-8.93490

> <CNNscore>
0.1329541653

> <CNNaffinity>
5.9893980026

> <CNN_VS>
0.7963154316

> <CNNaffinity_variance>
0.1448993385

$$$$
[H]c1nc2c([H])c([H])c([H])c([H])n2c1C(=O)N([H])c1c([H])c(N([H])C(=O)c2c([H])c([H])c(C([H])([H])N3C([H])([H])C([H])([H])N(C([H])([H])[H])C([H])([H])C3([H])[H])c(C(F)(F)F)c2[H])c([H])c([H])c1C([H])([H])[H]


 42 46  0  0  0  0  0  0  0  0999 V2000
    5.2903    8.5300   14.8940 C   0  0  0  0  0  0  0  0  0  0  0  0
    6.4237    8.9599   15.1777 O   0  0  0  0  0  0  0  0  0  0  0  0
    4.3081    8.3491   15.8743 N   0  0  0  0  0  0  0  0  0  0  0  0
    3.3715    7.9784   15.5074 H   0  0  0  0  0  0  0  0  0  0  0  0
    4.4672    8.6078   17.2533 C   0  0  0  0  0  0  0  0  0  0  0  0
    4.7764    9.8089   17.8137 C   0  0  0  0  0  0  0  0  0  0  0  0
    4.8757    9.9447   19.1794 C   0  0  0  0  0  0  0  0  0  0  0  0
    4.6668    8.8749   20.0173 C   0  0  0  0  0  0  0  0  0  0  0  0
    4.7745    9.0232   21.4854 C   0  0  0  0  0  0  0  0  0  0  0  0
    4.3487    7.6275   19.4870 C   0  0  0  0  0  0  0  0  0  0  0  0
    4.2554    7.5192   18.1166 C   0  0  0  0  0  0  0  0  0  0  0  0
    4.1403    6.5746   20.3758 N   0  0  0  0  0  0  0  0  0  0  0  0
    4.9655    5.4894   20.7032 C   0  0  0  0  0  0  0  0  0  0  0  0
    6.0841    5.3399   20.1829 O   0  0  0  0  0  0  0  0  0  0  0  0
    3.2022    6.5712   20.9087 H   0  0  0  0  0  0  0  0  0  0  0  0
    4.5304    4.4742   21.6877 C   0  0  0  0  0  0  0  0  0  0  0  0
    4.3641    4.7260   23.0334 C   0  0  0  0  0  0  0  0  0  0  0  0
    3.9621    3.5901   23.6099 N   0  0  0  0  0  0  0  0  0  0  0  0
    3.8717    2.6383   22.6724 C   0  0  0  0  0  0  0  0  0  0  0  0
    3.5005    1.2982   22.7555 C   0  0  0  0  0  0  0  0  0  0  0  0
    3.4886    0.5173   21.6248 C   0  0  0  0  0  0  0  0  0  0  0  0
    3.8538    1.1129   20.4338 C   0  0  0  0  0  0  0  0  0  0  0  0
    4.2178    2.4408   20.3725 C   0  0  0  0  0  0  0  0  0  0  0  0
    4.2264    3.1952   21.4818 N   0  0  0  0  0  0  0  0  0  0  0  0
    4.5109    7.6145   10.7635 C   0  0  0  0  0  0  0  0  0  0  0  0
    5.7592    8.0128   11.1958 C   0  0  0  0  0  0  0  0  0  0  0  0
    6.0466    8.3208   12.5318 C   0  0  0  0  0  0  0  0  0  0  0  0
    5.0570    8.2290   13.4741 C   0  0  0  0  0  0  0  0  0  0  0  0
    3.8222    7.8361   13.0586 C   0  0  0  0  0  0  0  0  0  0  0  0
    3.5182    7.5246   11.7247 C   0  0  0  0  0  0  0  0  0  0  0  0
    2.1622    7.1189   11.3589 C   0  0  0  0  0  0  0  0  0  0  0  0
    1.5703    7.8552   10.3614 F   0  0  0  0  0  0  0  0  0  0  0  0
    2.0586    5.7545   11.1148 F   0  0  0  0  0  0  0  0  0  0  0  0
    1.3338    7.3226   12.4759 F   0  0  0  0  0  0  0  0  0  0  0  0
    4.2379    7.2507    9.3700 C   0  0  0  0  0  0  0  0  0  0  0  0
    3.1242    6.3472    5.0289 C   0  0  0  0  0  0  0  0  0  0  0  0
    3.4205    6.5134    6.4094 N   0  0  0  0  0  0  0  0  0  0  0  0
    4.7957    6.4659    6.7734 C   0  0  0  0  0  0  0  0  0  0  0  0
    5.3645    7.7023    7.3370 C   0  0  0  0  0  0  0  0  0  0  0  0
    4.4900    8.2590    8.3892 N   0  0  0  0  0  0  0  0  0  0  0  0
    3.3076    8.6544    7.6179 C   0  0  0  0  0  0  0  0  0  0  0  0
    2.6213    7.4294    7.1403 C   0  0  0  0  0  0  0  0  0  0  0  0
 36 37  1  0  0  0
 37 38  1  0  0  0
 38 39  1  0  0  0
 39 40  1  0  0  0
 40 35  1  0  0  0
 35 25  1  0  0  0
 25 26  2  0  0  0
 26 27  1  0  0  0
 27 28  2  0  0  0
 28 29  1  0  0  0
 29 30  2  0  0  0
 30 31  1  0  0  0
 31 32  1  0  0  0
 31 33  1  0  0  0
 31 34  1  0  0  0
 28  1  1  0  0  0
  1  2  2  0  0  0
  1  3  1  0  0  0
  3  5  1  0  0  0
  5  6  2  0  0  0
  6  7  1  0  0  0
  7  8  2  0  0  0
  8  9  1  0  0  0
  8 10  1  0  0  0
 10 12  1  0  0  0
 12 13  1  0  0  0
 13 14  2  0  0  0
 13 16  1  0  0  0
 16 17  2  0  0  0
 17 18  1  0  0  0
 18 19  2  0  0  0
 19 20  1  0  0  0
 20 21  2  0  0  0
 21 22  1  0  0  0
 22 23  2  0  0  0
 23 24  1  0  0  0
 10 11  2  0  0  0
 40 41  1  0  0  0
 41 42  1  0  0  0
 42 37  1  0  0  0
 30 25  1  0  0  0
 11  5  1  0  0  0
 24 16  1  0  0  0
 24 19  1  0  0  0
  3  4  1  0  0  0
 12 15  1  0  0  0
M  END
> <minimizedAffinity>
-8.94893

> <CNNscore>
0.1216819584

> <CNNaffinity>
5.7800498009

> <CNN_VS>
0.7033277750

> <CNNaffinity_variance>
0.4328786433

$$$$
[H]c1nc([H])c(-c2nc(N([H])c3c([H])c(N([H])C(=O)c4c([H])c([H])c(C([H])([H])N5C([H])([H])C([H])([H])N(C([H])([H])[H])C([H])([H])C5([H])[H])c([H])c4[H])c([H])c([H])c3C([H])([H])[H])sc2[H])c([H])c1[H]


 38 42  0  0  0  0  0  0  0  0999 V2000
    4.0950    8.7030   18.4480 C   0  0  0  0  0  0  0  0  0  0  0  0
    4.6560    9.9668   18.6709 C   0  0  0  0  0  0  0  0  0  0  0  0
    5.1839   10.2258   19.9075 C   0  0  0  0  0  0  0  0  0  0  0  0
    5.1785    9.2970   20.9178 C   0  0  0  0  0  0  0  0  0  0  0  0
    5.7654    9.6655   22.2058 C   0  0  0  0  0  0  0  0  0  0  0  0
    4.6232    8.0249   20.7197 C   0  0  0  0  0  0  0  0  0  0  0  0
    4.0970    7.7696   19.4827 C   0  0  0  0  0  0  0  0  0  0  0  0
    4.2801    8.0071   16.0280 C   0  0  0  0  0  0  0  0  0  0  0  0
    5.4884    7.7176   16.0260 O   0  0  0  0  0  0  0  0  0  0  0  0
    3.5792    8.4764   17.1548 N   0  0  0  0  0  0  0  0  0  0  0  0
    2.5371    8.6979   17.0107 H   0  0  0  0  0  0  0  0  0  0  0  0
    2.2591    7.5166   12.2575 C   0  0  0  0  0  0  0  0  0  0  0  0
    2.9139    6.4610   12.8531 C   0  0  0  0  0  0  0  0  0  0  0  0
    3.5766    6.6168   14.0799 C   0  0  0  0  0  0  0  0  0  0  0  0
    3.5952    7.8238   14.7277 C   0  0  0  0  0  0  0  0  0  0  0  0
    2.9333    8.8843   14.1219 C   0  0  0  0  0  0  0  0  0  0  0  0
    2.2829    8.7278   12.9159 C   0  0  0  0  0  0  0  0  0  0  0  0
    1.5652    7.3337   10.9519 C   0  0  0  0  0  0  0  0  0  0  0  0
    3.8829    7.6798    6.7206 C   0  0  0  0  0  0  0  0  0  0  0  0
    2.5337    7.2821    6.9934 N   0  0  0  0  0  0  0  0  0  0  0  0
    2.4921    6.0152    7.6524 C   0  0  0  0  0  0  0  0  0  0  0  0
    1.9154    6.0662    9.0449 C   0  0  0  0  0  0  0  0  0  0  0  0
    2.4845    7.1352    9.8476 N   0  0  0  0  0  0  0  0  0  0  0  0
    2.4986    8.3905    9.1109 C   0  0  0  0  0  0  0  0  0  0  0  0
    1.8035    8.2601    7.7711 C   0  0  0  0  0  0  0  0  0  0  0  0
    4.6683    7.1652   21.7910 N   0  0  0  0  0  0  0  0  0  0  0  0
    4.3091    7.4770   22.7351 H   0  0  0  0  0  0  0  0  0  0  0  0
    5.1656    5.8133   21.8224 C   0  0  0  0  0  0  0  0  0  0  0  0
    4.4989    4.7256   21.4538 N   0  0  0  0  0  0  0  0  0  0  0  0
    5.0504    3.5702   21.5246 C   0  0  0  0  0  0  0  0  0  0  0  0
    6.3410    3.4949   21.9896 C   0  0  0  0  0  0  0  0  0  0  0  0
    6.6600    5.1411   22.2941 S   0  0  0  0  0  0  0  0  0  0  0  0
    4.3212    2.3287   21.1158 C   0  0  0  0  0  0  0  0  0  0  0  0
    3.6367    1.5763   22.0508 C   0  0  0  0  0  0  0  0  0  0  0  0
    2.9540    0.4281   21.7122 C   0  0  0  0  0  0  0  0  0  0  0  0
    2.9659    0.0325   20.3913 C   0  0  0  0  0  0  0  0  0  0  0  0
    3.6392    0.7831   19.5056 N   0  0  0  0  0  0  0  0  0  0  0  0
    4.3117    1.9124   19.8331 C   0  0  0  0  0  0  0  0  0  0  0  0
 19 20  1  0  0  0
 20 21  1  0  0  0
 21 22  1  0  0  0
 22 23  1  0  0  0
 23 18  1  0  0  0
 18 12  1  0  0  0
 12 13  2  0  0  0
 13 14  1  0  0  0
 14 15  2  0  0  0
 15 16  1  0  0  0
 16 17  2  0  0  0
 15  8  1  0  0  0
  8  9  2  0  0  0
  8 10  1  0  0  0
 10  1  1  0  0  0
  1  2  2  0  0  0
  2  3  1  0  0  0
  3  4  2  0  0  0
  4  5  1  0  0  0
  4  6  1  0  0  0
  6 26  1  0  0  0
 26 28  1  0  0  0
 28 29  2  0  0  0
 29 30  1  0  0  0
 30 31  2  0  0  0
 31 32  1  0  0  0
 30 33  1  0  0  0
 33 34  2  0  0  0
 34 35  1  0  0  0
 35 36  2  0  0  0
 36 37  1  0  0  0
 37 38  2  0  0  0
  6  7  2  0  0  0
 23 24  1  0  0  0
 24 25  1  0  0  0
 25 20  1  0  0  0
 17 12  1  0  0  0
  7  1  1  0  0  0
 32 28  1  0  0  0
 38 33  1  0  0  0
 10 11  1  0  0  0
 26 27  1  0  0  0
M  END
> <minimizedAffinity>
-8.74590

> <CNNscore>
0.3405797184

> <CNNaffinity>
6.1253385544

> <CNN_VS>
2.0861661434

> <CNNaffinity_variance>
0.5609997511

$$$$
[H]c1nc([H])c(-c2nc(N([H])c3c([H])c(N([H])C(=O)c4c([H])c([H])c(C([H])([H])N5C([H])([H])C([H])([H])N(C([H])([H])[H])C([H])([H])C5([H])[H])c([H])c4[H])c([H])c([H])c3C([H])([H])[H])sc2[H])c([H])c1[H]


 38 42  0  0  0  0  0  0  0  0999 V2000
    4.2875    2.6484   18.2040 C   0  0  0  0  0  0  0  0  0  0  0  0
    4.2649    1.3095   18.6147 C   0  0  0  0  0  0  0  0  0  0  0  0
    4.3204    1.0490   19.9577 C   0  0  0  0  0  0  0  0  0  0  0  0
    4.3963    2.0465   20.8971 C   0  0  0  0  0  0  0  0  0  0  0  0
    4.4520    1.6705   22.3095 C   0  0  0  0  0  0  0  0  0  0  0  0
    4.4201    3.3944   20.5117 C   0  0  0  0  0  0  0  0  0  0  0  0
    4.3641    3.6509   19.1688 C   0  0  0  0  0  0  0  0  0  0  0  0
    3.1233    2.5897   15.9644 C   0  0  0  0  0  0  0  0  0  0  0  0
    2.0473    2.0984   16.3446 O   0  0  0  0  0  0  0  0  0  0  0  0
    4.2113    2.8683   16.8128 N   0  0  0  0  0  0  0  0  0  0  0  0
    5.0860    3.2842   16.3464 H   0  0  0  0  0  0  0  0  0  0  0  0
    3.3258    3.3685   11.7343 C   0  0  0  0  0  0  0  0  0  0  0  0
    3.9883    4.1729   12.6354 C   0  0  0  0  0  0  0  0  0  0  0  0
    3.9226    3.9250   14.0148 C   0  0  0  0  0  0  0  0  0  0  0  0
    3.1977    2.8748   14.5129 C   0  0  0  0  0  0  0  0  0  0  0  0
    2.5317    2.0676   13.5992 C   0  0  0  0  0  0  0  0  0  0  0  0
    2.5984    2.3141   12.2439 C   0  0  0  0  0  0  0  0  0  0  0  0
    3.4029    3.6502   10.2733 C   0  0  0  0  0  0  0  0  0  0  0  0
    3.9473    8.0980    8.4522 C   0  0  0  0  0  0  0  0  0  0  0  0
    4.0401    6.8258    7.7995 N   0  0  0  0  0  0  0  0  0  0  0  0
    5.2014    6.1107    8.2250 C   0  0  0  0  0  0  0  0  0  0  0  0
    4.8984    4.8229    8.9489 C   0  0  0  0  0  0  0  0  0  0  0  0
    3.8890    4.9853    9.9813 N   0  0  0  0  0  0  0  0  0  0  0  0
    2.7413    5.7254    9.4774 C   0  0  0  0  0  0  0  0  0  0  0  0
    2.8641    6.0050    7.9935 C   0  0  0  0  0  0  0  0  0  0  0  0
    4.4947    4.3185   21.5262 N   0  0  0  0  0  0  0  0  0  0  0  0
    4.0675    4.1047   22.4692 H   0  0  0  0  0  0  0  0  0  0  0  0
    5.1081    5.6219   21.4946 C   0  0  0  0  0  0  0  0  0  0  0  0
    4.6324    6.6956   20.8747 N   0  0  0  0  0  0  0  0  0  0  0  0
    5.2695    7.8075   20.9197 C   0  0  0  0  0  0  0  0  0  0  0  0
    6.4487    7.8514   21.6233 C   0  0  0  0  0  0  0  0  0  0  0  0
    6.5429    6.2420   22.1761 S   0  0  0  0  0  0  0  0  0  0  0  0
    4.7556    9.0323   20.2298 C   0  0  0  0  0  0  0  0  0  0  0  0
    3.7563    8.9365   19.2806 C   0  0  0  0  0  0  0  0  0  0  0  0
    3.2579   10.0414   18.6249 C   0  0  0  0  0  0  0  0  0  0  0  0
    3.7865   11.2753   18.9398 C   0  0  0  0  0  0  0  0  0  0  0  0
    4.7561   11.3375   19.8657 N   0  0  0  0  0  0  0  0  0  0  0  0
    5.2495   10.2548   20.5131 C   0  0  0  0  0  0  0  0  0  0  0  0
 19 20  1  0  0  0
 20 21  1  0  0  0
 21 22  1  0  0  0
 22 23  1  0  0  0
 23 18  1  0  0  0
 18 12  1  0  0  0
 12 13  2  0  0  0
 13 14  1  0  0  0
 14 15  2  0  0  0
 15 16  1  0  0  0
 16 17  2  0  0  0
 15  8  1  0  0  0
  8  9  2  0  0  0
  8 10  1  0  0  0
 10  1  1  0  0  0
  1  2  2  0  0  0
  2  3  1  0  0  0
  3  4  2  0  0  0
  4  5  1  0  0  0
  4  6  1  0  0  0
  6 26  1  0  0  0
 26 28  1  0  0  0
 28 29  2  0  0  0
 29 30  1  0  0  0
 30 31  2  0  0  0
 31 32  1  0  0  0
 30 33  1  0  0  0
 33 34  2  0  0  0
 34 35  1  0  0  0
 35 36  2  0  0  0
 36 37  1  0  0  0
 37 38  2  0  0  0
  6  7  2  0  0  0
 23 24  1  0  0  0
 24 25  1  0  0  0
 25 20  1  0  0  0
 17 12  1  0  0  0
  7  1  1  0  0  0
 32 28  1  0  0  0
 38 33  1  0  0  0
 10 11  1  0  0  0
 26 27  1  0  0  0
M  END
> <minimizedAffinity>
-9.02284

> <CNNscore>
0.3361074924

> <CNNaffinity>
6.3209700584

> <CNN_VS>
2.1245253086

> <CNNaffinity_variance>
0.3646651506

$$$$
[H]c1nc([H])c(-c2nc(N([H])c3c([H])c(N([H])C(=O)c4c([H])c([H])c(C([H])([H])N5C([H])([H])C([H])([H])N(C([H])([H])[H])C([H])([H])C5([H])[H])c([H])c4[H])c([H])c([H])c3C([H])([H])[H])sc2[H])c([H])c1[H]


 38 42  0  0  0  0  0  0  0  0999 V2000
    4.1927    2.5423   18.3088 C   0  0  0  0  0  0  0  0  0  0  0  0
    3.9786    1.2379   18.7716 C   0  0  0  0  0  0  0  0  0  0  0  0
    4.0236    1.0207   20.1228 C   0  0  0  0  0  0  0  0  0  0  0  0
    4.2687    2.0287   21.0212 C   0  0  0  0  0  0  0  0  0  0  0  0
    4.2983    1.6999   22.4460 C   0  0  0  0  0  0  0  0  0  0  0  0
    4.4859    3.3428   20.5831 C   0  0  0  0  0  0  0  0  0  0  0  0
    4.4398    3.5561   19.2324 C   0  0  0  0  0  0  0  0  0  0  0  0
    3.0203    2.4538   16.0744 C   0  0  0  0  0  0  0  0  0  0  0  0
    1.9289    2.0128   16.4720 O   0  0  0  0  0  0  0  0  0  0  0  0
    4.1200    2.7208   16.9114 N   0  0  0  0  0  0  0  0  0  0  0  0
    5.0073    3.0910   16.4304 H   0  0  0  0  0  0  0  0  0  0  0  0
    3.2670    3.1911   11.8391 C   0  0  0  0  0  0  0  0  0  0  0  0
    2.5155    2.1480   12.3342 C   0  0  0  0  0  0  0  0  0  0  0  0
    2.4347    1.9019   13.7131 C   0  0  0  0  0  0  0  0  0  0  0  0
    3.1002    2.6902   14.6145 C   0  0  0  0  0  0  0  0  0  0  0  0
    3.8564    3.7402   14.1089 C   0  0  0  0  0  0  0  0  0  0  0  0
    3.9337    3.9793   12.7529 C   0  0  0  0  0  0  0  0  0  0  0  0
    3.3451    3.4340   10.3713 C   0  0  0  0  0  0  0  0  0  0  0  0
    5.7465    0.4925    7.3752 C   0  0  0  0  0  0  0  0  0  0  0  0
    4.8985    1.6079    7.0755 N   0  0  0  0  0  0  0  0  0  0  0  0
    3.5334    1.3147    7.3784 C   0  0  0  0  0  0  0  0  0  0  0  0
    2.9462    2.1803    8.4648 C   0  0  0  0  0  0  0  0  0  0  0  0
    3.8068    2.2748    9.6316 N   0  0  0  0  0  0  0  0  0  0  0  0
    5.1790    2.5695    9.2457 C   0  0  0  0  0  0  0  0  0  0  0  0
    5.2992    2.8204    7.7564 C   0  0  0  0  0  0  0  0  0  0  0  0
    4.7204    4.2812   21.5595 N   0  0  0  0  0  0  0  0  0  0  0  0
    4.3694    4.1200   22.5435 H   0  0  0  0  0  0  0  0  0  0  0  0
    5.4187    5.5352   21.4342 C   0  0  0  0  0  0  0  0  0  0  0  0
    4.9911    6.6066   20.7764 N   0  0  0  0  0  0  0  0  0  0  0  0
    5.7032    7.6721   20.7369 C   0  0  0  0  0  0  0  0  0  0  0  0
    6.9114    7.6693   21.3910 C   0  0  0  0  0  0  0  0  0  0  0  0
    6.9198    6.0876   22.0254 S   0  0  0  0  0  0  0  0  0  0  0  0
    5.2447    8.8931   20.0026 C   0  0  0  0  0  0  0  0  0  0  0  0
    3.9281    9.0194   19.6034 C   0  0  0  0  0  0  0  0  0  0  0  0
    3.4692   10.1283   18.9259 C   0  0  0  0  0  0  0  0  0  0  0  0
    4.3688   11.1351   18.6458 C   0  0  0  0  0  0  0  0  0  0  0  0
    5.6410   10.9846   19.0460 N   0  0  0  0  0  0  0  0  0  0  0  0
    6.0972    9.8969   19.7121 C   0  0  0  0  0  0  0  0  0  0  0  0
 19 20  1  0  0  0
 20 21  1  0  0  0
 21 22  1  0  0  0
 22 23  1  0  0  0
 23 18  1  0  0  0
 18 12  1  0  0  0
 12 13  2  0  0  0
 13 14  1  0  0  0
 14 15  2  0  0  0
 15 16  1  0  0  0
 16 17  2  0  0  0
 15  8  1  0  0  0
  8  9  2  0  0  0
  8 10  1  0  0  0
 10  1  1  0  0  0
  1  2  2  0  0  0
  2  3  1  0  0  0
  3  4  2  0  0  0
  4  5  1  0  0  0
  4  6  1  0  0  0
  6 26  1  0  0  0
 26 28  1  0  0  0
 28 29  2  0  0  0
 29 30  1  0  0  0
 30 31  2  0  0  0
 31 32  1  0  0  0
 30 33  1  0  0  0
 33 34  2  0  0  0
 34 35  1  0  0  0
 35 36  2  0  0  0
 36 37  1  0  0  0
 37 38  2  0  0  0
  6  7  2  0  0  0
 23 24  1  0  0  0
 24 25  1  0  0  0
 25 20  1  0  0  0
 17 12  1  0  0  0
  7  1  1  0  0  0
 32 28  1  0  0  0
 38 33  1  0  0  0
 10 11  1  0  0  0
 26 27  1  0  0  0
M  END
> <minimizedAffinity>
-8.58248

> <CNNscore>
0.2629677951

> <CNNaffinity>
6.2556576729

> <CNN_VS>
1.6450364590

> <CNNaffinity_variance>
0.3477454484

$$$$
[H]c1nc([H])c(-c2nc(N([H])c3c([H])c(N([H])C(=O)c4c([H])c([H])c(C([H])([H])N5C([H])([H])C([H])([H])N(C([H])([H])[H])C([H])([H])C5([H])[H])c([H])c4[H])c([H])c([H])c3C([H])([H])[H])sc2[H])c([H])c1[H]


 38 42  0  0  0  0  0  0  0  0999 V2000
    4.0502    7.2859   17.9747 C   0  0  0  0  0  0  0  0  0  0  0  0
    3.7704    8.6393   18.2025 C   0  0  0  0  0  0  0  0  0  0  0  0
    4.1242    9.1731   19.4127 C   0  0  0  0  0  0  0  0  0  0  0  0
    4.7350    8.4314   20.3925 C   0  0  0  0  0  0  0  0  0  0  0  0
    5.0750    9.0890   21.6539 C   0  0  0  0  0  0  0  0  0  0  0  0
    5.0260    7.0750   20.1889 C   0  0  0  0  0  0  0  0  0  0  0  0
    4.6714    6.5451   18.9783 C   0  0  0  0  0  0  0  0  0  0  0  0
    2.7820    5.7389   16.4342 C   0  0  0  0  0  0  0  0  0  0  0  0
    2.1671    5.0991   17.3038 O   0  0  0  0  0  0  0  0  0  0  0  0
    3.6833    6.7847   16.7082 N   0  0  0  0  0  0  0  0  0  0  0  0
    4.1532    7.2451   15.8580 H   0  0  0  0  0  0  0  0  0  0  0  0
    2.0183    4.5103   12.3785 C   0  0  0  0  0  0  0  0  0  0  0  0
    1.1820    5.3977   13.0194 C   0  0  0  0  0  0  0  0  0  0  0  0
    1.4249    5.7984   14.3419 C   0  0  0  0  0  0  0  0  0  0  0  0
    2.5019    5.3212   15.0411 C   0  0  0  0  0  0  0  0  0  0  0  0
    3.3413    4.4264   14.3893 C   0  0  0  0  0  0  0  0  0  0  0  0
    3.0996    4.0346   13.0893 C   0  0  0  0  0  0  0  0  0  0  0  0
    1.7415    4.0922   10.9755 C   0  0  0  0  0  0  0  0  0  0  0  0
    1.7432    6.7587    6.9401 C   0  0  0  0  0  0  0  0  0  0  0  0
    2.6581    5.7402    7.3626 N   0  0  0  0  0  0  0  0  0  0  0  0
    3.4399    6.1776    8.4754 C   0  0  0  0  0  0  0  0  0  0  0  0
    3.2141    5.3804    9.7355 C   0  0  0  0  0  0  0  0  0  0  0  0
    1.8046    5.1950   10.0355 N   0  0  0  0  0  0  0  0  0  0  0  0
    1.0733    4.7551    8.8563 C   0  0  0  0  0  0  0  0  0  0  0  0
    2.0020    4.4922    7.6885 C   0  0  0  0  0  0  0  0  0  0  0  0
    5.6407    6.4195   21.2288 N   0  0  0  0  0  0  0  0  0  0  0  0
    6.1254    6.9710   21.9892 H   0  0  0  0  0  0  0  0  0  0  0  0
    5.7301    4.9989   21.4519 C   0  0  0  0  0  0  0  0  0  0  0  0
    4.9579    4.0700   20.9000 N   0  0  0  0  0  0  0  0  0  0  0  0
    5.1352    2.8302   21.1749 C   0  0  0  0  0  0  0  0  0  0  0  0
    6.1403    2.4972   22.0503 C   0  0  0  0  0  0  0  0  0  0  0  0
    6.7626    4.0416   22.4139 S   0  0  0  0  0  0  0  0  0  0  0  0
    4.2789    1.7637   20.5669 C   0  0  0  0  0  0  0  0  0  0  0  0
    3.6002    0.8662   21.3686 C   0  0  0  0  0  0  0  0  0  0  0  0
    2.8028   -0.1285   20.8453 C   0  0  0  0  0  0  0  0  0  0  0  0
    2.6908   -0.2155   19.4738 C   0  0  0  0  0  0  0  0  0  0  0  0
    3.3616    0.6700   18.7206 N   0  0  0  0  0  0  0  0  0  0  0  0
    4.1466    1.6495   19.2297 C   0  0  0  0  0  0  0  0  0  0  0  0
 19 20  1  0  0  0
 20 21  1  0  0  0
 21 22  1  0  0  0
 22 23  1  0  0  0
 23 18  1  0  0  0
 18 12  1  0  0  0
 12 13  2  0  0  0
 13 14  1  0  0  0
 14 15  2  0  0  0
 15 16  1  0  0  0
 16 17  2  0  0  0
 15  8  1  0  0  0
  8  9  2  0  0  0
  8 10  1  0  0  0
 10  1  1  0  0  0
  1  2  2  0  0  0
  2  3  1  0  0  0
  3  4  2  0  0  0
  4  5  1  0  0  0
  4  6  1  0  0  0
  6 26  1  0  0  0
 26 28  1  0  0  0
 28 29  2  0  0  0
 29 30  1  0  0  0
 30 31  2  0  0  0
 31 32  1  0  0  0
 30 33  1  0  0  0
 33 34  2  0  0  0
 34 35  1  0  0  0
 35 36  2  0  0  0
 36 37  1  0  0  0
 37 38  2  0  0  0
  6  7  2  0  0  0
 23 24  1  0  0  0
 24 25  1  0  0  0
 25 20  1  0  0  0
 17 12  1  0  0  0
  7  1  1  0  0  0
 32 28  1  0  0  0
 38 33  1  0  0  0
 10 11  1  0  0  0
 26 27  1  0  0  0
M  END
> <minimizedAffinity>
-8.36450

> <CNNscore>
0.2553893626

> <CNNaffinity>
6.4032731056

> <CNN_VS>
1.6353278160

> <CNNaffinity_variance>
0.2828692496

$$$$
[H]c1nc([H])c(-c2nc(N([H])c3c([H])c(N([H])C(=O)c4c([H])c([H])c(C([H])([H])N5C([H])([H])C([H])([H])N(C([H])([H])[H])C([H])([H])C5([H])[H])c([H])c4[H])c([H])c([H])c3C([H])([H])[H])sc2[H])c([H])c1[H]


 38 42  0  0  0  0  0  0  0  0999 V2000
    4.4554    2.5180   19.7847 C   0  0  0  0  0  0  0  0  0  0  0  0
    4.7301    1.2719   20.3621 C   0  0  0  0  0  0  0  0  0  0  0  0
    5.1690    1.2480   21.6589 C   0  0  0  0  0  0  0  0  0  0  0  0
    5.3446    2.3920   22.3963 C   0  0  0  0  0  0  0  0  0  0  0  0
    5.8182    2.2666   23.7744 C   0  0  0  0  0  0  0  0  0  0  0  0
    5.0763    3.6514   21.8413 C   0  0  0  0  0  0  0  0  0  0  0  0
    4.6375    3.6713   20.5454 C   0  0  0  0  0  0  0  0  0  0  0  0
    4.5768    3.1098   17.3332 C   0  0  0  0  0  0  0  0  0  0  0  0
    5.6216    3.7811   17.3716 O   0  0  0  0  0  0  0  0  0  0  0  0
    3.9899    2.4919   18.4534 N   0  0  0  0  0  0  0  0  0  0  0  0
    3.0789    1.9491   18.2766 H   0  0  0  0  0  0  0  0  0  0  0  0
    2.7864    2.7207   13.4365 C   0  0  0  0  0  0  0  0  0  0  0  0
    3.5073    3.8444   13.7760 C   0  0  0  0  0  0  0  0  0  0  0  0
    4.0897    3.9772   15.0455 C   0  0  0  0  0  0  0  0  0  0  0  0
    3.9617    2.9940   15.9909 C   0  0  0  0  0  0  0  0  0  0  0  0
    3.2333    1.8635   15.6425 C   0  0  0  0  0  0  0  0  0  0  0  0
    2.6621    1.7363   14.3937 C   0  0  0  0  0  0  0  0  0  0  0  0
    2.1706    2.5996   12.0852 C   0  0  0  0  0  0  0  0  0  0  0  0
   -0.3632    6.2597   10.1937 C   0  0  0  0  0  0  0  0  0  0  0  0
   -0.0807    4.9656    9.6474 N   0  0  0  0  0  0  0  0  0  0  0  0
    1.3012    4.8389    9.3079 C   0  0  0  0  0  0  0  0  0  0  0  0
    2.0338    3.7853   10.1000 C   0  0  0  0  0  0  0  0  0  0  0  0
    1.7787    3.8798   11.5273 N   0  0  0  0  0  0  0  0  0  0  0  0
    0.3541    4.0114   11.7954 C   0  0  0  0  0  0  0  0  0  0  0  0
   -0.4672    3.8846   10.5286 C   0  0  0  0  0  0  0  0  0  0  0  0
    5.2805    4.7358   22.6604 N   0  0  0  0  0  0  0  0  0  0  0  0
    5.0496    4.6722   23.6900 H   0  0  0  0  0  0  0  0  0  0  0  0
    5.7956    6.0328   22.3020 C   0  0  0  0  0  0  0  0  0  0  0  0
    5.1721    6.9468   21.5677 N   0  0  0  0  0  0  0  0  0  0  0  0
    5.7335    8.0717   21.3159 C   0  0  0  0  0  0  0  0  0  0  0  0
    6.9891    8.2985   21.8255 C   0  0  0  0  0  0  0  0  0  0  0  0
    7.2625    6.8308   22.6475 S   0  0  0  0  0  0  0  0  0  0  0  0
    5.0527    9.1188   20.4910 C   0  0  0  0  0  0  0  0  0  0  0  0
    4.0505    8.7730   19.6050 C   0  0  0  0  0  0  0  0  0  0  0  0
    3.4011    9.7088   18.8293 C   0  0  0  0  0  0  0  0  0  0  0  0
    3.7778   11.0292   18.9551 C   0  0  0  0  0  0  0  0  0  0  0  0
    4.7542   11.3351   19.8236 N   0  0  0  0  0  0  0  0  0  0  0  0
    5.3956   10.4194   20.5884 C   0  0  0  0  0  0  0  0  0  0  0  0
 19 20  1  0  0  0
 20 21  1  0  0  0
 21 22  1  0  0  0
 22 23  1  0  0  0
 23 18  1  0  0  0
 18 12  1  0  0  0
 12 13  2  0  0  0
 13 14  1  0  0  0
 14 15  2  0  0  0
 15 16  1  0  0  0
 16 17  2  0  0  0
 15  8  1  0  0  0
  8  9  2  0  0  0
  8 10  1  0  0  0
 10  1  1  0  0  0
  1  2  2  0  0  0
  2  3  1  0  0  0
  3  4  2  0  0  0
  4  5  1  0  0  0
  4  6  1  0  0  0
  6 26  1  0  0  0
 26 28  1  0  0  0
 28 29  2  0  0  0
 29 30  1  0  0  0
 30 31  2  0  0  0
 31 32  1  0  0  0
 30 33  1  0  0  0
 33 34  2  0  0  0
 34 35  1  0  0  0
 35 36  2  0  0  0
 36 37  1  0  0  0
 37 38  2  0  0  0
  6  7  2  0  0  0
 23 24  1  0  0  0
 24 25  1  0  0  0
 25 20  1  0  0  0
 17 12  1  0  0  0
  7  1  1  0  0  0
 32 28  1  0  0  0
 38 33  1  0  0  0
 10 11  1  0  0  0
 26 27  1  0  0  0
M  END
> <minimizedAffinity>
-9.67119

> <CNNscore>
0.2499467134

> <CNNaffinity>
6.4112558365

> <CNN_VS>
1.6024723053

> <CNNaffinity_variance>
0.2069784403

$$$$
[H]c1nc([H])c(-c2nc(N([H])c3c([H])c(N([H])C(=O)c4c([H])c([H])c(C([H])([H])N5C([H])([H])C([H])([H])N(C([H])([H])[H])C([H])([H])C5([H])[H])c([H])c4[H])c([H])c([H])c3C([H])([H])[H])sc2[H])c([H])c1[H]


 38 42  0  0  0  0  0  0  0  0999 V2000
    3.9241    1.8393   18.2403 C   0  0  0  0  0  0  0  0  0  0  0  0
    3.4133    0.7682   18.9843 C   0  0  0  0  0  0  0  0  0  0  0  0
    3.6831    0.7323   20.3262 C   0  0  0  0  0  0  0  0  0  0  0  0
    4.4277    1.7004   20.9521 C   0  0  0  0  0  0  0  0  0  0  0  0
    4.6639    1.5765   22.3901 C   0  0  0  0  0  0  0  0  0  0  0  0
    4.9498    2.7827   20.2295 C   0  0  0  0  0  0  0  0  0  0  0  0
    4.6779    2.8154   18.8890 C   0  0  0  0  0  0  0  0  0  0  0  0
    2.9024    2.8341   16.1566 C   0  0  0  0  0  0  0  0  0  0  0  0
    2.4552    3.8751   16.6665 O   0  0  0  0  0  0  0  0  0  0  0  0
    3.6063    1.8428   16.8659 N   0  0  0  0  0  0  0  0  0  0  0  0
    3.9274    0.9876   16.2993 H   0  0  0  0  0  0  0  0  0  0  0  0
    2.1669    2.4650   11.9300 C   0  0  0  0  0  0  0  0  0  0  0  0
    1.4243    1.7496   12.8436 C   0  0  0  0  0  0  0  0  0  0  0  0
    1.6625    1.8641   14.2215 C   0  0  0  0  0  0  0  0  0  0  0  0
    2.6414    2.6911   14.7058 C   0  0  0  0  0  0  0  0  0  0  0  0
    3.3868    3.4095   13.7795 C   0  0  0  0  0  0  0  0  0  0  0  0
    3.1501    3.2946   12.4256 C   0  0  0  0  0  0  0  0  0  0  0  0
    1.9031    2.3266   10.4702 C   0  0  0  0  0  0  0  0  0  0  0  0
   -1.2112   -0.7624    8.4320 C   0  0  0  0  0  0  0  0  0  0  0  0
   -0.7103    0.4871    7.9413 N   0  0  0  0  0  0  0  0  0  0  0  0
   -1.2261    1.5834    8.6984 C   0  0  0  0  0  0  0  0  0  0  0  0
   -0.1728    2.3644    9.4434 C   0  0  0  0  0  0  0  0  0  0  0  0
    0.7401    1.5091   10.1822 N   0  0  0  0  0  0  0  0  0  0  0  0
    1.2189    0.4148    9.3504 C   0  0  0  0  0  0  0  0  0  0  0  0
    0.7355    0.5465    7.9207 C   0  0  0  0  0  0  0  0  0  0  0  0
    5.6796    3.7004   20.9465 N   0  0  0  0  0  0  0  0  0  0  0  0
    6.4856    3.3799   21.5506 H   0  0  0  0  0  0  0  0  0  0  0  0
    5.4979    5.1286   21.0023 C   0  0  0  0  0  0  0  0  0  0  0  0
    6.1469    5.9695   21.7993 N   0  0  0  0  0  0  0  0  0  0  0  0
    5.8998    7.2269   21.7567 C   0  0  0  0  0  0  0  0  0  0  0  0
    4.9509    7.6718   20.8683 C   0  0  0  0  0  0  0  0  0  0  0  0
    4.4816    6.1997   20.1491 S   0  0  0  0  0  0  0  0  0  0  0  0
    6.6167    8.1958   22.6442 C   0  0  0  0  0  0  0  0  0  0  0  0
    7.6951    7.7862   23.4045 C   0  0  0  0  0  0  0  0  0  0  0  0
    8.3798    8.6491   24.2326 C   0  0  0  0  0  0  0  0  0  0  0  0
    7.9601    9.9612   24.2912 C   0  0  0  0  0  0  0  0  0  0  0  0
    6.9099   10.3301   23.5415 N   0  0  0  0  0  0  0  0  0  0  0  0
    6.2334    9.4862   22.7260 C   0  0  0  0  0  0  0  0  0  0  0  0
 19 20  1  0  0  0
 20 21  1  0  0  0
 21 22  1  0  0  0
 22 23  1  0  0  0
 23 18  1  0  0  0
 18 12  1  0  0  0
 12 13  2  0  0  0
 13 14  1  0  0  0
 14 15  2  0  0  0
 15 16  1  0  0  0
 16 17  2  0  0  0
 15  8  1  0  0  0
  8  9  2  0  0  0
  8 10  1  0  0  0
 10  1  1  0  0  0
  1  2  2  0  0  0
  2  3  1  0  0  0
  3  4  2  0  0  0
  4  5  1  0  0  0
  4  6  1  0  0  0
  6 26  1  0  0  0
 26 28  1  0  0  0
 28 29  2  0  0  0
 29 30  1  0  0  0
 30 31  2  0  0  0
 31 32  1  0  0  0
 30 33  1  0  0  0
 33 34  2  0  0  0
 34 35  1  0  0  0
 35 36  2  0  0  0
 36 37  1  0  0  0
 37 38  2  0  0  0
  6  7  2  0  0  0
 23 24  1  0  0  0
 24 25  1  0  0  0
 25 20  1  0  0  0
 17 12  1  0  0  0
  7  1  1  0  0  0
 32 28  1  0  0  0
 38 33  1  0  0  0
 10 11  1  0  0  0
 26 27  1  0  0  0
M  END
> <minimizedAffinity>
-8.31723

> <CNNscore>
0.2383090407

> <CNNaffinity>
6.2726736069

> <CNN_VS>
1.4948347807

> <CNNaffinity_variance>
0.1925652325

$$$$
[H]c1nc([H])c(-c2nc(N([H])c3c([H])c(N([H])C(=O)c4c([H])c([H])c(C([H])([H])N5C([H])([H])C([H])([H])N(C([H])([H])[H])C([H])([H])C5([H])[H])c([H])c4[H])c([H])c([H])c3C([H])([H])[H])sc2[H])c([H])c1[H]


 38 42  0  0  0  0  0  0  0  0999 V2000
    4.2361    8.6215   18.8237 C   0  0  0  0  0  0  0  0  0  0  0  0
    4.6881    9.9137   19.1200 C   0  0  0  0  0  0  0  0  0  0  0  0
    5.2145   10.1402   20.3635 C   0  0  0  0  0  0  0  0  0  0  0  0
    5.3100    9.1528   21.3119 C   0  0  0  0  0  0  0  0  0  0  0  0
    5.8867    9.4902   22.6130 C   0  0  0  0  0  0  0  0  0  0  0  0
    4.8650    7.8514   21.0397 C   0  0  0  0  0  0  0  0  0  0  0  0
    4.3399    7.6287   19.7960 C   0  0  0  0  0  0  0  0  0  0  0  0
    4.3415    7.7788   16.4460 C   0  0  0  0  0  0  0  0  0  0  0  0
    5.4704    7.2624   16.4981 O   0  0  0  0  0  0  0  0  0  0  0  0
    3.7177    8.4319   17.5256 N   0  0  0  0  0  0  0  0  0  0  0  0
    2.7423    8.8421   17.3362 H   0  0  0  0  0  0  0  0  0  0  0  0
    2.3471    7.4861   12.6409 C   0  0  0  0  0  0  0  0  0  0  0  0
    3.0015    6.4019   13.1832 C   0  0  0  0  0  0  0  0  0  0  0  0
    3.6555    6.4933   14.4211 C   0  0  0  0  0  0  0  0  0  0  0  0
    3.6658    7.6637   15.1331 C   0  0  0  0  0  0  0  0  0  0  0  0
    3.0044    8.7534   14.5807 C   0  0  0  0  0  0  0  0  0  0  0  0
    2.3626    8.6601   13.3636 C   0  0  0  0  0  0  0  0  0  0  0  0
    1.6625    7.3717   11.3226 C   0  0  0  0  0  0  0  0  0  0  0  0
   -1.5520    4.0809    9.8284 C   0  0  0  0  0  0  0  0  0  0  0  0
   -1.7348    5.4733   10.1126 N   0  0  0  0  0  0  0  0  0  0  0  0
   -1.6188    5.7342   11.5124 C   0  0  0  0  0  0  0  0  0  0  0  0
   -0.4607    6.6291   11.8761 C   0  0  0  0  0  0  0  0  0  0  0  0
    0.7818    6.2220   11.2425 N   0  0  0  0  0  0  0  0  0  0  0  0
    0.5853    5.9694    9.8225 C   0  0  0  0  0  0  0  0  0  0  0  0
   -0.8201    6.3233    9.3810 C   0  0  0  0  0  0  0  0  0  0  0  0
    5.0058    6.9334   22.0527 N   0  0  0  0  0  0  0  0  0  0  0  0
    4.7884    7.2084   23.0500 H   0  0  0  0  0  0  0  0  0  0  0  0
    5.4346    5.5616   21.9525 C   0  0  0  0  0  0  0  0  0  0  0  0
    4.6989    4.5408   21.5281 N   0  0  0  0  0  0  0  0  0  0  0  0
    5.1935    3.3587   21.4805 C   0  0  0  0  0  0  0  0  0  0  0  0
    6.4967    3.1843   21.8789 C   0  0  0  0  0  0  0  0  0  0  0  0
    6.9113    4.7828   22.3003 S   0  0  0  0  0  0  0  0  0  0  0  0
    4.3859    2.1910   21.0065 C   0  0  0  0  0  0  0  0  0  0  0  0
    3.6929    1.4048   21.9067 C   0  0  0  0  0  0  0  0  0  0  0  0
    2.9391    0.3223   21.5080 C   0  0  0  0  0  0  0  0  0  0  0  0
    2.8866    0.0294   20.1616 C   0  0  0  0  0  0  0  0  0  0  0  0
    3.5699    0.8108   19.3108 N   0  0  0  0  0  0  0  0  0  0  0  0
    4.3122    1.8758   19.6973 C   0  0  0  0  0  0  0  0  0  0  0  0
 19 20  1  0  0  0
 20 21  1  0  0  0
 21 22  1  0  0  0
 22 23  1  0  0  0
 23 18  1  0  0  0
 18 12  1  0  0  0
 12 13  2  0  0  0
 13 14  1  0  0  0
 14 15  2  0  0  0
 15 16  1  0  0  0
 16 17  2  0  0  0
 15  8  1  0  0  0
  8  9  2  0  0  0
  8 10  1  0  0  0
 10  1  1  0  0  0
  1  2  2  0  0  0
  2  3  1  0  0  0
  3  4  2  0  0  0
  4  5  1  0  0  0
  4  6  1  0  0  0
  6 26  1  0  0  0
 26 28  1  0  0  0
 28 29  2  0  0  0
 29 30  1  0  0  0
 30 31  2  0  0  0
 31 32  1  0  0  0
 30 33  1  0  0  0
 33 34  2  0  0  0
 34 35  1  0  0  0
 35 36  2  0  0  0
 36 37  1  0  0  0
 37 38  2  0  0  0
  6  7  2  0  0  0
 23 24  1  0  0  0
 24 25  1  0  0  0
 25 20  1  0  0  0
 17 12  1  0  0  0
  7  1  1  0  0  0
 32 28  1  0  0  0
 38 33  1  0  0  0
 10 11  1  0  0  0
 26 27  1  0  0  0
M  END
> <minimizedAffinity>
-8.98504

> <CNNscore>
0.2231786400

> <CNNaffinity>
6.2056322098

> <CNN_VS>
1.3849645853

> <CNNaffinity_variance>
0.3351982534

$$$$
[H]c1nc([H])c(-c2nc(N([H])c3c([H])c(N([H])C(=O)c4c([H])c([H])c(C([H])([H])N5C([H])([H])C([H])([H])N(C([H])([H])[H])C([H])([H])C5([H])[H])c([H])c4[H])c([H])c([H])c3C([H])([H])[H])sc2[H])c([H])c1[H]


 38 42  0  0  0  0  0  0  0  0999 V2000
    2.6194    7.4105   10.6366 C   0  0  0  0  0  0  0  0  0  0  0  0
    2.0259    8.4546   11.3572 C   0  0  0  0  0  0  0  0  0  0  0  0
    1.2046    8.1274   12.4026 C   0  0  0  0  0  0  0  0  0  0  0  0
    0.9508    6.8264   12.7582 C   0  0  0  0  0  0  0  0  0  0  0  0
    0.0588    6.5749   13.8898 C   0  0  0  0  0  0  0  0  0  0  0  0
    1.5329    5.7635   12.0530 C   0  0  0  0  0  0  0  0  0  0  0  0
    2.3533    6.0943   11.0091 C   0  0  0  0  0  0  0  0  0  0  0  0
    3.1387    8.5881    8.4644 C   0  0  0  0  0  0  0  0  0  0  0  0
    2.0126    9.0714    8.2592 O   0  0  0  0  0  0  0  0  0  0  0  0
    3.4703    7.7961    9.5797 N   0  0  0  0  0  0  0  0  0  0  0  0
    4.4819    7.4351    9.6250 H   0  0  0  0  0  0  0  0  0  0  0  0
    6.0743    9.4588    5.4369 C   0  0  0  0  0  0  0  0  0  0  0  0
    5.9349   10.2688    6.5425 C   0  0  0  0  0  0  0  0  0  0  0  0
    4.9776    9.9910    7.5299 C   0  0  0  0  0  0  0  0  0  0  0  0
    4.1489    8.9049    7.4287 C   0  0  0  0  0  0  0  0  0  0  0  0
    4.2943    8.0922    6.3114 C   0  0  0  0  0  0  0  0  0  0  0  0
    5.2363    8.3682    5.3426 C   0  0  0  0  0  0  0  0  0  0  0  0
    7.0930    9.7725    4.3959 C   0  0  0  0  0  0  0  0  0  0  0  0
   10.8666    6.7953    3.8568 C   0  0  0  0  0  0  0  0  0  0  0  0
   10.6146    8.0696    3.2522 N   0  0  0  0  0  0  0  0  0  0  0  0
    9.5394    7.9928    2.3147 C   0  0  0  0  0  0  0  0  0  0  0  0
    8.3386    8.8253    2.6881 C   0  0  0  0  0  0  0  0  0  0  0  0
    7.9356    8.6374    4.0713 N   0  0  0  0  0  0  0  0  0  0  0  0
    9.0812    8.7235    4.9652 C   0  0  0  0  0  0  0  0  0  0  0  0
   10.3430    9.1099    4.2210 C   0  0  0  0  0  0  0  0  0  0  0  0
    1.2191    4.4979   12.4872 N   0  0  0  0  0  0  0  0  0  0  0  0
    0.3714    4.0001   12.0987 H   0  0  0  0  0  0  0  0  0  0  0  0
    1.9185    3.6951   13.4579 C   0  0  0  0  0  0  0  0  0  0  0  0
    2.3428    4.1006   14.6491 N   0  0  0  0  0  0  0  0  0  0  0  0
    2.9548    3.2899   15.4317 C   0  0  0  0  0  0  0  0  0  0  0  0
    3.1554    2.0006   15.0018 C   0  0  0  0  0  0  0  0  0  0  0  0
    2.4249    2.0667   13.4634 S   0  0  0  0  0  0  0  0  0  0  0  0
    3.4433    3.7216   16.7790 C   0  0  0  0  0  0  0  0  0  0  0  0
    4.5755    3.1536   17.3305 C   0  0  0  0  0  0  0  0  0  0  0  0
    5.0553    3.5252   18.5678 C   0  0  0  0  0  0  0  0  0  0  0  0
    4.3692    4.4979   19.2638 C   0  0  0  0  0  0  0  0  0  0  0  0
    3.2728    5.0315   18.7029 N   0  0  0  0  0  0  0  0  0  0  0  0
    2.7970    4.6699   17.4874 C   0  0  0  0  0  0  0  0  0  0  0  0
 19 20  1  0  0  0
 20 21  1  0  0  0
 21 22  1  0  0  0
 22 23  1  0  0  0
 23 18  1  0  0  0
 18 12  1  0  0  0
 12 13  2  0  0  0
 13 14  1  0  0  0
 14 15  2  0  0  0
 15 16  1  0  0  0
 16 17  2  0  0  0
 15  8  1  0  0  0
  8  9  2  0  0  0
  8 10  1  0  0  0
 10  1  1  0  0  0
  1  2  2  0  0  0
  2  3  1  0  0  0
  3  4  2  0  0  0
  4  5  1  0  0  0
  4  6  1  0  0  0
  6 26  1  0  0  0
 26 28  1  0  0  0
 28 29  2  0  0  0
 29 30  1  0  0  0
 30 31  2  0  0  0
 31 32  1  0  0  0
 30 33  1  0  0  0
 33 34  2  0  0  0
 34 35  1  0  0  0
 35 36  2  0  0  0
 36 37  1  0  0  0
 37 38  2  0  0  0
  6  7  2  0  0  0
 23 24  1  0  0  0
 24 25  1  0  0  0
 25 20  1  0  0  0
 17 12  1  0  0  0
  7  1  1  0  0  0
 32 28  1  0  0  0
 38 33  1  0  0  0
 10 11  1  0  0  0
 26 27  1  0  0  0
M  END
> <minimizedAffinity>
-7.83627

> <CNNscore>
0.2194714844

> <CNNaffinity>
5.6149101257

> <CNN_VS>
1.2323126793

> <CNNaffinity_variance>
0.0358658843

$$$$
[H]c1nc([H])c(-c2nc(N([H])c3c([H])c(N([H])C(=O)c4c([H])c([H])c(C([H])([H])N5C([H])([H])C([H])([H])N(C([H])([H])[H])C([H])([H])C5([H])[H])c([H])c4[H])c([H])c([H])c3C([H])([H])[H])sc2[H])c([H])c1[H]


 38 42  0  0  0  0  0  0  0  0999 V2000
    1.3801    5.8051   14.3585 C   0  0  0  0  0  0  0  0  0  0  0  0
    0.4222    6.8221   14.2589 C   0  0  0  0  0  0  0  0  0  0  0  0
   -0.6109    6.6467   13.3776 C   0  0  0  0  0  0  0  0  0  0  0  0
   -0.7319    5.5210   12.6020 C   0  0  0  0  0  0  0  0  0  0  0  0
   -1.8700    5.4236   11.6885 C   0  0  0  0  0  0  0  0  0  0  0  0
    0.2135    4.4888   12.6834 C   0  0  0  0  0  0  0  0  0  0  0  0
    1.2443    4.6674   13.5654 C   0  0  0  0  0  0  0  0  0  0  0  0
    2.5833    5.3954   16.5401 C   0  0  0  0  0  0  0  0  0  0  0  0
    1.8141    4.5347   16.9998 O   0  0  0  0  0  0  0  0  0  0  0  0
    2.4159    6.0225   15.2911 N   0  0  0  0  0  0  0  0  0  0  0  0
    3.1532    6.7575   15.0233 H   0  0  0  0  0  0  0  0  0  0  0  0
    5.9425    6.3523   19.0583 C   0  0  0  0  0  0  0  0  0  0  0  0
    4.6529    6.6077   19.4699 C   0  0  0  0  0  0  0  0  0  0  0  0
    3.5554    6.3007   18.6516 C   0  0  0  0  0  0  0  0  0  0  0  0
    3.7284    5.7364   17.4153 C   0  0  0  0  0  0  0  0  0  0  0  0
    5.0312    5.4815   17.0060 C   0  0  0  0  0  0  0  0  0  0  0  0
    6.1078    5.7846   17.8129 C   0  0  0  0  0  0  0  0  0  0  0  0
    7.0960    6.6899   19.9388 C   0  0  0  0  0  0  0  0  0  0  0  0
    7.2909   10.6027   22.7756 C   0  0  0  0  0  0  0  0  0  0  0  0
    8.1020    9.4217   22.7910 N   0  0  0  0  0  0  0  0  0  0  0  0
    7.3548    8.2879   23.2348 C   0  0  0  0  0  0  0  0  0  0  0  0
    7.2034    7.2069   22.1942 C   0  0  0  0  0  0  0  0  0  0  0  0
    6.7842    7.7268   20.9039 N   0  0  0  0  0  0  0  0  0  0  0  0
    7.5846    8.8807   20.5210 C   0  0  0  0  0  0  0  0  0  0  0  0
    8.7060    9.1353   21.5074 C   0  0  0  0  0  0  0  0  0  0  0  0
    0.0034    3.4024   11.8683 N   0  0  0  0  0  0  0  0  0  0  0  0
   -0.9742    3.0240   11.7327 H   0  0  0  0  0  0  0  0  0  0  0  0
    0.9811    2.6518   11.1223 C   0  0  0  0  0  0  0  0  0  0  0  0
    2.1953    3.0687   10.7829 N   0  0  0  0  0  0  0  0  0  0  0  0
    2.9817    2.3060   10.1166 C   0  0  0  0  0  0  0  0  0  0  0  0
    2.5315    1.0555    9.7686 C   0  0  0  0  0  0  0  0  0  0  0  0
    0.9696    1.0848   10.4498 S   0  0  0  0  0  0  0  0  0  0  0  0
    4.3548    2.7515    9.7212 C   0  0  0  0  0  0  0  0  0  0  0  0
    4.8496    3.9675   10.1516 C   0  0  0  0  0  0  0  0  0  0  0  0
    6.1084    4.4111    9.8085 C   0  0  0  0  0  0  0  0  0  0  0  0
    6.8856    3.6007    9.0081 C   0  0  0  0  0  0  0  0  0  0  0  0
    6.3784    2.4251    8.6055 N   0  0  0  0  0  0  0  0  0  0  0  0
    5.1420    1.9844    8.9398 C   0  0  0  0  0  0  0  0  0  0  0  0
 19 20  1  0  0  0
 20 21  1  0  0  0
 21 22  1  0  0  0
 22 23  1  0  0  0
 23 18  1  0  0  0
 18 12  1  0  0  0
 12 13  2  0  0  0
 13 14  1  0  0  0
 14 15  2  0  0  0
 15 16  1  0  0  0
 16 17  2  0  0  0
 15  8  1  0  0  0
  8  9  2  0  0  0
  8 10  1  0  0  0
 10  1  1  0  0  0
  1  2  2  0  0  0
  2  3  1  0  0  0
  3  4  2  0  0  0
  4  5  1  0  0  0
  4  6  1  0  0  0
  6 26  1  0  0  0
 26 28  1  0  0  0
 28 29  2  0  0  0
 29 30  1  0  0  0
 30 31  2  0  0  0
 31 32  1  0  0  0
 30 33  1  0  0  0
 33 34  2  0  0  0
 34 35  1  0  0  0
 35 36  2  0  0  0
 36 37  1  0  0  0
 37 38  2  0  0  0
  6  7  2  0  0  0
 23 24  1  0  0  0
 24 25  1  0  0  0
 25 20  1  0  0  0
 17 12  1  0  0  0
  7  1  1  0  0  0
 32 28  1  0  0  0
 38 33  1  0  0  0
 10 11  1  0  0  0
 26 27  1  0  0  0
M  END
> <minimizedAffinity>
-7.42332

> <CNNscore>
0.2034939080

> <CNNaffinity>
6.0652933121

> <CNN_VS>
1.2342501879

> <CNNaffinity_variance>
0.1162644401

$$$$
[H]c1nc2c([H])c([H])c([H])c([H])n2c1C(=O)N([H])c1c([H])c(-c2noc(C3([H])C([H])([H])C(F)(F)C3([H])[H])n2)c([H])c([H])c1C([H])([H])[H]


 31 35  0  0  0  0  0  0  0  0999 V2000
    4.5491    1.7278   23.8830 C   0  0  0  0  0  0  0  0  0  0  0  0
    4.1848    1.4809   22.4476 C   0  0  0  0  0  0  0  0  0  0  0  0
    3.4931    0.3562   22.0788 C   0  0  0  0  0  0  0  0  0  0  0  0
    3.1479    0.1097   20.7670 C   0  0  0  0  0  0  0  0  0  0  0  0
    3.4809    0.9820   19.7607 C   0  0  0  0  0  0  0  0  0  0  0  0
    4.1881    2.1313   20.1403 C   0  0  0  0  0  0  0  0  0  0  0  0
    4.5435    2.3974   21.4465 C   0  0  0  0  0  0  0  0  0  0  0  0
    3.1359    0.7594   18.3649 C   0  0  0  0  0  0  0  0  0  0  0  0
    2.4268   -0.2636   17.8599 N   0  0  0  0  0  0  0  0  0  0  0  0
    2.3338   -0.1044   16.5679 O   0  0  0  0  0  0  0  0  0  0  0  0
    2.9532    0.9861   16.1845 C   0  0  0  0  0  0  0  0  0  0  0  0
    3.4520    1.5227   17.3050 N   0  0  0  0  0  0  0  0  0  0  0  0
    3.0519    1.4756   14.8028 C   0  0  0  0  0  0  0  0  0  0  0  0
    3.5644    2.9149   14.6760 C   0  0  0  0  0  0  0  0  0  0  0  0
    2.5337    3.0880   13.5596 C   0  0  0  0  0  0  0  0  0  0  0  0
    3.0419    2.5927   12.3910 F   0  0  0  0  0  0  0  0  0  0  0  0
    1.9288    4.3055   13.5134 F   0  0  0  0  0  0  0  0  0  0  0  0
    1.7239    1.9905   14.2622 C   0  0  0  0  0  0  0  0  0  0  0  0
    5.2526    3.5434   21.8498 N   0  0  0  0  0  0  0  0  0  0  0  0
    5.7848    4.5966   21.1088 C   0  0  0  0  0  0  0  0  0  0  0  0
    5.6526    4.5618   19.8287 O   0  0  0  0  0  0  0  0  0  0  0  0
    5.4482    3.5895   22.9071 H   0  0  0  0  0  0  0  0  0  0  0  0
    6.4903    5.7427   21.6565 C   0  0  0  0  0  0  0  0  0  0  0  0
    7.7802    5.6355   22.2038 C   0  0  0  0  0  0  0  0  0  0  0  0
    8.1691    6.8476   22.5862 N   0  0  0  0  0  0  0  0  0  0  0  0
    7.1831    7.7317   22.3063 C   0  0  0  0  0  0  0  0  0  0  0  0
    7.1142    9.0976   22.4978 C   0  0  0  0  0  0  0  0  0  0  0  0
    6.0122    9.8129   22.1176 C   0  0  0  0  0  0  0  0  0  0  0  0
    4.9892    9.1115   21.5414 C   0  0  0  0  0  0  0  0  0  0  0  0
    5.0788    7.7307   21.3575 C   0  0  0  0  0  0  0  0  0  0  0  0
    6.1615    7.0248   21.7332 N   0  0  0  0  0  0  0  0  0  0  0  0
  1  2  1  0  0  0
  2  3  2  0  0  0
  3  4  1  0  0  0
  4  5  2  0  0  0
  5  6  1  0  0  0
  6  7  2  0  0  0
  7 19  1  0  0  0
 19 20  1  0  0  0
 20 21  2  0  0  0
 20 23  1  0  0  0
 23 24  2  0  0  0
 24 25  1  0  0  0
 25 26  2  0  0  0
 26 27  1  0  0  0
 27 28  2  0  0  0
 28 29  1  0  0  0
 29 30  2  0  0  0
 30 31  1  0  0  0
  5  8  1  0  0  0
  8  9  2  0  0  0
  9 10  1  0  0  0
 10 11  1  0  0  0
 11 12  2  0  0  0
 11 13  1  0  0  0
 13 14  1  0  0  0
 14 15  1  0  0  0
 15 16  1  0  0  0
 15 17  1  0  0  0
 15 18  1  0  0  0
  7  2  1  0  0  0
 31 23  1  0  0  0
 12  8  1  0  0  0
 18 13  1  0  0  0
 31 26  1  0  0  0
 19 22  1  0  0  0
M  END
> <minimizedAffinity>
-10.20444

> <CNNscore>
0.5435795188

> <CNNaffinity>
6.9081749916

> <CNN_VS>
3.7551424503

> <CNNaffinity_variance>
0.3121920228

$$$$
[H]c1nc2c([H])c([H])c([H])c([H])n2c1C(=O)N([H])c1c([H])c(-c2noc(C3([H])C([H])([H])C(F)(F)C3([H])[H])n2)c([H])c([H])c1C([H])([H])[H]


 31 35  0  0  0  0  0  0  0  0999 V2000
    4.9962    2.1871   23.7629 C   0  0  0  0  0  0  0  0  0  0  0  0
    4.5511    1.8488   22.3696 C   0  0  0  0  0  0  0  0  0  0  0  0
    3.8313    0.7100   22.1159 C   0  0  0  0  0  0  0  0  0  0  0  0
    3.4121    0.3801   20.8445 C   0  0  0  0  0  0  0  0  0  0  0  0
    3.6958    1.1792   19.7649 C   0  0  0  0  0  0  0  0  0  0  0  0
    4.4319    2.3431   20.0268 C   0  0  0  0  0  0  0  0  0  0  0  0
    4.8611    2.6920   21.2907 C   0  0  0  0  0  0  0  0  0  0  0  0
    3.2724    0.8676   18.4082 C   0  0  0  0  0  0  0  0  0  0  0  0
    2.5381   -0.1849   18.0114 N   0  0  0  0  0  0  0  0  0  0  0  0
    2.3714   -0.1091   16.7192 O   0  0  0  0  0  0  0  0  0  0  0  0
    2.9653    0.9536   16.2318 C   0  0  0  0  0  0  0  0  0  0  0  0
    3.5258    1.5606   17.2851 N   0  0  0  0  0  0  0  0  0  0  0  0
    2.9840    1.3530   14.8181 C   0  0  0  0  0  0  0  0  0  0  0  0
    3.4905    2.7784   14.5694 C   0  0  0  0  0  0  0  0  0  0  0  0
    2.3967    2.8851   13.5060 C   0  0  0  0  0  0  0  0  0  0  0  0
    2.8351    2.3131   12.3441 F   0  0  0  0  0  0  0  0  0  0  0  0
    1.7921    4.1004   13.4167 F   0  0  0  0  0  0  0  0  0  0  0  0
    1.6276    1.8393   14.3236 C   0  0  0  0  0  0  0  0  0  0  0  0
    5.6004    3.8541   21.5764 N   0  0  0  0  0  0  0  0  0  0  0  0
    5.2346    5.1985   21.5538 C   0  0  0  0  0  0  0  0  0  0  0  0
    4.0317    5.4912   21.2011 O   0  0  0  0  0  0  0  0  0  0  0  0
    6.6337    3.6700   21.8143 H   0  0  0  0  0  0  0  0  0  0  0  0
    6.1011    6.3152   21.8906 C   0  0  0  0  0  0  0  0  0  0  0  0
    5.6484    7.6454   21.8720 C   0  0  0  0  0  0  0  0  0  0  0  0
    6.6510    8.4288   22.2565 N   0  0  0  0  0  0  0  0  0  0  0  0
    7.7308    7.6575   22.5235 C   0  0  0  0  0  0  0  0  0  0  0  0
    8.9950    7.9958   22.9645 C   0  0  0  0  0  0  0  0  0  0  0  0
    9.9463    7.0402   23.1934 C   0  0  0  0  0  0  0  0  0  0  0  0
    9.5840    5.7411   22.9655 C   0  0  0  0  0  0  0  0  0  0  0  0
    8.3008    5.4207   22.5192 C   0  0  0  0  0  0  0  0  0  0  0  0
    7.3642    6.3601   22.2911 N   0  0  0  0  0  0  0  0  0  0  0  0
  1  2  1  0  0  0
  2  3  2  0  0  0
  3  4  1  0  0  0
  4  5  2  0  0  0
  5  6  1  0  0  0
  6  7  2  0  0  0
  7 19  1  0  0  0
 19 20  1  0  0  0
 20 21  2  0  0  0
 20 23  1  0  0  0
 23 24  2  0  0  0
 24 25  1  0  0  0
 25 26  2  0  0  0
 26 27  1  0  0  0
 27 28  2  0  0  0
 28 29  1  0  0  0
 29 30  2  0  0  0
 30 31  1  0  0  0
  5  8  1  0  0  0
  8  9  2  0  0  0
  9 10  1  0  0  0
 10 11  1  0  0  0
 11 12  2  0  0  0
 11 13  1  0  0  0
 13 14  1  0  0  0
 14 15  1  0  0  0
 15 16  1  0  0  0
 15 17  1  0  0  0
 15 18  1  0  0  0
  7  2  1  0  0  0
 31 23  1  0  0  0
 12  8  1  0  0  0
 18 13  1  0  0  0
 31 26  1  0  0  0
 19 22  1  0  0  0
M  END
> <minimizedAffinity>
-9.73129

> <CNNscore>
0.4432155192

> <CNNaffinity>
6.8431229591

> <CNN_VS>
3.0329782963

> <CNNaffinity_variance>
0.3504257202

$$$$
[H]c1nc2c([H])c([H])c([H])c([H])n2c1C(=O)N([H])c1c([H])c(-c2noc(C3([H])C([H])([H])C(F)(F)C3([H])[H])n2)c([H])c([H])c1C([H])([H])[H]


 31 35  0  0  0  0  0  0  0  0999 V2000
    2.7421    6.8436   11.9307 C   0  0  0  0  0  0  0  0  0  0  0  0
    2.8864    5.8205   13.0200 C   0  0  0  0  0  0  0  0  0  0  0  0
    2.4224    6.0679   14.2860 C   0  0  0  0  0  0  0  0  0  0  0  0
    2.5440    5.1428   15.3011 C   0  0  0  0  0  0  0  0  0  0  0  0
    3.1380    3.9228   15.0934 C   0  0  0  0  0  0  0  0  0  0  0  0
    3.6116    3.6721   13.7981 C   0  0  0  0  0  0  0  0  0  0  0  0
    3.5004    4.5833   12.7682 C   0  0  0  0  0  0  0  0  0  0  0  0
    3.2861    2.9194   16.1366 C   0  0  0  0  0  0  0  0  0  0  0  0
    2.7279    1.6981   16.1696 N   0  0  0  0  0  0  0  0  0  0  0  0
    3.1021    1.1020   17.2687 O   0  0  0  0  0  0  0  0  0  0  0  0
    3.8903    1.8753   17.9761 C   0  0  0  0  0  0  0  0  0  0  0  0
    4.0037    3.0067   17.2694 N   0  0  0  0  0  0  0  0  0  0  0  0
    4.4976    1.5287   19.2681 C   0  0  0  0  0  0  0  0  0  0  0  0
    3.6770    0.5450   20.1101 C   0  0  0  0  0  0  0  0  0  0  0  0
    4.0860    1.3818   21.3230 C   0  0  0  0  0  0  0  0  0  0  0  0
    5.3333    1.0040   21.7361 F   0  0  0  0  0  0  0  0  0  0  0  0
    3.1271    1.5261   22.2771 F   0  0  0  0  0  0  0  0  0  0  0  0
    4.2130    2.5619   20.3509 C   0  0  0  0  0  0  0  0  0  0  0  0
    3.9681    4.3532   11.4617 N   0  0  0  0  0  0  0  0  0  0  0  0
    3.3856    3.6843   10.3871 C   0  0  0  0  0  0  0  0  0  0  0  0
    2.2289    3.1478   10.5649 O   0  0  0  0  0  0  0  0  0  0  0  0
    4.9612    4.7253   11.2787 H   0  0  0  0  0  0  0  0  0  0  0  0
    3.9757    3.5298    9.0683 C   0  0  0  0  0  0  0  0  0  0  0  0
    3.2898    3.8875    7.8952 C   0  0  0  0  0  0  0  0  0  0  0  0
    4.0947    3.6644    6.8612 N   0  0  0  0  0  0  0  0  0  0  0  0
    5.2718    3.1788    7.3204 C   0  0  0  0  0  0  0  0  0  0  0  0
    6.4206    2.8112    6.6479 C   0  0  0  0  0  0  0  0  0  0  0  0
    7.5217    2.3567    7.3197 C   0  0  0  0  0  0  0  0  0  0  0  0
    7.4282    2.2858    8.6823 C   0  0  0  0  0  0  0  0  0  0  0  0
    6.2573    2.6619    9.3427 C   0  0  0  0  0  0  0  0  0  0  0  0
    5.1719    3.1071    8.6830 N   0  0  0  0  0  0  0  0  0  0  0  0
  1  2  1  0  0  0
  2  3  2  0  0  0
  3  4  1  0  0  0
  4  5  2  0  0  0
  5  6  1  0  0  0
  6  7  2  0  0  0
  7 19  1  0  0  0
 19 20  1  0  0  0
 20 21  2  0  0  0
 20 23  1  0  0  0
 23 24  2  0  0  0
 24 25  1  0  0  0
 25 26  2  0  0  0
 26 27  1  0  0  0
 27 28  2  0  0  0
 28 29  1  0  0  0
 29 30  2  0  0  0
 30 31  1  0  0  0
  5  8  1  0  0  0
  8  9  2  0  0  0
  9 10  1  0  0  0
 10 11  1  0  0  0
 11 12  2  0  0  0
 11 13  1  0  0  0
 13 14  1  0  0  0
 14 15  1  0  0  0
 15 16  1  0  0  0
 15 17  1  0  0  0
 15 18  1  0  0  0
  7  2  1  0  0  0
 31 23  1  0  0  0
 12  8  1  0  0  0
 18 13  1  0  0  0
 31 26  1  0  0  0
 19 22  1  0  0  0
M  END
> <minimizedAffinity>
-6.87365

> <CNNscore>
0.3945428133

> <CNNaffinity>
6.1505494118

> <CNN_VS>
2.4266550541

> <CNNaffinity_variance>
0.4367904663

$$$$
[H]c1nc2c([H])c([H])c([H])c([H])n2c1C(=O)N([H])c1c([H])c(-c2noc(C3([H])C([H])([H])C(F)(F)C3([H])[H])n2)c([H])c([H])c1C([H])([H])[H]


 31 35  0  0  0  0  0  0  0  0999 V2000
    5.7189    2.8625   22.3614 C   0  0  0  0  0  0  0  0  0  0  0  0
    5.1905    2.6618   20.9705 C   0  0  0  0  0  0  0  0  0  0  0  0
    5.0634    1.4047   20.4387 C   0  0  0  0  0  0  0  0  0  0  0  0
    4.5803    1.1974   19.1642 C   0  0  0  0  0  0  0  0  0  0  0  0
    4.2007    2.2439   18.3610 C   0  0  0  0  0  0  0  0  0  0  0  0
    4.3315    3.5284   18.9070 C   0  0  0  0  0  0  0  0  0  0  0  0
    4.8125    3.7583   20.1794 C   0  0  0  0  0  0  0  0  0  0  0  0
    3.6863    2.0684   17.0114 C   0  0  0  0  0  0  0  0  0  0  0  0
    2.9815    1.0250   16.5435 N   0  0  0  0  0  0  0  0  0  0  0  0
    2.7063    1.2422   15.2864 O   0  0  0  0  0  0  0  0  0  0  0  0
    3.1988    2.3914   14.8908 C   0  0  0  0  0  0  0  0  0  0  0  0
    3.8087    2.9045   15.9665 N   0  0  0  0  0  0  0  0  0  0  0  0
    3.0803    2.9558   13.5396 C   0  0  0  0  0  0  0  0  0  0  0  0
    1.8560    3.8553   13.3341 C   0  0  0  0  0  0  0  0  0  0  0  0
    1.7321    3.2176   11.9497 C   0  0  0  0  0  0  0  0  0  0  0  0
    2.5854    3.8428   11.0834 F   0  0  0  0  0  0  0  0  0  0  0  0
    0.4587    2.9974   11.5252 F   0  0  0  0  0  0  0  0  0  0  0  0
    2.4334    1.9931   12.5519 C   0  0  0  0  0  0  0  0  0  0  0  0
    4.9522    5.0378   20.7472 N   0  0  0  0  0  0  0  0  0  0  0  0
    5.7245    6.1306   20.3587 C   0  0  0  0  0  0  0  0  0  0  0  0
    6.4738    6.0018   19.3199 O   0  0  0  0  0  0  0  0  0  0  0  0
    4.3957    5.1775   21.6577 H   0  0  0  0  0  0  0  0  0  0  0  0
    5.7664    7.4173   21.0324 C   0  0  0  0  0  0  0  0  0  0  0  0
    4.9637    8.4985   20.6307 C   0  0  0  0  0  0  0  0  0  0  0  0
    5.1987    9.5159   21.4530 N   0  0  0  0  0  0  0  0  0  0  0  0
    6.1191    9.1340   22.3692 C   0  0  0  0  0  0  0  0  0  0  0  0
    6.6749    9.8203   23.4307 C   0  0  0  0  0  0  0  0  0  0  0  0
    7.5889    9.2285   24.2582 C   0  0  0  0  0  0  0  0  0  0  0  0
    7.9217    7.9307   23.9831 C   0  0  0  0  0  0  0  0  0  0  0  0
    7.3484    7.2550   22.9045 C   0  0  0  0  0  0  0  0  0  0  0  0
    6.4506    7.8368   22.0878 N   0  0  0  0  0  0  0  0  0  0  0  0
  1  2  1  0  0  0
  2  3  2  0  0  0
  3  4  1  0  0  0
  4  5  2  0  0  0
  5  6  1  0  0  0
  6  7  2  0  0  0
  7 19  1  0  0  0
 19 20  1  0  0  0
 20 21  2  0  0  0
 20 23  1  0  0  0
 23 24  2  0  0  0
 24 25  1  0  0  0
 25 26  2  0  0  0
 26 27  1  0  0  0
 27 28  2  0  0  0
 28 29  1  0  0  0
 29 30  2  0  0  0
 30 31  1  0  0  0
  5  8  1  0  0  0
  8  9  2  0  0  0
  9 10  1  0  0  0
 10 11  1  0  0  0
 11 12  2  0  0  0
 11 13  1  0  0  0
 13 14  1  0  0  0
 14 15  1  0  0  0
 15 16  1  0  0  0
 15 17  1  0  0  0
 15 18  1  0  0  0
  7  2  1  0  0  0
 31 23  1  0  0  0
 12  8  1  0  0  0
 18 13  1  0  0  0
 31 26  1  0  0  0
 19 22  1  0  0  0
M  END
> <minimizedAffinity>
-8.85428

> <CNNscore>
0.3241188228

> <CNNaffinity>
6.2100677490

> <CNN_VS>
2.0127997398

> <CNNaffinity_variance>
0.3006406724

$$$$
[H]c1nc2c([H])c([H])c([H])c([H])n2c1C(=O)N([H])c1c([H])c(-c2noc(C3([H])C([H])([H])C(F)(F)C3([H])[H])n2)c([H])c([H])c1C([H])([H])[H]


 31 35  0  0  0  0  0  0  0  0999 V2000
    1.4021    2.2062   11.6328 C   0  0  0  0  0  0  0  0  0  0  0  0
    2.1309    2.4413   12.9241 C   0  0  0  0  0  0  0  0  0  0  0  0
    2.0768    1.5244   13.9418 C   0  0  0  0  0  0  0  0  0  0  0  0
    2.7385    1.7197   15.1355 C   0  0  0  0  0  0  0  0  0  0  0  0
    3.4877    2.8468   15.3652 C   0  0  0  0  0  0  0  0  0  0  0  0
    3.5415    3.7829   14.3232 C   0  0  0  0  0  0  0  0  0  0  0  0
    2.8874    3.6075   13.1212 C   0  0  0  0  0  0  0  0  0  0  0  0
    4.2008    3.0912   16.6097 C   0  0  0  0  0  0  0  0  0  0  0  0
    5.2315    3.9312   16.8001 N   0  0  0  0  0  0  0  0  0  0  0  0
    5.5920    3.8661   18.0527 O   0  0  0  0  0  0  0  0  0  0  0  0
    4.8435    3.0147   18.7120 C   0  0  0  0  0  0  0  0  0  0  0  0
    3.9777    2.5331   17.8116 N   0  0  0  0  0  0  0  0  0  0  0  0
    4.9672    2.6903   20.1395 C   0  0  0  0  0  0  0  0  0  0  0  0
    5.7649    1.4143   20.4322 C   0  0  0  0  0  0  0  0  0  0  0  0
    4.7342    1.1284   21.5252 C   0  0  0  0  0  0  0  0  0  0  0  0
    5.0609    1.8297   22.6526 F   0  0  0  0  0  0  0  0  0  0  0  0
    4.3991   -0.1811   21.6772 F   0  0  0  0  0  0  0  0  0  0  0  0
    3.7506    1.9539   20.6857 C   0  0  0  0  0  0  0  0  0  0  0  0
    2.9275    4.5330   12.0626 N   0  0  0  0  0  0  0  0  0  0  0  0
    2.1660    5.6736   11.8167 C   0  0  0  0  0  0  0  0  0  0  0  0
    1.2386    5.9736   12.6577 O   0  0  0  0  0  0  0  0  0  0  0  0
    3.6434    4.2926   11.2958 H   0  0  0  0  0  0  0  0  0  0  0  0
    2.3213    6.5636   10.6786 C   0  0  0  0  0  0  0  0  0  0  0  0
    1.2199    7.0557    9.9580 C   0  0  0  0  0  0  0  0  0  0  0  0
    1.6760    7.8638    9.0063 N   0  0  0  0  0  0  0  0  0  0  0  0
    3.0264    7.9136    9.0853 C   0  0  0  0  0  0  0  0  0  0  0  0
    3.9492    8.6163    8.3358 C   0  0  0  0  0  0  0  0  0  0  0  0
    5.2883    8.5367    8.6021 C   0  0  0  0  0  0  0  0  0  0  0  0
    5.6644    7.7317    9.6419 C   0  0  0  0  0  0  0  0  0  0  0  0
    4.7154    7.0294   10.3867 C   0  0  0  0  0  0  0  0  0  0  0  0
    3.3974    7.1047   10.1244 N   0  0  0  0  0  0  0  0  0  0  0  0
  1  2  1  0  0  0
  2  3  2  0  0  0
  3  4  1  0  0  0
  4  5  2  0  0  0
  5  6  1  0  0  0
  6  7  2  0  0  0
  7 19  1  0  0  0
 19 20  1  0  0  0
 20 21  2  0  0  0
 20 23  1  0  0  0
 23 24  2  0  0  0
 24 25  1  0  0  0
 25 26  2  0  0  0
 26 27  1  0  0  0
 27 28  2  0  0  0
 28 29  1  0  0  0
 29 30  2  0  0  0
 30 31  1  0  0  0
  5  8  1  0  0  0
  8  9  2  0  0  0
  9 10  1  0  0  0
 10 11  1  0  0  0
 11 12  2  0  0  0
 11 13  1  0  0  0
 13 14  1  0  0  0
 14 15  1  0  0  0
 15 16  1  0  0  0
 15 17  1  0  0  0
 15 18  1  0  0  0
  7  2  1  0  0  0
 31 23  1  0  0  0
 12  8  1  0  0  0
 18 13  1  0  0  0
 31 26  1  0  0  0
 19 22  1  0  0  0
M  END
> <minimizedAffinity>
-7.56912

> <CNNscore>
0.1811683029

> <CNNaffinity>
5.8651990891

> <CNN_VS>
1.0625882149

> <CNNaffinity_variance>
0.2923582792

$$$$
[H]c1nc2c([H])c([H])c([H])c([H])n2c1C(=O)N([H])c1c([H])c(-c2noc(C3([H])C([H])([H])C(F)(F)C3([H])[H])n2)c([H])c([H])c1C([H])([H])[H]


 31 35  0  0  0  0  0  0  0  0999 V2000
    3.6458    7.4804   14.3866 C   0  0  0  0  0  0  0  0  0  0  0  0
    3.7757    6.3756   15.3948 C   0  0  0  0  0  0  0  0  0  0  0  0
    3.9666    6.6523   16.7238 C   0  0  0  0  0  0  0  0  0  0  0  0
    4.0881    5.6536   17.6666 C   0  0  0  0  0  0  0  0  0  0  0  0
    4.0234    4.3270   17.3198 C   0  0  0  0  0  0  0  0  0  0  0  0
    3.8281    4.0466   15.9603 C   0  0  0  0  0  0  0  0  0  0  0  0
    3.7042    5.0300   15.0007 C   0  0  0  0  0  0  0  0  0  0  0  0
    4.1467    3.2435   18.2830 C   0  0  0  0  0  0  0  0  0  0  0  0
    4.4482    1.9605   18.0234 N   0  0  0  0  0  0  0  0  0  0  0  0
    4.4628    1.3029   19.1506 O   0  0  0  0  0  0  0  0  0  0  0  0
    4.1828    2.0941   20.1582 C   0  0  0  0  0  0  0  0  0  0  0  0
    3.9863    3.3022   19.6159 N   0  0  0  0  0  0  0  0  0  0  0  0
    4.1114    1.6928   21.5696 C   0  0  0  0  0  0  0  0  0  0  0  0
    3.9303    2.8568   22.5506 C   0  0  0  0  0  0  0  0  0  0  0  0
    4.9020    2.1153   23.4697 C   0  0  0  0  0  0  0  0  0  0  0  0
    4.2233    1.1576   24.1708 F   0  0  0  0  0  0  0  0  0  0  0  0
    5.7621    2.9081   24.1639 F   0  0  0  0  0  0  0  0  0  0  0  0
    5.4850    1.4892   22.1962 C   0  0  0  0  0  0  0  0  0  0  0  0
    3.5079    4.7718   13.6319 N   0  0  0  0  0  0  0  0  0  0  0  0
    2.3410    4.5646   12.8992 C   0  0  0  0  0  0  0  0  0  0  0  0
    1.2197    4.5827   13.5314 O   0  0  0  0  0  0  0  0  0  0  0  0
    4.4194    4.6813   13.0668 H   0  0  0  0  0  0  0  0  0  0  0  0
    2.2744    4.3204   11.4684 C   0  0  0  0  0  0  0  0  0  0  0  0
    2.0122    5.3473   10.5456 C   0  0  0  0  0  0  0  0  0  0  0  0
    2.0493    4.8248    9.3240 N   0  0  0  0  0  0  0  0  0  0  0  0
    2.3260    3.5035    9.4219 C   0  0  0  0  0  0  0  0  0  0  0  0
    2.4828    2.5393    8.4458 C   0  0  0  0  0  0  0  0  0  0  0  0
    2.7852    1.2451    8.7685 C   0  0  0  0  0  0  0  0  0  0  0  0
    2.9243    0.9565   10.0982 C   0  0  0  0  0  0  0  0  0  0  0  0
    2.7611    1.9460   11.0692 C   0  0  0  0  0  0  0  0  0  0  0  0
    2.4610    3.2196   10.7534 N   0  0  0  0  0  0  0  0  0  0  0  0
  1  2  1  0  0  0
  2  3  2  0  0  0
  3  4  1  0  0  0
  4  5  2  0  0  0
  5  6  1  0  0  0
  6  7  2  0  0  0
  7 19  1  0  0  0
 19 20  1  0  0  0
 20 21  2  0  0  0
 20 23  1  0  0  0
 23 24  2  0  0  0
 24 25  1  0  0  0
 25 26  2  0  0  0
 26 27  1  0  0  0
 27 28  2  0  0  0
 28 29  1  0  0  0
 29 30  2  0  0  0
 30 31  1  0  0  0
  5  8  1  0  0  0
  8  9  2  0  0  0
  9 10  1  0  0  0
 10 11  1  0  0  0
 11 12  2  0  0  0
 11 13  1  0  0  0
 13 14  1  0  0  0
 14 15  1  0  0  0
 15 16  1  0  0  0
 15 17  1  0  0  0
 15 18  1  0  0  0
  7  2  1  0  0  0
 31 23  1  0  0  0
 12  8  1  0  0  0
 18 13  1  0  0  0
 31 26  1  0  0  0
 19 22  1  0  0  0
M  END
> <minimizedAffinity>
-7.13054

> <CNNscore>
0.1735467464

> <CNNaffinity>
6.0476422310

> <CNN_VS>
1.0495486259

> <CNNaffinity_variance>
0.3037282228

$$$$
[H]c1nc2c([H])c([H])c([H])c([H])n2c1C(=O)N([H])c1c([H])c(-c2noc(C3([H])C([H])([H])C(F)(F)C3([H])[H])n2)c([H])c([H])c1C([H])([H])[H]


 31 35  0  0  0  0  0  0  0  0999 V2000
    3.6255    9.0672   14.1080 C   0  0  0  0  0  0  0  0  0  0  0  0
    3.7025    7.8741   15.0160 C   0  0  0  0  0  0  0  0  0  0  0  0
    4.2707    7.9697   16.2599 C   0  0  0  0  0  0  0  0  0  0  0  0
    4.3517    6.8873   17.1100 C   0  0  0  0  0  0  0  0  0  0  0  0
    3.8649    5.6548   16.7516 C   0  0  0  0  0  0  0  0  0  0  0  0
    3.2843    5.5595   15.4793 C   0  0  0  0  0  0  0  0  0  0  0  0
    3.1931    6.6294   14.6131 C   0  0  0  0  0  0  0  0  0  0  0  0
    3.9304    4.4881   17.6184 C   0  0  0  0  0  0  0  0  0  0  0  0
    3.6765    3.2132   17.2798 N   0  0  0  0  0  0  0  0  0  0  0  0
    3.8449    2.4637   18.3349 O   0  0  0  0  0  0  0  0  0  0  0  0
    4.2021    3.1853   19.3700 C   0  0  0  0  0  0  0  0  0  0  0  0
    4.2549    4.4457   18.9218 N   0  0  0  0  0  0  0  0  0  0  0  0
    4.4761    2.6728   20.7193 C   0  0  0  0  0  0  0  0  0  0  0  0
    5.7973    3.1597   21.3254 C   0  0  0  0  0  0  0  0  0  0  0  0
    5.9567    1.7461   21.8867 C   0  0  0  0  0  0  0  0  0  0  0  0
    5.2373    1.6328   23.0439 F   0  0  0  0  0  0  0  0  0  0  0  0
    7.2287    1.2642   21.8902 F   0  0  0  0  0  0  0  0  0  0  0  0
    5.0922    1.2796   20.7082 C   0  0  0  0  0  0  0  0  0  0  0  0
    2.6151    6.5566   13.3328 N   0  0  0  0  0  0  0  0  0  0  0  0
    1.2969    6.7261   12.9142 C   0  0  0  0  0  0  0  0  0  0  0  0
    0.4064    6.9760   13.8096 O   0  0  0  0  0  0  0  0  0  0  0  0
    3.3061    6.2853   12.5536 H   0  0  0  0  0  0  0  0  0  0  0  0
    0.8289    6.6389   11.5414 C   0  0  0  0  0  0  0  0  0  0  0  0
   -0.3529    5.9617   11.1955 C   0  0  0  0  0  0  0  0  0  0  0  0
   -0.5316    6.0853    9.8843 N   0  0  0  0  0  0  0  0  0  0  0  0
    0.4860    6.8157    9.3713 C   0  0  0  0  0  0  0  0  0  0  0  0
    0.7405    7.2253    8.0773 C   0  0  0  0  0  0  0  0  0  0  0  0
    1.8355    7.9875    7.7763 C   0  0  0  0  0  0  0  0  0  0  0  0
    2.6597    8.3218    8.8153 C   0  0  0  0  0  0  0  0  0  0  0  0
    2.3846    7.8969   10.1162 C   0  0  0  0  0  0  0  0  0  0  0  0
    1.3088    7.1447   10.4137 N   0  0  0  0  0  0  0  0  0  0  0  0
  1  2  1  0  0  0
  2  3  2  0  0  0
  3  4  1  0  0  0
  4  5  2  0  0  0
  5  6  1  0  0  0
  6  7  2  0  0  0
  7 19  1  0  0  0
 19 20  1  0  0  0
 20 21  2  0  0  0
 20 23  1  0  0  0
 23 24  2  0  0  0
 24 25  1  0  0  0
 25 26  2  0  0  0
 26 27  1  0  0  0
 27 28  2  0  0  0
 28 29  1  0  0  0
 29 30  2  0  0  0
 30 31  1  0  0  0
  5  8  1  0  0  0
  8  9  2  0  0  0
  9 10  1  0  0  0
 10 11  1  0  0  0
 11 12  2  0  0  0
 11 13  1  0  0  0
 13 14  1  0  0  0
 14 15  1  0  0  0
 15 16  1  0  0  0
 15 17  1  0  0  0
 15 18  1  0  0  0
  7  2  1  0  0  0
 31 23  1  0  0  0
 12  8  1  0  0  0
 18 13  1  0  0  0
 31 26  1  0  0  0
 19 22  1  0  0  0
M  END
> <minimizedAffinity>
-7.30972

> <CNNscore>
0.1305897385

> <CNNaffinity>
5.6584625244

> <CNN_VS>
0.7389371395

> <CNNaffinity_variance>
0.5467316508

$$$$
[H]c1nc2c([H])c([H])c([H])c([H])n2c1C(=O)N([H])c1c([H])c(-c2noc(C3([H])C([H])([H])C(F)(F)C3([H])[H])n2)c([H])c([H])c1C([H])([H])[H]


 31 35  0  0  0  0  0  0  0  0999 V2000
    2.1467    1.0858   16.0174 C   0  0  0  0  0  0  0  0  0  0  0  0
    2.6935    2.1125   15.0684 C   0  0  0  0  0  0  0  0  0  0  0  0
    2.5945    1.9427   13.7117 C   0  0  0  0  0  0  0  0  0  0  0  0
    3.0892    2.8727   12.8221 C   0  0  0  0  0  0  0  0  0  0  0  0
    3.7079    4.0200   13.2527 C   0  0  0  0  0  0  0  0  0  0  0  0
    3.8079    4.1915   14.6403 C   0  0  0  0  0  0  0  0  0  0  0  0
    3.3201    3.2739   15.5477 C   0  0  0  0  0  0  0  0  0  0  0  0
    4.2432    5.0257   12.3478 C   0  0  0  0  0  0  0  0  0  0  0  0
    4.1033    6.3581   12.4450 N   0  0  0  0  0  0  0  0  0  0  0  0
    4.7281    6.9137   11.4429 O   0  0  0  0  0  0  0  0  0  0  0  0
    5.2828    6.0064   10.6755 C   0  0  0  0  0  0  0  0  0  0  0  0
    4.9797    4.8312   11.2407 N   0  0  0  0  0  0  0  0  0  0  0  0
    6.0639    6.2723    9.4600 C   0  0  0  0  0  0  0  0  0  0  0  0
    5.3562    5.8878    8.1556 C   0  0  0  0  0  0  0  0  0  0  0  0
    6.7185    5.3929    7.6678 C   0  0  0  0  0  0  0  0  0  0  0  0
    7.4440    6.4511    7.1954 F   0  0  0  0  0  0  0  0  0  0  0  0
    6.6868    4.2657    6.9070 F   0  0  0  0  0  0  0  0  0  0  0  0
    7.0625    5.1656    9.1455 C   0  0  0  0  0  0  0  0  0  0  0  0
    3.4094    3.4254   16.9434 N   0  0  0  0  0  0  0  0  0  0  0  0
    4.3625    2.9713   17.8527 C   0  0  0  0  0  0  0  0  0  0  0  0
    5.3440    2.2719   17.4002 O   0  0  0  0  0  0  0  0  0  0  0  0
    2.5775    3.9481   17.3827 H   0  0  0  0  0  0  0  0  0  0  0  0
    4.3457    3.2134   19.2853 C   0  0  0  0  0  0  0  0  0  0  0  0
    4.5789    4.4869   19.8316 C   0  0  0  0  0  0  0  0  0  0  0  0
    4.4640    4.3975   21.1528 N   0  0  0  0  0  0  0  0  0  0  0  0
    4.1648    3.1186   21.4800 C   0  0  0  0  0  0  0  0  0  0  0  0
    3.9343    2.5314   22.7085 C   0  0  0  0  0  0  0  0  0  0  0  0
    3.6224    1.2039   22.8134 C   0  0  0  0  0  0  0  0  0  0  0  0
    3.5501    0.4925   21.6474 C   0  0  0  0  0  0  0  0  0  0  0  0
    3.7872    1.1053   20.4158 C   0  0  0  0  0  0  0  0  0  0  0  0
    4.0967    2.4111   20.3111 N   0  0  0  0  0  0  0  0  0  0  0  0
  1  2  1  0  0  0
  2  3  2  0  0  0
  3  4  1  0  0  0
  4  5  2  0  0  0
  5  6  1  0  0  0
  6  7  2  0  0  0
  7 19  1  0  0  0
 19 20  1  0  0  0
 20 21  2  0  0  0
 20 23  1  0  0  0
 23 24  2  0  0  0
 24 25  1  0  0  0
 25 26  2  0  0  0
 26 27  1  0  0  0
 27 28  2  0  0  0
 28 29  1  0  0  0
 29 30  2  0  0  0
 30 31  1  0  0  0
  5  8  1  0  0  0
  8  9  2  0  0  0
  9 10  1  0  0  0
 10 11  1  0  0  0
 11 12  2  0  0  0
 11 13  1  0  0  0
 13 14  1  0  0  0
 14 15  1  0  0  0
 15 16  1  0  0  0
 15 17  1  0  0  0
 15 18  1  0  0  0
  7  2  1  0  0  0
 31 23  1  0  0  0
 12  8  1  0  0  0
 18 13  1  0  0  0
 31 26  1  0  0  0
 19 22  1  0  0  0
M  END
> <minimizedAffinity>
-7.65285

> <CNNscore>
0.1279349178

> <CNNaffinity>
5.8556952477

> <CNN_VS>
0.7491478920

> <CNNaffinity_variance>
0.2548961043

$$$$
[H]c1nc2c([H])c([H])c([H])c([H])n2c1C(=O)N([H])c1c([H])c(-c2noc(C3([H])C([H])([H])C(F)(F)C3([H])[H])n2)c([H])c([H])c1C([H])([H])[H]


 31 35  0  0  0  0  0  0  0  0999 V2000
    4.0720    8.6826   14.3846 C   0  0  0  0  0  0  0  0  0  0  0  0
    4.1409    7.4263   15.2036 C   0  0  0  0  0  0  0  0  0  0  0  0
    4.8801    7.3758   16.3570 C   0  0  0  0  0  0  0  0  0  0  0  0
    4.9572    6.2330   17.1245 C   0  0  0  0  0  0  0  0  0  0  0  0
    4.2944    5.0841   16.7704 C   0  0  0  0  0  0  0  0  0  0  0  0
    3.5393    5.1382   15.5906 C   0  0  0  0  0  0  0  0  0  0  0  0
    3.4486    6.2708   14.8080 C   0  0  0  0  0  0  0  0  0  0  0  0
    4.3494    3.8580   17.5518 C   0  0  0  0  0  0  0  0  0  0  0  0
    4.6687    2.6305   17.1097 N   0  0  0  0  0  0  0  0  0  0  0  0
    4.6036    1.7994   18.1139 O   0  0  0  0  0  0  0  0  0  0  0  0
    4.2528    2.4207   19.2142 C   0  0  0  0  0  0  0  0  0  0  0  0
    4.0950    3.7027   18.8621 N   0  0  0  0  0  0  0  0  0  0  0  0
    4.0816    1.7977   20.5336 C   0  0  0  0  0  0  0  0  0  0  0  0
    4.0991    2.7843   21.7069 C   0  0  0  0  0  0  0  0  0  0  0  0
    4.8998    1.7263   22.4673 C   0  0  0  0  0  0  0  0  0  0  0  0
    4.0431    0.8022   22.9978 F   0  0  0  0  0  0  0  0  0  0  0  0
    5.8777    2.2121   23.2785 F   0  0  0  0  0  0  0  0  0  0  0  0
    5.3820    1.2372   21.0955 C   0  0  0  0  0  0  0  0  0  0  0  0
    2.6973    6.3475   13.6213 N   0  0  0  0  0  0  0  0  0  0  0  0
    1.3203    6.3920   13.4126 C   0  0  0  0  0  0  0  0  0  0  0  0
    0.5513    6.3386   14.4436 O   0  0  0  0  0  0  0  0  0  0  0  0
    3.2908    6.3292   12.7236 H   0  0  0  0  0  0  0  0  0  0  0  0
    0.6648    6.4881   12.1195 C   0  0  0  0  0  0  0  0  0  0  0  0
    1.2277    7.1995   11.0463 C   0  0  0  0  0  0  0  0  0  0  0  0
    0.4189    7.0763    9.9989 N   0  0  0  0  0  0  0  0  0  0  0  0
   -0.6417    6.3133   10.3528 C   0  0  0  0  0  0  0  0  0  0  0  0
   -1.7342    5.8911    9.6214 C   0  0  0  0  0  0  0  0  0  0  0  0
   -2.6966    5.0948   10.1783 C   0  0  0  0  0  0  0  0  0  0  0  0
   -2.5227    4.7397   11.4876 C   0  0  0  0  0  0  0  0  0  0  0  0
   -1.4111    5.1778   12.2095 C   0  0  0  0  0  0  0  0  0  0  0  0
   -0.4643    5.9635   11.6636 N   0  0  0  0  0  0  0  0  0  0  0  0
  1  2  1  0  0  0
  2  3  2  0  0  0
  3  4  1  0  0  0
  4  5  2  0  0  0
  5  6  1  0  0  0
  6  7  2  0  0  0
  7 19  1  0  0  0
 19 20  1  0  0  0
 20 21  2  0  0  0
 20 23  1  0  0  0
 23 24  2  0  0  0
 24 25  1  0  0  0
 25 26  2  0  0  0
 26 27  1  0  0  0
 27 28  2  0  0  0
 28 29  1  0  0  0
 29 30  2  0  0  0
 30 31  1  0  0  0
  5  8  1  0  0  0
  8  9  2  0  0  0
  9 10  1  0  0  0
 10 11  1  0  0  0
 11 12  2  0  0  0
 11 13  1  0  0  0
 13 14  1  0  0  0
 14 15  1  0  0  0
 15 16  1  0  0  0
 15 17  1  0  0  0
 15 18  1  0  0  0
  7  2  1  0  0  0
 31 23  1  0  0  0
 12  8  1  0  0  0
 18 13  1  0  0  0
 31 26  1  0  0  0
 19 22  1  0  0  0
M  END
> <minimizedAffinity>
-7.80639

> <CNNscore>
0.1256409585

> <CNNaffinity>
5.7034091949

> <CNN_VS>
0.7165818214

> <CNNaffinity_variance>
0.2612146139

$$$$
[H]c1nc2c([H])c(OC([H])([H])[H])c(OC([H])([H])[H])c([H])c2c(Oc2c([H])c([H])c(N([H])C(=O)N([H])c3c([H])c(C([H])([H])[H])c([H])c([H])c3F)c(F)c2[H])c1[H]


 36 39  0  0  0  0  0  0  0  0999 V2000
    2.8190    2.6134   14.7562 C   0  0  0  0  0  0  0  0  0  0  0  0
    2.1839    1.8373   13.8460 C   0  0  0  0  0  0  0  0  0  0  0  0
    1.2346    2.3605   12.9660 C   0  0  0  0  0  0  0  0  0  0  0  0
    0.9071    3.7174   13.0003 C   0  0  0  0  0  0  0  0  0  0  0  0
    1.5856    4.5061   13.9500 C   0  0  0  0  0  0  0  0  0  0  0  0
    1.3341    5.8574   13.9998 F   0  0  0  0  0  0  0  0  0  0  0  0
    2.4929    3.9814   14.7836 C   0  0  0  0  0  0  0  0  0  0  0  0
   -0.1506    4.3108   12.3188 N   0  0  0  0  0  0  0  0  0  0  0  0
   -1.1389    4.8654   11.6816 C   0  0  0  0  0  0  0  0  0  0  0  0
   -1.1085    5.8201   10.8238 O   0  0  0  0  0  0  0  0  0  0  0  0
   -2.4613    4.3504   11.9597 N   0  0  0  0  0  0  0  0  0  0  0  0
    0.7481    5.2641   11.8556 H   0  0  0  0  0  0  0  0  0  0  0  0
   -2.4350    3.5296   12.6530 H   0  0  0  0  0  0  0  0  0  0  0  0
   -3.6754    4.7407   11.4979 C   0  0  0  0  0  0  0  0  0  0  0  0
   -4.4089    4.1450   10.5045 C   0  0  0  0  0  0  0  0  0  0  0  0
   -5.5694    4.6750   10.0278 C   0  0  0  0  0  0  0  0  0  0  0  0
   -6.3006    3.9717    8.9426 C   0  0  0  0  0  0  0  0  0  0  0  0
   -6.1022    5.8840   10.5301 C   0  0  0  0  0  0  0  0  0  0  0  0
   -5.3844    6.4954   11.5263 C   0  0  0  0  0  0  0  0  0  0  0  0
   -4.2031    5.9423   11.9960 C   0  0  0  0  0  0  0  0  0  0  0  0
   -3.5476    6.5793   12.9641 F   0  0  0  0  0  0  0  0  0  0  0  0
    3.7288    2.1366   15.6275 O   0  0  0  0  0  0  0  0  0  0  0  0
    5.0680    3.3632   20.2981 C   0  0  0  0  0  0  0  0  0  0  0  0
    4.3582    2.1694   20.3994 C   0  0  0  0  0  0  0  0  0  0  0  0
    3.8626    1.6097   19.2476 C   0  0  0  0  0  0  0  0  0  0  0  0
    3.1689    0.4336   19.3100 N   0  0  0  0  0  0  0  0  0  0  0  0
    2.6741   -0.1525   18.2039 C   0  0  0  0  0  0  0  0  0  0  0  0
    2.8170    0.3627   16.9318 C   0  0  0  0  0  0  0  0  0  0  0  0
    3.5124    1.5462   16.8447 C   0  0  0  0  0  0  0  0  0  0  0  0
    4.0047    2.1261   17.9894 C   0  0  0  0  0  0  0  0  0  0  0  0
    4.7247    3.3269   17.9388 C   0  0  0  0  0  0  0  0  0  0  0  0
    5.2457    3.9416   19.0345 C   0  0  0  0  0  0  0  0  0  0  0  0
    6.2187    3.3917   22.4728 C   0  0  0  0  0  0  0  0  0  0  0  0
    5.6091    4.0120   21.3737 O   0  0  0  0  0  0  0  0  0  0  0  0
    5.9570    5.1407   18.9395 O   0  0  0  0  0  0  0  0  0  0  0  0
    6.3032    5.6788   17.6864 C   0  0  0  0  0  0  0  0  0  0  0  0
 33 34  1  0  0  0
 34 23  1  0  0  0
 23 24  2  0  0  0
 24 25  1  0  0  0
 25 26  2  0  0  0
 26 27  1  0  0  0
 27 28  2  0  0  0
 28 29  1  0  0  0
 29 22  1  0  0  0
 22  1  1  0  0  0
  1  2  2  0  0  0
  2  3  1  0  0  0
  3  4  2  0  0  0
  4  8  1  0  0  0
  8  9  1  0  0  0
  9 10  2  0  0  0
  9 11  1  0  0  0
 11 14  1  0  0  0
 14 15  2  0  0  0
 15 16  1  0  0  0
 16 17  1  0  0  0
 16 18  2  0  0  0
 18 19  1  0  0  0
 19 20  2  0  0  0
 20 21  1  0  0  0
  4  5  1  0  0  0
  5  6  1  0  0  0
  5  7  2  0  0  0
 29 30  2  0  0  0
 30 31  1  0  0  0
 31 32  2  0  0  0
 32 35  1  0  0  0
 35 36  1  0  0  0
 32 23  1  0  0  0
 30 25  1  0  0  0
  7  1  1  0  0  0
 20 14  1  0  0  0
  8 12  1  0  0  0
 11 13  1  0  0  0
M  END
> <minimizedAffinity>
-9.42614

> <CNNscore>
0.3117874861

> <CNNaffinity>
6.3692936897

> <CNN_VS>
1.9858660698

> <CNNaffinity_variance>
0.1474960893

$$$$
[H]c1nc2c([H])c(OC([H])([H])[H])c(OC([H])([H])[H])c([H])c2c(Oc2c([H])c([H])c(N([H])C(=O)N([H])c3c([H])c(C([H])([H])[H])c([H])c([H])c3F)c(F)c2[H])c1[H]


 36 39  0  0  0  0  0  0  0  0999 V2000
    3.4250    4.1033   14.5868 C   0  0  0  0  0  0  0  0  0  0  0  0
    2.3006    4.8362   14.7683 C   0  0  0  0  0  0  0  0  0  0  0  0
    1.6342    5.4398   13.7002 C   0  0  0  0  0  0  0  0  0  0  0  0
    2.1150    5.3046   12.3963 C   0  0  0  0  0  0  0  0  0  0  0  0
    3.2813    4.5323   12.2311 C   0  0  0  0  0  0  0  0  0  0  0  0
    3.7758    4.3299   10.9637 F   0  0  0  0  0  0  0  0  0  0  0  0
    3.9031    3.9624   13.2714 C   0  0  0  0  0  0  0  0  0  0  0  0
    1.6577    6.0121   11.2892 N   0  0  0  0  0  0  0  0  0  0  0  0
    1.2301    6.6733   10.2546 C   0  0  0  0  0  0  0  0  0  0  0  0
    0.0244    6.9807    9.9384 O   0  0  0  0  0  0  0  0  0  0  0  0
    2.2324    7.1376    9.3212 N   0  0  0  0  0  0  0  0  0  0  0  0
    0.3647    5.6745   11.6701 H   0  0  0  0  0  0  0  0  0  0  0  0
    3.2272    6.8910    9.6446 H   0  0  0  0  0  0  0  0  0  0  0  0
    2.1032    7.8033    8.1465 C   0  0  0  0  0  0  0  0  0  0  0  0
    1.6381    9.0810    7.9709 C   0  0  0  0  0  0  0  0  0  0  0  0
    1.4357    9.6279    6.7401 C   0  0  0  0  0  0  0  0  0  0  0  0
    0.9202   11.0171    6.6354 C   0  0  0  0  0  0  0  0  0  0  0  0
    1.6954    8.9105    5.5502 C   0  0  0  0  0  0  0  0  0  0  0  0
    2.1635    7.6303    5.7038 C   0  0  0  0  0  0  0  0  0  0  0  0
    2.3598    7.0897    6.9652 C   0  0  0  0  0  0  0  0  0  0  0  0
    2.8156    5.8420    7.0545 F   0  0  0  0  0  0  0  0  0  0  0  0
    4.0983    3.5203   15.5972 O   0  0  0  0  0  0  0  0  0  0  0  0
    4.6598    2.4392   20.4581 C   0  0  0  0  0  0  0  0  0  0  0  0
    3.9897    1.3559   19.8951 C   0  0  0  0  0  0  0  0  0  0  0  0
    3.6979    1.3995   18.5540 C   0  0  0  0  0  0  0  0  0  0  0  0
    3.0491    0.3493   17.9674 N   0  0  0  0  0  0  0  0  0  0  0  0
    2.7521    0.3485   16.6545 C   0  0  0  0  0  0  0  0  0  0  0  0
    3.0676    1.3807   15.7947 C   0  0  0  0  0  0  0  0  0  0  0  0
    3.7217    2.4487   16.3633 C   0  0  0  0  0  0  0  0  0  0  0  0
    4.0105    2.4265   17.7069 C   0  0  0  0  0  0  0  0  0  0  0  0
    4.6825    3.4925   18.3191 C   0  0  0  0  0  0  0  0  0  0  0  0
    5.0058    3.5224   19.6398 C   0  0  0  0  0  0  0  0  0  0  0  0
    4.3222    1.8789   22.8301 C   0  0  0  0  0  0  0  0  0  0  0  0
    5.0047    2.5078   21.7798 O   0  0  0  0  0  0  0  0  0  0  0  0
    5.6762    4.6074   20.2110 O   0  0  0  0  0  0  0  0  0  0  0  0
    5.6994    5.8607   19.5721 C   0  0  0  0  0  0  0  0  0  0  0  0
 33 34  1  0  0  0
 34 23  1  0  0  0
 23 24  2  0  0  0
 24 25  1  0  0  0
 25 26  2  0  0  0
 26 27  1  0  0  0
 27 28  2  0  0  0
 28 29  1  0  0  0
 29 22  1  0  0  0
 22  1  1  0  0  0
  1  2  2  0  0  0
  2  3  1  0  0  0
  3  4  2  0  0  0
  4  8  1  0  0  0
  8  9  1  0  0  0
  9 10  2  0  0  0
  9 11  1  0  0  0
 11 14  1  0  0  0
 14 15  2  0  0  0
 15 16  1  0  0  0
 16 17  1  0  0  0
 16 18  2  0  0  0
 18 19  1  0  0  0
 19 20  2  0  0  0
 20 21  1  0  0  0
  4  5  1  0  0  0
  5  6  1  0  0  0
  5  7  2  0  0  0
 29 30  2  0  0  0
 30 31  1  0  0  0
 31 32  2  0  0  0
 32 35  1  0  0  0
 35 36  1  0  0  0
 32 23  1  0  0  0
 30 25  1  0  0  0
  7  1  1  0  0  0
 20 14  1  0  0  0
  8 12  1  0  0  0
 11 13  1  0  0  0
M  END
> <minimizedAffinity>
-7.77402

> <CNNscore>
0.2950931489

> <CNNaffinity>
6.3727617264

> <CNN_VS>
1.8805583715

> <CNNaffinity_variance>
0.4360831380

$$$$
[H]c1nc2c([H])c(OC([H])([H])[H])c(OC([H])([H])[H])c([H])c2c(Oc2c([H])c([H])c(N([H])C(=O)N([H])c3c([H])c(C([H])([H])[H])c([H])c([H])c3F)c(F)c2[H])c1[H]


 36 39  0  0  0  0  0  0  0  0999 V2000
    2.8928    2.5501   14.8888 C   0  0  0  0  0  0  0  0  0  0  0  0
    2.2044    1.7423   14.0475 C   0  0  0  0  0  0  0  0  0  0  0  0
    1.2814    2.2487   13.1304 C   0  0  0  0  0  0  0  0  0  0  0  0
    1.0371    3.6214   13.0541 C   0  0  0  0  0  0  0  0  0  0  0  0
    1.7697    4.4422   13.9336 C   0  0  0  0  0  0  0  0  0  0  0  0
    1.6010    5.8059   13.8729 F   0  0  0  0  0  0  0  0  0  0  0  0
    2.6504    3.9331   14.8046 C   0  0  0  0  0  0  0  0  0  0  0  0
    0.0118    4.2204   12.3293 N   0  0  0  0  0  0  0  0  0  0  0  0
   -0.9463    4.7804   11.6519 C   0  0  0  0  0  0  0  0  0  0  0  0
   -0.9490    5.9136   11.0484 O   0  0  0  0  0  0  0  0  0  0  0  0
   -2.1858    4.0425   11.5488 N   0  0  0  0  0  0  0  0  0  0  0  0
    0.7919    5.3689   12.2705 H   0  0  0  0  0  0  0  0  0  0  0  0
   -2.1255    3.0862   12.0355 H   0  0  0  0  0  0  0  0  0  0  0  0
   -3.3621    4.3715   10.9591 C   0  0  0  0  0  0  0  0  0  0  0  0
   -4.1733    5.4309   11.2743 C   0  0  0  0  0  0  0  0  0  0  0  0
   -5.3953    5.6178   10.7026 C   0  0  0  0  0  0  0  0  0  0  0  0
   -6.2178    6.7872   11.1059 C   0  0  0  0  0  0  0  0  0  0  0  0
   -5.9138    4.7263    9.7360 C   0  0  0  0  0  0  0  0  0  0  0  0
   -5.1167    3.6602    9.4049 C   0  0  0  0  0  0  0  0  0  0  0  0
   -3.8771    3.4849   10.0005 C   0  0  0  0  0  0  0  0  0  0  0  0
   -3.1461    2.4318    9.6409 F   0  0  0  0  0  0  0  0  0  0  0  0
    3.7790    2.0916   15.7935 O   0  0  0  0  0  0  0  0  0  0  0  0
    4.8573    3.2066   20.5586 C   0  0  0  0  0  0  0  0  0  0  0  0
    4.1890    1.9851   20.5882 C   0  0  0  0  0  0  0  0  0  0  0  0
    3.7678    1.4473   19.3970 C   0  0  0  0  0  0  0  0  0  0  0  0
    3.1168    0.2455   19.3890 N   0  0  0  0  0  0  0  0  0  0  0  0
    2.6952   -0.3202   18.2427 C   0  0  0  0  0  0  0  0  0  0  0  0
    2.8763    0.2427   16.9959 C   0  0  0  0  0  0  0  0  0  0  0  0
    3.5299    1.4527   16.9796 C   0  0  0  0  0  0  0  0  0  0  0  0
    3.9475    2.0109   18.1642 C   0  0  0  0  0  0  0  0  0  0  0  0
    4.6232    3.2379   18.1860 C   0  0  0  0  0  0  0  0  0  0  0  0
    5.0704    3.8335   19.3240 C   0  0  0  0  0  0  0  0  0  0  0  0
    6.5880    3.6428   22.2525 C   0  0  0  0  0  0  0  0  0  0  0  0
    5.3241    3.8376   21.6787 O   0  0  0  0  0  0  0  0  0  0  0  0
    5.7397    5.0601   19.3010 O   0  0  0  0  0  0  0  0  0  0  0  0
    5.0293    6.2694   19.1895 C   0  0  0  0  0  0  0  0  0  0  0  0
 33 34  1  0  0  0
 34 23  1  0  0  0
 23 24  2  0  0  0
 24 25  1  0  0  0
 25 26  2  0  0  0
 26 27  1  0  0  0
 27 28  2  0  0  0
 28 29  1  0  0  0
 29 22  1  0  0  0
 22  1  1  0  0  0
  1  2  2  0  0  0
  2  3  1  0  0  0
  3  4  2  0  0  0
  4  8  1  0  0  0
  8  9  1  0  0  0
  9 10  2  0  0  0
  9 11  1  0  0  0
 11 14  1  0  0  0
 14 15  2  0  0  0
 15 16  1  0  0  0
 16 17  1  0  0  0
 16 18  2  0  0  0
 18 19  1  0  0  0
 19 20  2  0  0  0
 20 21  1  0  0  0
  4  5  1  0  0  0
  5  6  1  0  0  0
  5  7  2  0  0  0
 29 30  2  0  0  0
 30 31  1  0  0  0
 31 32  2  0  0  0
 32 35  1  0  0  0
 35 36  1  0  0  0
 32 23  1  0  0  0
 30 25  1  0  0  0
  7  1  1  0  0  0
 20 14  1  0  0  0
  8 12  1  0  0  0
 11 13  1  0  0  0
M  END
> <minimizedAffinity>
-8.97918

> <CNNscore>
0.2565695643

> <CNNaffinity>
6.3825836182

> <CNN_VS>
1.6375766993

> <CNNaffinity_variance>
0.1654743403

$$$$
[H]c1nc2c([H])c(OC([H])([H])[H])c(OC([H])([H])[H])c([H])c2c(Oc2c([H])c([H])c(N([H])C(=O)N([H])c3c([H])c(C([H])([H])[H])c([H])c([H])c3F)c(F)c2[H])c1[H]


 36 39  0  0  0  0  0  0  0  0999 V2000
    2.9931    2.8055   11.6347 C   0  0  0  0  0  0  0  0  0  0  0  0
    2.2565    1.8980   12.3190 C   0  0  0  0  0  0  0  0  0  0  0  0
    2.2079    1.8901   13.7143 C   0  0  0  0  0  0  0  0  0  0  0  0
    2.9281    2.8295   14.4548 C   0  0  0  0  0  0  0  0  0  0  0  0
    3.6809    3.7676   13.7216 C   0  0  0  0  0  0  0  0  0  0  0  0
    4.3760    4.7429   14.3979 F   0  0  0  0  0  0  0  0  0  0  0  0
    3.7116    3.7556   12.3828 C   0  0  0  0  0  0  0  0  0  0  0  0
    3.1147    2.8010   15.8331 N   0  0  0  0  0  0  0  0  0  0  0  0
    3.2889    2.7745   17.1213 C   0  0  0  0  0  0  0  0  0  0  0  0
    3.2763    3.7507   17.9550 O   0  0  0  0  0  0  0  0  0  0  0  0
    3.5280    1.4789   17.7176 N   0  0  0  0  0  0  0  0  0  0  0  0
    3.1415    4.1901   15.8080 H   0  0  0  0  0  0  0  0  0  0  0  0
    3.4924    0.6890   16.9897 H   0  0  0  0  0  0  0  0  0  0  0  0
    3.7857    1.1335   19.0037 C   0  0  0  0  0  0  0  0  0  0  0  0
    4.8595    1.5236   19.7617 C   0  0  0  0  0  0  0  0  0  0  0  0
    5.0954    1.0342   21.0106 C   0  0  0  0  0  0  0  0  0  0  0  0
    6.2874    1.5016   21.7637 C   0  0  0  0  0  0  0  0  0  0  0  0
    4.2413    0.0845   21.6162 C   0  0  0  0  0  0  0  0  0  0  0  0
    3.1595   -0.3179   20.8750 C   0  0  0  0  0  0  0  0  0  0  0  0
    2.9381    0.1891   19.6038 C   0  0  0  0  0  0  0  0  0  0  0  0
    1.8722   -0.2374   18.9296 F   0  0  0  0  0  0  0  0  0  0  0  0
    3.0717    2.8309   10.2903 O   0  0  0  0  0  0  0  0  0  0  0  0
    7.4762    3.1250    7.9185 C   0  0  0  0  0  0  0  0  0  0  0  0
    6.9315    1.8909    7.5726 C   0  0  0  0  0  0  0  0  0  0  0  0
    5.7112    1.5494    8.1014 C   0  0  0  0  0  0  0  0  0  0  0  0
    5.1436    0.3494    7.7757 N   0  0  0  0  0  0  0  0  0  0  0  0
    3.9453   -0.0197    8.2653 C   0  0  0  0  0  0  0  0  0  0  0  0
    3.1917    0.7584    9.1202 C   0  0  0  0  0  0  0  0  0  0  0  0
    3.7433    1.9712    9.4615 C   0  0  0  0  0  0  0  0  0  0  0  0
    4.9697    2.3233    8.9507 C   0  0  0  0  0  0  0  0  0  0  0  0
    5.5589    3.5536    9.2696 C   0  0  0  0  0  0  0  0  0  0  0  0
    6.7630    3.9619    8.7866 C   0  0  0  0  0  0  0  0  0  0  0  0
    8.9248    4.0540    6.1598 C   0  0  0  0  0  0  0  0  0  0  0  0
    8.6819    3.5736    7.4539 O   0  0  0  0  0  0  0  0  0  0  0  0
    7.3157    5.1982    9.1316 O   0  0  0  0  0  0  0  0  0  0  0  0
    6.6036    6.3930    8.9200 C   0  0  0  0  0  0  0  0  0  0  0  0
 33 34  1  0  0  0
 34 23  1  0  0  0
 23 24  2  0  0  0
 24 25  1  0  0  0
 25 26  2  0  0  0
 26 27  1  0  0  0
 27 28  2  0  0  0
 28 29  1  0  0  0
 29 22  1  0  0  0
 22  1  1  0  0  0
  1  2  2  0  0  0
  2  3  1  0  0  0
  3  4  2  0  0  0
  4  8  1  0  0  0
  8  9  1  0  0  0
  9 10  2  0  0  0
  9 11  1  0  0  0
 11 14  1  0  0  0
 14 15  2  0  0  0
 15 16  1  0  0  0
 16 17  1  0  0  0
 16 18  2  0  0  0
 18 19  1  0  0  0
 19 20  2  0  0  0
 20 21  1  0  0  0
  4  5  1  0  0  0
  5  6  1  0  0  0
  5  7  2  0  0  0
 29 30  2  0  0  0
 30 31  1  0  0  0
 31 32  2  0  0  0
 32 35  1  0  0  0
 35 36  1  0  0  0
 32 23  1  0  0  0
 30 25  1  0  0  0
  7  1  1  0  0  0
 20 14  1  0  0  0
  8 12  1  0  0  0
 11 13  1  0  0  0
M  END
> <minimizedAffinity>
-7.42684

> <CNNscore>
0.2439459711

> <CNNaffinity>
6.4297866821

> <CNN_VS>
1.5685205460

> <CNNaffinity_variance>
0.0943377763

$$$$
[H]c1nc2c([H])c(OC([H])([H])[H])c(OC([H])([H])[H])c([H])c2c(Oc2c([H])c([H])c(N([H])C(=O)N([H])c3c([H])c(C([H])([H])[H])c([H])c([H])c3F)c(F)c2[H])c1[H]


 36 39  0  0  0  0  0  0  0  0999 V2000
    2.5592    5.0564   15.0259 C   0  0  0  0  0  0  0  0  0  0  0  0
    3.4994    4.6742   14.1291 C   0  0  0  0  0  0  0  0  0  0  0  0
    3.7039    5.3685   12.9351 C   0  0  0  0  0  0  0  0  0  0  0  0
    2.9336    6.4913   12.6262 C   0  0  0  0  0  0  0  0  0  0  0  0
    1.9672    6.8740   13.5769 C   0  0  0  0  0  0  0  0  0  0  0  0
    1.2088    7.9977   13.3448 F   0  0  0  0  0  0  0  0  0  0  0  0
    1.7896    6.1923   14.7158 C   0  0  0  0  0  0  0  0  0  0  0  0
    2.9086    7.1405   11.3960 N   0  0  0  0  0  0  0  0  0  0  0  0
    2.8851    7.7473   10.2464 C   0  0  0  0  0  0  0  0  0  0  0  0
    2.0019    8.5543    9.7806 O   0  0  0  0  0  0  0  0  0  0  0  0
    3.9970    7.4957    9.3566 N   0  0  0  0  0  0  0  0  0  0  0  0
    1.6164    7.5539   11.6967 H   0  0  0  0  0  0  0  0  0  0  0  0
    4.7284    6.8461    9.8016 H   0  0  0  0  0  0  0  0  0  0  0  0
    4.2354    7.9359    8.0960 C   0  0  0  0  0  0  0  0  0  0  0  0
    5.1017    8.9303    7.7212 C   0  0  0  0  0  0  0  0  0  0  0  0
    5.1917    9.3837    6.4401 C   0  0  0  0  0  0  0  0  0  0  0  0
    6.1502   10.4717    6.1173 C   0  0  0  0  0  0  0  0  0  0  0  0
    4.3934    8.8542    5.4007 C   0  0  0  0  0  0  0  0  0  0  0  0
    3.5209    7.8565    5.7543 C   0  0  0  0  0  0  0  0  0  0  0  0
    3.4411    7.4109    7.0647 C   0  0  0  0  0  0  0  0  0  0  0  0
    2.5760    6.4401    7.3508 F   0  0  0  0  0  0  0  0  0  0  0  0
    2.3281    4.4003   16.1793 O   0  0  0  0  0  0  0  0  0  0  0  0
    5.1072    2.5298   19.9063 C   0  0  0  0  0  0  0  0  0  0  0  0
    4.7040    1.4398   19.1388 C   0  0  0  0  0  0  0  0  0  0  0  0
    3.9122    1.6761   18.0421 C   0  0  0  0  0  0  0  0  0  0  0  0
    3.5060    0.6300   17.2618 N   0  0  0  0  0  0  0  0  0  0  0  0
    2.7368    0.8193   16.1736 C   0  0  0  0  0  0  0  0  0  0  0  0
    2.2965    2.0565   15.7495 C   0  0  0  0  0  0  0  0  0  0  0  0
    2.6937    3.1245   16.5197 C   0  0  0  0  0  0  0  0  0  0  0  0
    3.4763    2.9043   17.6279 C   0  0  0  0  0  0  0  0  0  0  0  0
    3.9067    3.9681   18.4314 C   0  0  0  0  0  0  0  0  0  0  0  0
    4.6908    3.8140   19.5319 C   0  0  0  0  0  0  0  0  0  0  0  0
    6.4823    1.2324   21.4811 C   0  0  0  0  0  0  0  0  0  0  0  0
    5.8962    2.4182   21.0179 O   0  0  0  0  0  0  0  0  0  0  0  0
    5.0969    4.9035   20.3071 O   0  0  0  0  0  0  0  0  0  0  0  0
    4.1828    5.9056   20.6810 C   0  0  0  0  0  0  0  0  0  0  0  0
 33 34  1  0  0  0
 34 23  1  0  0  0
 23 24  2  0  0  0
 24 25  1  0  0  0
 25 26  2  0  0  0
 26 27  1  0  0  0
 27 28  2  0  0  0
 28 29  1  0  0  0
 29 22  1  0  0  0
 22  1  1  0  0  0
  1  2  2  0  0  0
  2  3  1  0  0  0
  3  4  2  0  0  0
  4  8  1  0  0  0
  8  9  1  0  0  0
  9 10  2  0  0  0
  9 11  1  0  0  0
 11 14  1  0  0  0
 14 15  2  0  0  0
 15 16  1  0  0  0
 16 17  1  0  0  0
 16 18  2  0  0  0
 18 19  1  0  0  0
 19 20  2  0  0  0
 20 21  1  0  0  0
  4  5  1  0  0  0
  5  6  1  0  0  0
  5  7  2  0  0  0
 29 30  2  0  0  0
 30 31  1  0  0  0
 31 32  2  0  0  0
 32 35  1  0  0  0
 35 36  1  0  0  0
 32 23  1  0  0  0
 30 25  1  0  0  0
  7  1  1  0  0  0
 20 14  1  0  0  0
  8 12  1  0  0  0
 11 13  1  0  0  0
M  END
> <minimizedAffinity>
-8.21676

> <CNNscore>
0.2288403213

> <CNNaffinity>
6.1421484947

> <CNN_VS>
1.4055712223

> <CNNaffinity_variance>
0.3288699389

$$$$
[H]c1nc2c([H])c(OC([H])([H])[H])c(OC([H])([H])[H])c([H])c2c(Oc2c([H])c([H])c(N([H])C(=O)N([H])c3c([H])c(C([H])([H])[H])c([H])c([H])c3F)c(F)c2[H])c1[H]


 36 39  0  0  0  0  0  0  0  0999 V2000
    3.3885    2.5476   15.7928 C   0  0  0  0  0  0  0  0  0  0  0  0
    3.1551    1.9300   14.6103 C   0  0  0  0  0  0  0  0  0  0  0  0
    2.4051    2.5337   13.5991 C   0  0  0  0  0  0  0  0  0  0  0  0
    1.8654    3.8086   13.7809 C   0  0  0  0  0  0  0  0  0  0  0  0
    2.1272    4.4341   15.0155 C   0  0  0  0  0  0  0  0  0  0  0  0
    1.6564    5.7080   15.2332 F   0  0  0  0  0  0  0  0  0  0  0  0
    2.8501    3.8350   15.9704 C   0  0  0  0  0  0  0  0  0  0  0  0
    0.9479    4.4255   12.9365 N   0  0  0  0  0  0  0  0  0  0  0  0
    0.0906    5.0020   12.1472 C   0  0  0  0  0  0  0  0  0  0  0  0
    0.2022    6.1119   11.5115 O   0  0  0  0  0  0  0  0  0  0  0  0
   -1.1654    4.3157   11.9406 N   0  0  0  0  0  0  0  0  0  0  0  0
    1.7832    5.5360   12.9221 H   0  0  0  0  0  0  0  0  0  0  0  0
   -1.1997    3.3757   12.4605 H   0  0  0  0  0  0  0  0  0  0  0  0
   -2.2593    4.6744   11.2233 C   0  0  0  0  0  0  0  0  0  0  0  0
   -3.3380    5.3927   11.6706 C   0  0  0  0  0  0  0  0  0  0  0  0
   -4.4458    5.6086   10.9082 C   0  0  0  0  0  0  0  0  0  0  0  0
   -5.5769    6.3905   11.4705 C   0  0  0  0  0  0  0  0  0  0  0  0
   -4.5590    5.1045    9.5925 C   0  0  0  0  0  0  0  0  0  0  0  0
   -3.4893    4.3843    9.1249 C   0  0  0  0  0  0  0  0  0  0  0  0
   -2.3718    4.1720    9.9175 C   0  0  0  0  0  0  0  0  0  0  0  0
   -1.3631    3.4651    9.4120 F   0  0  0  0  0  0  0  0  0  0  0  0
    4.0957    1.9868   16.7926 O   0  0  0  0  0  0  0  0  0  0  0  0
    4.6308    2.5399   21.7443 C   0  0  0  0  0  0  0  0  0  0  0  0
    3.8521    1.3995   21.5637 C   0  0  0  0  0  0  0  0  0  0  0  0
    3.5441    1.0210   20.2802 C   0  0  0  0  0  0  0  0  0  0  0  0
    2.7893   -0.0983   20.0667 N   0  0  0  0  0  0  0  0  0  0  0  0
    2.4724   -0.5085   18.8245 C   0  0  0  0  0  0  0  0  0  0  0  0
    2.8702    0.1433   17.6750 C   0  0  0  0  0  0  0  0  0  0  0  0
    3.6317    1.2727   17.8658 C   0  0  0  0  0  0  0  0  0  0  0  0
    3.9388    1.6724   19.1444 C   0  0  0  0  0  0  0  0  0  0  0  0
    4.7186    2.8127   19.3772 C   0  0  0  0  0  0  0  0  0  0  0  0
    5.0646    3.2505   20.6175 C   0  0  0  0  0  0  0  0  0  0  0  0
    5.3733    2.2205   24.0683 C   0  0  0  0  0  0  0  0  0  0  0  0
    5.0020    3.0123   22.9730 O   0  0  0  0  0  0  0  0  0  0  0  0
    5.8439    4.3952   20.8053 O   0  0  0  0  0  0  0  0  0  0  0  0
    5.6699    5.5299   19.9918 C   0  0  0  0  0  0  0  0  0  0  0  0
 33 34  1  0  0  0
 34 23  1  0  0  0
 23 24  2  0  0  0
 24 25  1  0  0  0
 25 26  2  0  0  0
 26 27  1  0  0  0
 27 28  2  0  0  0
 28 29  1  0  0  0
 29 22  1  0  0  0
 22  1  1  0  0  0
  1  2  2  0  0  0
  2  3  1  0  0  0
  3  4  2  0  0  0
  4  8  1  0  0  0
  8  9  1  0  0  0
  9 10  2  0  0  0
  9 11  1  0  0  0
 11 14  1  0  0  0
 14 15  2  0  0  0
 15 16  1  0  0  0
 16 17  1  0  0  0
 16 18  2  0  0  0
 18 19  1  0  0  0
 19 20  2  0  0  0
 20 21  1  0  0  0
  4  5  1  0  0  0
  5  6  1  0  0  0
  5  7  2  0  0  0
 29 30  2  0  0  0
 30 31  1  0  0  0
 31 32  2  0  0  0
 32 35  1  0  0  0
 35 36  1  0  0  0
 32 23  1  0  0  0
 30 25  1  0  0  0
  7  1  1  0  0  0
 20 14  1  0  0  0
  8 12  1  0  0  0
 11 13  1  0  0  0
M  END
> <minimizedAffinity>
-9.28878

> <CNNscore>
0.2283247113

> <CNNaffinity>
6.4272484779

> <CNN_VS>
1.4674996138

> <CNNaffinity_variance>
0.1698752940

$$$$
[H]c1nc2c([H])c(OC([H])([H])[H])c(OC([H])([H])[H])c([H])c2c(Oc2c([H])c([H])c(N([H])C(=O)N([H])c3c([H])c(C([H])([H])[H])c([H])c([H])c3F)c(F)c2[H])c1[H]


 36 39  0  0  0  0  0  0  0  0999 V2000
    4.5015    2.2094   21.1945 C   0  0  0  0  0  0  0  0  0  0  0  0
    5.7793    1.7645   21.2550 C   0  0  0  0  0  0  0  0  0  0  0  0
    6.8144    2.5616   21.7476 C   0  0  0  0  0  0  0  0  0  0  0  0
    6.5588    3.8586   22.1971 C   0  0  0  0  0  0  0  0  0  0  0  0
    5.2217    4.2968   22.1314 C   0  0  0  0  0  0  0  0  0  0  0  0
    4.9047    5.5503   22.6004 F   0  0  0  0  0  0  0  0  0  0  0  0
    4.2455    3.5136   21.6551 C   0  0  0  0  0  0  0  0  0  0  0  0
    7.5242    4.8064   22.5211 N   0  0  0  0  0  0  0  0  0  0  0  0
    8.4267    5.6921   22.8236 C   0  0  0  0  0  0  0  0  0  0  0  0
    9.6828    5.6837   22.5586 O   0  0  0  0  0  0  0  0  0  0  0  0
    7.9755    6.8546   23.5560 N   0  0  0  0  0  0  0  0  0  0  0  0
    8.4842    3.9124   22.0625 H   0  0  0  0  0  0  0  0  0  0  0  0
    6.9139    6.8374   23.7224 H   0  0  0  0  0  0  0  0  0  0  0  0
    8.6687    7.9122   24.0467 C   0  0  0  0  0  0  0  0  0  0  0  0
    9.2097    8.0318   25.3008 C   0  0  0  0  0  0  0  0  0  0  0  0
    9.7925    9.1800   25.7445 C   0  0  0  0  0  0  0  0  0  0  0  0
   10.3476    9.2310   27.1214 C   0  0  0  0  0  0  0  0  0  0  0  0
    9.8820   10.3353   24.9351 C   0  0  0  0  0  0  0  0  0  0  0  0
    9.3483   10.2361   23.6754 C   0  0  0  0  0  0  0  0  0  0  0  0
    8.7557    9.0597   23.2429 C   0  0  0  0  0  0  0  0  0  0  0  0
    8.2537    9.0204   22.0104 F   0  0  0  0  0  0  0  0  0  0  0  0
    3.4839    1.4705   20.7122 O   0  0  0  0  0  0  0  0  0  0  0  0
    4.0675    3.5376   16.1847 C   0  0  0  0  0  0  0  0  0  0  0  0
    3.6278    2.2350   15.9622 C   0  0  0  0  0  0  0  0  0  0  0  0
    3.3948    1.4339   17.0528 C   0  0  0  0  0  0  0  0  0  0  0  0
    2.9539    0.1530   16.8706 N   0  0  0  0  0  0  0  0  0  0  0  0
    2.7053   -0.6619   17.9127 C   0  0  0  0  0  0  0  0  0  0  0  0
    2.8653   -0.2922   19.2325 C   0  0  0  0  0  0  0  0  0  0  0  0
    3.3079    0.9934   19.4400 C   0  0  0  0  0  0  0  0  0  0  0  0
    3.5577    1.8045   18.3590 C   0  0  0  0  0  0  0  0  0  0  0  0
    4.0017    3.1220   18.5316 C   0  0  0  0  0  0  0  0  0  0  0  0
    4.2541    3.9747   17.5026 C   0  0  0  0  0  0  0  0  0  0  0  0
    3.7018    4.4438   13.9265 C   0  0  0  0  0  0  0  0  0  0  0  0
    4.3307    4.4264   15.1789 O   0  0  0  0  0  0  0  0  0  0  0  0
    4.6975    5.2821   17.7194 O   0  0  0  0  0  0  0  0  0  0  0  0
    5.7562    5.5488   18.6068 C   0  0  0  0  0  0  0  0  0  0  0  0
 33 34  1  0  0  0
 34 23  1  0  0  0
 23 24  2  0  0  0
 24 25  1  0  0  0
 25 26  2  0  0  0
 26 27  1  0  0  0
 27 28  2  0  0  0
 28 29  1  0  0  0
 29 22  1  0  0  0
 22  1  1  0  0  0
  1  2  2  0  0  0
  2  3  1  0  0  0
  3  4  2  0  0  0
  4  8  1  0  0  0
  8  9  1  0  0  0
  9 10  2  0  0  0
  9 11  1  0  0  0
 11 14  1  0  0  0
 14 15  2  0  0  0
 15 16  1  0  0  0
 16 17  1  0  0  0
 16 18  2  0  0  0
 18 19  1  0  0  0
 19 20  2  0  0  0
 20 21  1  0  0  0
  4  5  1  0  0  0
  5  6  1  0  0  0
  5  7  2  0  0  0
 29 30  2  0  0  0
 30 31  1  0  0  0
 31 32  2  0  0  0
 32 35  1  0  0  0
 35 36  1  0  0  0
 32 23  1  0  0  0
 30 25  1  0  0  0
  7  1  1  0  0  0
 20 14  1  0  0  0
  8 12  1  0  0  0
 11 13  1  0  0  0
M  END
> <minimizedAffinity>
-7.83348

> <CNNscore>
0.2129475921

> <CNNaffinity>
6.5114374161

> <CNN_VS>
1.3865948915

> <CNNaffinity_variance>
0.3696271777

$$$$
[H]c1nc2c([H])c(OC([H])([H])[H])c(OC([H])([H])[H])c([H])c2c(Oc2c([H])c([H])c(N([H])C(=O)N([H])c3c([H])c(C([H])([H])[H])c([H])c([H])c3F)c(F)c2[H])c1[H]


 36 39  0  0  0  0  0  0  0  0999 V2000
    3.1661    3.2057   15.3995 C   0  0  0  0  0  0  0  0  0  0  0  0
    2.7391    4.4316   15.7856 C   0  0  0  0  0  0  0  0  0  0  0  0
    1.9155    5.2142   14.9741 C   0  0  0  0  0  0  0  0  0  0  0  0
    1.5038    4.7498   13.7233 C   0  0  0  0  0  0  0  0  0  0  0  0
    1.9543    3.4696   13.3463 C   0  0  0  0  0  0  0  0  0  0  0  0
    1.5450    2.9438   12.1430 F   0  0  0  0  0  0  0  0  0  0  0  0
    2.7437    2.7370   14.1423 C   0  0  0  0  0  0  0  0  0  0  0  0
    0.8547    5.5075   12.7538 N   0  0  0  0  0  0  0  0  0  0  0  0
    0.2481    6.2157   11.8477 C   0  0  0  0  0  0  0  0  0  0  0  0
    0.2213    7.4917   11.7086 O   0  0  0  0  0  0  0  0  0  0  0  0
   -0.5021    5.4871   10.8488 N   0  0  0  0  0  0  0  0  0  0  0  0
    1.1920    6.6403   13.4845 H   0  0  0  0  0  0  0  0  0  0  0  0
   -0.4207    4.4238   10.9818 H   0  0  0  0  0  0  0  0  0  0  0  0
   -1.2645    5.9325    9.8192 C   0  0  0  0  0  0  0  0  0  0  0  0
   -0.8504    6.6951    8.7577 C   0  0  0  0  0  0  0  0  0  0  0  0
   -1.7125    7.1922    7.8279 C   0  0  0  0  0  0  0  0  0  0  0  0
   -1.1845    8.0183    6.7119 C   0  0  0  0  0  0  0  0  0  0  0  0
   -3.1040    6.9522    7.8932 C   0  0  0  0  0  0  0  0  0  0  0  0
   -3.5390    6.1893    8.9469 C   0  0  0  0  0  0  0  0  0  0  0  0
   -2.6464    5.6951    9.8855 C   0  0  0  0  0  0  0  0  0  0  0  0
   -3.1247    4.9607   10.8878 F   0  0  0  0  0  0  0  0  0  0  0  0
    3.9718    2.4326   16.1528 O   0  0  0  0  0  0  0  0  0  0  0  0
    4.7423    2.6963   21.0974 C   0  0  0  0  0  0  0  0  0  0  0  0
    4.0513    1.5076   20.8758 C   0  0  0  0  0  0  0  0  0  0  0  0
    3.7026    1.1909   19.5860 C   0  0  0  0  0  0  0  0  0  0  0  0
    3.0318    0.0274   19.3318 N   0  0  0  0  0  0  0  0  0  0  0  0
    2.6792   -0.3243   18.0813 C   0  0  0  0  0  0  0  0  0  0  0  0
    2.9553    0.4350   16.9627 C   0  0  0  0  0  0  0  0  0  0  0  0
    3.6305    1.6107   17.1945 C   0  0  0  0  0  0  0  0  0  0  0  0
    3.9764    1.9487   18.4810 C   0  0  0  0  0  0  0  0  0  0  0  0
    4.6714    3.1339   18.7546 C   0  0  0  0  0  0  0  0  0  0  0  0
    5.0506    3.5157   20.0037 C   0  0  0  0  0  0  0  0  0  0  0  0
    4.4265    2.9300   23.5264 C   0  0  0  0  0  0  0  0  0  0  0  0
    5.1429    3.1154   22.3362 O   0  0  0  0  0  0  0  0  0  0  0  0
    5.7422    4.7082   20.2327 O   0  0  0  0  0  0  0  0  0  0  0  0
    5.0646    5.9406   20.2743 C   0  0  0  0  0  0  0  0  0  0  0  0
 33 34  1  0  0  0
 34 23  1  0  0  0
 23 24  2  0  0  0
 24 25  1  0  0  0
 25 26  2  0  0  0
 26 27  1  0  0  0
 27 28  2  0  0  0
 28 29  1  0  0  0
 29 22  1  0  0  0
 22  1  1  0  0  0
  1  2  2  0  0  0
  2  3  1  0  0  0
  3  4  2  0  0  0
  4  8  1  0  0  0
  8  9  1  0  0  0
  9 10  2  0  0  0
  9 11  1  0  0  0
 11 14  1  0  0  0
 14 15  2  0  0  0
 15 16  1  0  0  0
 16 17  1  0  0  0
 16 18  2  0  0  0
 18 19  1  0  0  0
 19 20  2  0  0  0
 20 21  1  0  0  0
  4  5  1  0  0  0
  5  6  1  0  0  0
  5  7  2  0  0  0
 29 30  2  0  0  0
 30 31  1  0  0  0
 31 32  2  0  0  0
 32 35  1  0  0  0
 35 36  1  0  0  0
 32 23  1  0  0  0
 30 25  1  0  0  0
  7  1  1  0  0  0
 20 14  1  0  0  0
  8 12  1  0  0  0
 11 13  1  0  0  0
M  END
> <minimizedAffinity>
-8.37359

> <CNNscore>
0.1938365549

> <CNNaffinity>
6.1950535774

> <CNN_VS>
1.2008278370

> <CNNaffinity_variance>
0.2420306653

$$$$
[H]c1nc2c([H])c(OC([H])([H])[H])c(OC([H])([H])[H])c([H])c2c(Oc2c([H])c([H])c(N([H])C(=O)N([H])c3c([H])c(C([H])([H])[H])c([H])c([H])c3F)c(F)c2[H])c1[H]


 36 39  0  0  0  0  0  0  0  0999 V2000
    3.5365    2.9631   16.3029 C   0  0  0  0  0  0  0  0  0  0  0  0
    3.0464    4.1577   16.7115 C   0  0  0  0  0  0  0  0  0  0  0  0
    2.3686    5.0128   15.8404 C   0  0  0  0  0  0  0  0  0  0  0  0
    2.1751    4.6567   14.5042 C   0  0  0  0  0  0  0  0  0  0  0  0
    2.6870    3.4070   14.1040 C   0  0  0  0  0  0  0  0  0  0  0  0
    2.4880    2.9858   12.8099 F   0  0  0  0  0  0  0  0  0  0  0  0
    3.3335    2.6034   14.9583 C   0  0  0  0  0  0  0  0  0  0  0  0
    1.6959    5.4980   13.5051 N   0  0  0  0  0  0  0  0  0  0  0  0
    1.2483    6.2844   12.5715 C   0  0  0  0  0  0  0  0  0  0  0  0
    1.0079    7.5443   12.6277 O   0  0  0  0  0  0  0  0  0  0  0  0
    0.9805    5.6789   11.2858 N   0  0  0  0  0  0  0  0  0  0  0  0
    1.5738    6.4912   14.4693 H   0  0  0  0  0  0  0  0  0  0  0  0
    1.2311    4.6339   11.2740 H   0  0  0  0  0  0  0  0  0  0  0  0
    0.4753    6.2142   10.1465 C   0  0  0  0  0  0  0  0  0  0  0  0
   -0.8385    6.2274    9.7550 C   0  0  0  0  0  0  0  0  0  0  0  0
   -1.2392    6.6881    8.5375 C   0  0  0  0  0  0  0  0  0  0  0  0
   -2.6822    6.6597    8.1860 C   0  0  0  0  0  0  0  0  0  0  0  0
   -0.3205    7.1901    7.5877 C   0  0  0  0  0  0  0  0  0  0  0  0
    0.9995    7.1875    7.9606 C   0  0  0  0  0  0  0  0  0  0  0  0
    1.3883    6.7110    9.2031 C   0  0  0  0  0  0  0  0  0  0  0  0
    2.6833    6.7322    9.5116 F   0  0  0  0  0  0  0  0  0  0  0  0
    4.2063    2.1225   17.1147 O   0  0  0  0  0  0  0  0  0  0  0  0
    4.5132    2.3565   22.1110 C   0  0  0  0  0  0  0  0  0  0  0  0
    3.7647    1.2182   21.8216 C   0  0  0  0  0  0  0  0  0  0  0  0
    3.5205    0.9203   20.5036 C   0  0  0  0  0  0  0  0  0  0  0  0
    2.7970   -0.1944   20.1839 N   0  0  0  0  0  0  0  0  0  0  0  0
    2.5427   -0.5268   18.9046 C   0  0  0  0  0  0  0  0  0  0  0  0
    2.9782    0.2055   17.8191 C   0  0  0  0  0  0  0  0  0  0  0  0
    3.7092    1.3319   18.1171 C   0  0  0  0  0  0  0  0  0  0  0  0
    3.9523    1.6513   19.4316 C   0  0  0  0  0  0  0  0  0  0  0  0
    4.6995    2.7861   19.7730 C   0  0  0  0  0  0  0  0  0  0  0  0
    4.9825    3.1466   21.0535 C   0  0  0  0  0  0  0  0  0  0  0  0
    5.6398    2.0484   24.2766 C   0  0  0  0  0  0  0  0  0  0  0  0
    4.8211    2.7526   23.3833 O   0  0  0  0  0  0  0  0  0  0  0  0
    5.7312    4.2886   21.3503 O   0  0  0  0  0  0  0  0  0  0  0  0
    5.4623    5.5148   20.7150 C   0  0  0  0  0  0  0  0  0  0  0  0
 33 34  1  0  0  0
 34 23  1  0  0  0
 23 24  2  0  0  0
 24 25  1  0  0  0
 25 26  2  0  0  0
 26 27  1  0  0  0
 27 28  2  0  0  0
 28 29  1  0  0  0
 29 22  1  0  0  0
 22  1  1  0  0  0
  1  2  2  0  0  0
  2  3  1  0  0  0
  3  4  2  0  0  0
  4  8  1  0  0  0
  8  9  1  0  0  0
  9 10  2  0  0  0
  9 11  1  0  0  0
 11 14  1  0  0  0
 14 15  2  0  0  0
 15 16  1  0  0  0
 16 17  1  0  0  0
 16 18  2  0  0  0
 18 19  1  0  0  0
 19 20  2  0  0  0
 20 21  1  0  0  0
  4  5  1  0  0  0
  5  6  1  0  0  0
  5  7  2  0  0  0
 29 30  2  0  0  0
 30 31  1  0  0  0
 31 32  2  0  0  0
 32 35  1  0  0  0
 35 36  1  0  0  0
 32 23  1  0  0  0
 30 25  1  0  0  0
  7  1  1  0  0  0
 20 14  1  0  0  0
  8 12  1  0  0  0
 11 13  1  0  0  0
M  END
> <minimizedAffinity>
-8.29275

> <CNNscore>
0.1815782487

> <CNNaffinity>
6.2981595993

> <CNN_VS>
1.1436088085

> <CNNaffinity_variance>
0.1755129099

$$$$
[H]c1nc2c(c(C([H])([H])[H])nn2[H])c(-c2c([H])c([H])c(N([H])C(=O)N([H])c3c([H])c([H])c([H])c(C([H])([H])[H])c3[H])c([H])c2[H])c1[H]


 30 33  0  0  0  0  0  0  0  0999 V2000
    4.2146    3.5649   17.7117 C   0  0  0  0  0  0  0  0  0  0  0  0
    3.5433    4.5501   18.3979 C   0  0  0  0  0  0  0  0  0  0  0  0
    4.1576    5.7247   18.7463 C   0  0  0  0  0  0  0  0  0  0  0  0
    5.5136    5.9590   18.4064 C   0  0  0  0  0  0  0  0  0  0  0  0
    6.1734    4.9742   17.7253 C   0  0  0  0  0  0  0  0  0  0  0  0
    5.5126    3.8045   17.3940 C   0  0  0  0  0  0  0  0  0  0  0  0
    4.4906    2.2248   20.5223 C   0  0  0  0  0  0  0  0  0  0  0  0
    3.7692    1.2346   19.7027 C   0  0  0  0  0  0  0  0  0  0  0  0
    3.3257    0.0134   20.1278 N   0  0  0  0  0  0  0  0  0  0  0  0
    2.7543   -0.6229   19.1449 N   0  0  0  0  0  0  0  0  0  0  0  0
    2.7788    0.1130   18.0295 C   0  0  0  0  0  0  0  0  0  0  0  0
    2.3628   -0.0580   16.7747 N   0  0  0  0  0  0  0  0  0  0  0  0
    2.5388    0.8694   15.8263 C   0  0  0  0  0  0  0  0  0  0  0  0
    3.1587    2.0577   16.0861 C   0  0  0  0  0  0  0  0  0  0  0  0
    3.6130    2.2797   17.4008 C   0  0  0  0  0  0  0  0  0  0  0  0
    3.4284    1.3140   18.3732 C   0  0  0  0  0  0  0  0  0  0  0  0
    2.3377   -1.5676   19.2130 H   0  0  0  0  0  0  0  0  0  0  0  0
    6.1152    7.1648   18.8083 N   0  0  0  0  0  0  0  0  0  0  0  0
    6.8656    7.3489   20.0101 C   0  0  0  0  0  0  0  0  0  0  0  0
    7.0266    6.3757   20.7825 O   0  0  0  0  0  0  0  0  0  0  0  0
    7.3946    8.6264   20.2743 N   0  0  0  0  0  0  0  0  0  0  0  0
    5.9809    7.9827   18.1457 H   0  0  0  0  0  0  0  0  0  0  0  0
    7.1867    9.3696   19.5341 H   0  0  0  0  0  0  0  0  0  0  0  0
    8.1359    9.0041   21.3752 C   0  0  0  0  0  0  0  0  0  0  0  0
    9.4006    9.4846   21.3462 C   0  0  0  0  0  0  0  0  0  0  0  0
   10.0662    9.8620   22.5272 C   0  0  0  0  0  0  0  0  0  0  0  0
    9.4654    9.7583   23.7421 C   0  0  0  0  0  0  0  0  0  0  0  0
    8.1720    9.2694   23.8023 C   0  0  0  0  0  0  0  0  0  0  0  0
    7.5187    9.1576   25.1356 C   0  0  0  0  0  0  0  0  0  0  0  0
    7.5367    8.9066   22.6471 C   0  0  0  0  0  0  0  0  0  0  0  0
  7  8  1  0  0  0
  8  9  2  0  0  0
  9 10  1  0  0  0
 10 11  1  0  0  0
 11 12  2  0  0  0
 12 13  1  0  0  0
 13 14  2  0  0  0
 14 15  1  0  0  0
 15  1  1  0  0  0
  1  2  2  0  0  0
  2  3  1  0  0  0
  3  4  2  0  0  0
  4 18  1  0  0  0
 18 19  1  0  0  0
 19 20  2  0  0  0
 19 21  1  0  0  0
 21 24  1  0  0  0
 24 25  2  0  0  0
 25 26  1  0  0  0
 26 27  2  0  0  0
 27 28  1  0  0  0
 28 29  1  0  0  0
 28 30  2  0  0  0
  4  5  1  0  0  0
  5  6  2  0  0  0
 15 16  2  0  0  0
 16  8  1  0  0  0
 16 11  1  0  0  0
  6  1  1  0  0  0
 30 24  1  0  0  0
 10 17  1  0  0  0
 18 22  1  0  0  0
 21 23  1  0  0  0
M  END
> <minimizedAffinity>
-8.22788

> <CNNscore>
0.5461789370

> <CNNaffinity>
6.2032618523

> <CNN_VS>
3.3880908489

> <CNNaffinity_variance>
0.2276578397

$$$$
[H]c1nc2c(c(C([H])([H])[H])nn2[H])c(-c2c([H])c([H])c(N([H])C(=O)N([H])c3c([H])c([H])c([H])c(C([H])([H])[H])c3[H])c([H])c2[H])c1[H]


 30 33  0  0  0  0  0  0  0  0999 V2000
    5.0450    9.0227   17.8347 C   0  0  0  0  0  0  0  0  0  0  0  0
    6.0194    8.5244   17.0013 C   0  0  0  0  0  0  0  0  0  0  0  0
    5.8728    8.5425   15.6387 C   0  0  0  0  0  0  0  0  0  0  0  0
    4.7032    9.0798   15.0452 C   0  0  0  0  0  0  0  0  0  0  0  0
    3.7397    9.5719   15.8809 C   0  0  0  0  0  0  0  0  0  0  0  0
    3.9308    9.5333   17.2508 C   0  0  0  0  0  0  0  0  0  0  0  0
    3.7096    6.2253   18.2386 C   0  0  0  0  0  0  0  0  0  0  0  0
    4.1281    6.6408   19.5894 C   0  0  0  0  0  0  0  0  0  0  0  0
    3.9589    5.9190   20.7380 N   0  0  0  0  0  0  0  0  0  0  0  0
    4.4151    6.5877   21.7588 N   0  0  0  0  0  0  0  0  0  0  0  0
    4.9056    7.7680   21.3681 C   0  0  0  0  0  0  0  0  0  0  0  0
    5.4602    8.8119   21.9839 N   0  0  0  0  0  0  0  0  0  0  0  0
    5.8573    9.9071   21.3257 C   0  0  0  0  0  0  0  0  0  0  0  0
    5.7193   10.0248   19.9726 C   0  0  0  0  0  0  0  0  0  0  0  0
    5.1385    8.9431   19.2822 C   0  0  0  0  0  0  0  0  0  0  0  0
    4.7292    7.8165   19.9720 C   0  0  0  0  0  0  0  0  0  0  0  0
    4.4020    6.2555   22.7387 H   0  0  0  0  0  0  0  0  0  0  0  0
    4.5791    9.0525   13.6447 N   0  0  0  0  0  0  0  0  0  0  0  0
    3.9567    8.0080   12.8945 C   0  0  0  0  0  0  0  0  0  0  0  0
    3.4641    7.0307   13.5043 O   0  0  0  0  0  0  0  0  0  0  0  0
    3.9247    8.1251   11.4920 N   0  0  0  0  0  0  0  0  0  0  0  0
    4.9920    9.8869   13.1356 H   0  0  0  0  0  0  0  0  0  0  0  0
    4.3787    9.0088   11.0964 H   0  0  0  0  0  0  0  0  0  0  0  0
    3.3794    7.2263   10.5982 C   0  0  0  0  0  0  0  0  0  0  0  0
    4.0592    6.2588    9.9402 C   0  0  0  0  0  0  0  0  0  0  0  0
    3.4057    5.3757    9.0609 C   0  0  0  0  0  0  0  0  0  0  0  0
    2.0675    5.4603    8.8379 C   0  0  0  0  0  0  0  0  0  0  0  0
    1.3465    6.4408    9.4969 C   0  0  0  0  0  0  0  0  0  0  0  0
   -0.1190    6.5293    9.2489 C   0  0  0  0  0  0  0  0  0  0  0  0
    1.9938    7.2922   10.3489 C   0  0  0  0  0  0  0  0  0  0  0  0
  7  8  1  0  0  0
  8  9  2  0  0  0
  9 10  1  0  0  0
 10 11  1  0  0  0
 11 12  2  0  0  0
 12 13  1  0  0  0
 13 14  2  0  0  0
 14 15  1  0  0  0
 15  1  1  0  0  0
  1  2  2  0  0  0
  2  3  1  0  0  0
  3  4  2  0  0  0
  4 18  1  0  0  0
 18 19  1  0  0  0
 19 20  2  0  0  0
 19 21  1  0  0  0
 21 24  1  0  0  0
 24 25  2  0  0  0
 25 26  1  0  0  0
 26 27  2  0  0  0
 27 28  1  0  0  0
 28 29  1  0  0  0
 28 30  2  0  0  0
  4  5  1  0  0  0
  5  6  2  0  0  0
 15 16  2  0  0  0
 16  8  1  0  0  0
 16 11  1  0  0  0
  6  1  1  0  0  0
 30 24  1  0  0  0
 10 17  1  0  0  0
 18 22  1  0  0  0
 21 23  1  0  0  0
M  END
> <minimizedAffinity>
-6.86253

> <CNNscore>
0.3279080987

> <CNNaffinity>
4.9923624992

> <CNN_VS>
1.6370360851

> <CNNaffinity_variance>
0.8777562380

$$$$
[H]c1nc2c(c(C([H])([H])[H])nn2[H])c(-c2c([H])c([H])c(N([H])C(=O)N([H])c3c([H])c([H])c([H])c(C([H])([H])[H])c3[H])c([H])c2[H])c1[H]


 30 33  0  0  0  0  0  0  0  0999 V2000
    4.8681    4.2309   19.2493 C   0  0  0  0  0  0  0  0  0  0  0  0
    5.5108    4.0668   18.0442 C   0  0  0  0  0  0  0  0  0  0  0  0
    5.0735    4.6974   16.9086 C   0  0  0  0  0  0  0  0  0  0  0  0
    3.9368    5.5435   16.9446 C   0  0  0  0  0  0  0  0  0  0  0  0
    3.3037    5.7001   18.1461 C   0  0  0  0  0  0  0  0  0  0  0  0
    3.7811    5.0440   19.2669 C   0  0  0  0  0  0  0  0  0  0  0  0
    3.5792    1.4621   18.5829 C   0  0  0  0  0  0  0  0  0  0  0  0
    4.2818    1.2519   19.8615 C   0  0  0  0  0  0  0  0  0  0  0  0
    4.3396    0.0784   20.5603 N   0  0  0  0  0  0  0  0  0  0  0  0
    5.0159    0.2453   21.6613 N   0  0  0  0  0  0  0  0  0  0  0  0
    5.4422    1.5077   21.7658 C   0  0  0  0  0  0  0  0  0  0  0  0
    6.1391    2.1985   22.6679 N   0  0  0  0  0  0  0  0  0  0  0  0
    6.4159    3.4994   22.5201 C   0  0  0  0  0  0  0  0  0  0  0  0
    6.0000    4.2054   21.4281 C   0  0  0  0  0  0  0  0  0  0  0  0
    5.2611    3.5126   20.4493 C   0  0  0  0  0  0  0  0  0  0  0  0
    4.9782    2.1689   20.6125 C   0  0  0  0  0  0  0  0  0  0  0  0
    5.2005   -0.4940   22.3613 H   0  0  0  0  0  0  0  0  0  0  0  0
    3.5032    6.1482   15.7514 N   0  0  0  0  0  0  0  0  0  0  0  0
    2.2706    5.8651   15.0867 C   0  0  0  0  0  0  0  0  0  0  0  0
    1.4883    5.0240   15.5869 O   0  0  0  0  0  0  0  0  0  0  0  0
    1.9883    6.5501   13.8897 N   0  0  0  0  0  0  0  0  0  0  0  0
    4.1674    6.8648   15.3377 H   0  0  0  0  0  0  0  0  0  0  0  0
    2.7380    7.2431   13.5715 H   0  0  0  0  0  0  0  0  0  0  0  0
    0.8634    6.4125   13.1025 C   0  0  0  0  0  0  0  0  0  0  0  0
    0.8389    5.9188   11.8428 C   0  0  0  0  0  0  0  0  0  0  0  0
   -0.3672    5.8003   11.1277 C   0  0  0  0  0  0  0  0  0  0  0  0
   -1.5536    6.1771   11.6737 C   0  0  0  0  0  0  0  0  0  0  0  0
   -1.5589    6.6862   12.9607 C   0  0  0  0  0  0  0  0  0  0  0  0
   -2.8611    7.0978   13.5539 C   0  0  0  0  0  0  0  0  0  0  0  0
   -0.3799    6.7958   13.6445 C   0  0  0  0  0  0  0  0  0  0  0  0
  7  8  1  0  0  0
  8  9  2  0  0  0
  9 10  1  0  0  0
 10 11  1  0  0  0
 11 12  2  0  0  0
 12 13  1  0  0  0
 13 14  2  0  0  0
 14 15  1  0  0  0
 15  1  1  0  0  0
  1  2  2  0  0  0
  2  3  1  0  0  0
  3  4  2  0  0  0
  4 18  1  0  0  0
 18 19  1  0  0  0
 19 20  2  0  0  0
 19 21  1  0  0  0
 21 24  1  0  0  0
 24 25  2  0  0  0
 25 26  1  0  0  0
 26 27  2  0  0  0
 27 28  1  0  0  0
 28 29  1  0  0  0
 28 30  2  0  0  0
  4  5  1  0  0  0
  5  6  2  0  0  0
 15 16  2  0  0  0
 16  8  1  0  0  0
 16 11  1  0  0  0
  6  1  1  0  0  0
 30 24  1  0  0  0
 10 17  1  0  0  0
 18 22  1  0  0  0
 21 23  1  0  0  0
M  END
> <minimizedAffinity>
-7.92924

> <CNNscore>
0.2931385338

> <CNNaffinity>
5.9105143547

> <CNN_VS>
1.7325994968

> <CNNaffinity_variance>
0.2520986795

$$$$
[H]c1nc2c(c(C([H])([H])[H])nn2[H])c(-c2c([H])c([H])c(N([H])C(=O)N([H])c3c([H])c([H])c([H])c(C([H])([H])[H])c3[H])c([H])c2[H])c1[H]


 30 33  0  0  0  0  0  0  0  0999 V2000
    3.0347    3.9204   14.6597 C   0  0  0  0  0  0  0  0  0  0  0  0
    2.0215    4.8439   14.7733 C   0  0  0  0  0  0  0  0  0  0  0  0
    1.9219    5.9058   13.9125 C   0  0  0  0  0  0  0  0  0  0  0  0
    2.8683    6.0835   12.8723 C   0  0  0  0  0  0  0  0  0  0  0  0
    3.8723    5.1616   12.7674 C   0  0  0  0  0  0  0  0  0  0  0  0
    3.9331    4.1050   13.6588 C   0  0  0  0  0  0  0  0  0  0  0  0
    4.8598    5.3884   16.7300 C   0  0  0  0  0  0  0  0  0  0  0  0
    4.6221    4.0568   17.3158 C   0  0  0  0  0  0  0  0  0  0  0  0
    5.1057    3.6109   18.5141 N   0  0  0  0  0  0  0  0  0  0  0  0
    4.7322    2.3795   18.7179 N   0  0  0  0  0  0  0  0  0  0  0  0
    3.9944    1.9355   17.6958 C   0  0  0  0  0  0  0  0  0  0  0  0
    3.3929    0.7850   17.3936 N   0  0  0  0  0  0  0  0  0  0  0  0
    2.7128    0.6068   16.2551 C   0  0  0  0  0  0  0  0  0  0  0  0
    2.5905    1.5990   15.3254 C   0  0  0  0  0  0  0  0  0  0  0  0
    3.2105    2.8322   15.6060 C   0  0  0  0  0  0  0  0  0  0  0  0
    3.9131    3.0057   16.7844 C   0  0  0  0  0  0  0  0  0  0  0  0
    4.9710    1.8184   19.5538 H   0  0  0  0  0  0  0  0  0  0  0  0
    2.7475    7.2024   12.0292 N   0  0  0  0  0  0  0  0  0  0  0  0
    2.9394    7.1898   10.6134 C   0  0  0  0  0  0  0  0  0  0  0  0
    3.2290    6.1100   10.0479 O   0  0  0  0  0  0  0  0  0  0  0  0
    2.7931    8.4015    9.9120 N   0  0  0  0  0  0  0  0  0  0  0  0
    2.4948    8.1117   12.5141 H   0  0  0  0  0  0  0  0  0  0  0  0
    2.5426    9.2502   10.5124 H   0  0  0  0  0  0  0  0  0  0  0  0
    2.9429    8.5954    8.5540 C   0  0  0  0  0  0  0  0  0  0  0  0
    2.0058    8.3354    7.6130 C   0  0  0  0  0  0  0  0  0  0  0  0
    2.2495    8.5871    6.2501 C   0  0  0  0  0  0  0  0  0  0  0  0
    3.4345    9.1003    5.8260 C   0  0  0  0  0  0  0  0  0  0  0  0
    4.4120    9.3756    6.7664 C   0  0  0  0  0  0  0  0  0  0  0  0
    5.7084    9.9374    6.2964 C   0  0  0  0  0  0  0  0  0  0  0  0
    4.1622    9.1266    8.0875 C   0  0  0  0  0  0  0  0  0  0  0  0
  7  8  1  0  0  0
  8  9  2  0  0  0
  9 10  1  0  0  0
 10 11  1  0  0  0
 11 12  2  0  0  0
 12 13  1  0  0  0
 13 14  2  0  0  0
 14 15  1  0  0  0
 15  1  1  0  0  0
  1  2  2  0  0  0
  2  3  1  0  0  0
  3  4  2  0  0  0
  4 18  1  0  0  0
 18 19  1  0  0  0
 19 20  2  0  0  0
 19 21  1  0  0  0
 21 24  1  0  0  0
 24 25  2  0  0  0
 25 26  1  0  0  0
 26 27  2  0  0  0
 27 28  1  0  0  0
 28 29  1  0  0  0
 28 30  2  0  0  0
  4  5  1  0  0  0
  5  6  2  0  0  0
 15 16  2  0  0  0
 16  8  1  0  0  0
 16 11  1  0  0  0
  6  1  1  0  0  0
 30 24  1  0  0  0
 10 17  1  0  0  0
 18 22  1  0  0  0
 21 23  1  0  0  0
M  END
> <minimizedAffinity>
-7.64524

> <CNNscore>
0.2801433504

> <CNNaffinity>
5.3549261093

> <CNN_VS>
1.5001469851

> <CNNaffinity_variance>
0.2593468130

$$$$
[H]c1nc2c(c(C([H])([H])[H])nn2[H])c(-c2c([H])c([H])c(N([H])C(=O)N([H])c3c([H])c([H])c([H])c(C([H])([H])[H])c3[H])c([H])c2[H])c1[H]


 30 33  0  0  0  0  0  0  0  0999 V2000
    4.5390    3.9609   19.1449 C   0  0  0  0  0  0  0  0  0  0  0  0
    5.4513    3.7890   18.1298 C   0  0  0  0  0  0  0  0  0  0  0  0
    5.3259    4.4505   16.9359 C   0  0  0  0  0  0  0  0  0  0  0  0
    4.2434    5.3376   16.7120 C   0  0  0  0  0  0  0  0  0  0  0  0
    3.3410    5.5016   17.7257 C   0  0  0  0  0  0  0  0  0  0  0  0
    3.5079    4.8134   18.9145 C   0  0  0  0  0  0  0  0  0  0  0  0
    3.2985    1.2732   18.1401 C   0  0  0  0  0  0  0  0  0  0  0  0
    3.6709    1.0144   19.5426 C   0  0  0  0  0  0  0  0  0  0  0  0
    3.5025   -0.1658   20.2115 N   0  0  0  0  0  0  0  0  0  0  0  0
    3.9107   -0.0453   21.4428 N   0  0  0  0  0  0  0  0  0  0  0  0
    4.3662    1.1906   21.6696 C   0  0  0  0  0  0  0  0  0  0  0  0
    4.8681    1.8347   22.7231 N   0  0  0  0  0  0  0  0  0  0  0  0
    5.2394    3.1192   22.6704 C   0  0  0  0  0  0  0  0  0  0  0  0
    5.1277    3.8557   21.5264 C   0  0  0  0  0  0  0  0  0  0  0  0
    4.6027    3.2126   20.3884 C   0  0  0  0  0  0  0  0  0  0  0  0
    4.2197    1.8854   20.4537 C   0  0  0  0  0  0  0  0  0  0  0  0
    3.8877   -0.7991   22.1514 H   0  0  0  0  0  0  0  0  0  0  0  0
    4.1349    5.9738   15.4626 N   0  0  0  0  0  0  0  0  0  0  0  0
    3.1281    5.7020   14.4860 C   0  0  0  0  0  0  0  0  0  0  0  0
    2.2527    4.8416   14.7372 O   0  0  0  0  0  0  0  0  0  0  0  0
    3.1654    6.4195   13.2754 N   0  0  0  0  0  0  0  0  0  0  0  0
    4.8752    6.7064   15.2599 H   0  0  0  0  0  0  0  0  0  0  0  0
    3.9630    7.1263   13.1871 H   0  0  0  0  0  0  0  0  0  0  0  0
    2.2930    6.2974   12.2133 C   0  0  0  0  0  0  0  0  0  0  0  0
    1.1101    6.9424   12.0874 C   0  0  0  0  0  0  0  0  0  0  0  0
    0.2982    6.7648   10.9518 C   0  0  0  0  0  0  0  0  0  0  0  0
    0.6699    5.9388    9.9384 C   0  0  0  0  0  0  0  0  0  0  0  0
    1.8748    5.2654   10.0402 C   0  0  0  0  0  0  0  0  0  0  0  0
    2.2770    4.3616    8.9273 C   0  0  0  0  0  0  0  0  0  0  0  0
    2.6542    5.4472   11.1489 C   0  0  0  0  0  0  0  0  0  0  0  0
  7  8  1  0  0  0
  8  9  2  0  0  0
  9 10  1  0  0  0
 10 11  1  0  0  0
 11 12  2  0  0  0
 12 13  1  0  0  0
 13 14  2  0  0  0
 14 15  1  0  0  0
 15  1  1  0  0  0
  1  2  2  0  0  0
  2  3  1  0  0  0
  3  4  2  0  0  0
  4 18  1  0  0  0
 18 19  1  0  0  0
 19 20  2  0  0  0
 19 21  1  0  0  0
 21 24  1  0  0  0
 24 25  2  0  0  0
 25 26  1  0  0  0
 26 27  2  0  0  0
 27 28  1  0  0  0
 28 29  1  0  0  0
 28 30  2  0  0  0
  4  5  1  0  0  0
  5  6  2  0  0  0
 15 16  2  0  0  0
 16  8  1  0  0  0
 16 11  1  0  0  0
  6  1  1  0  0  0
 30 24  1  0  0  0
 10 17  1  0  0  0
 18 22  1  0  0  0
 21 23  1  0  0  0
M  END
> <minimizedAffinity>
-7.37377

> <CNNscore>
0.2778407335

> <CNNaffinity>
6.0106477737

> <CNN_VS>
1.6700028181

> <CNNaffinity_variance>
0.4827253222

$$$$
[H]c1nc2c(c(C([H])([H])[H])nn2[H])c(-c2c([H])c([H])c(N([H])C(=O)N([H])c3c([H])c([H])c([H])c(C([H])([H])[H])c3[H])c([H])c2[H])c1[H]


 30 33  0  0  0  0  0  0  0  0999 V2000
    2.9600    2.2606   16.3499 C   0  0  0  0  0  0  0  0  0  0  0  0
    3.2829    1.7947   15.0965 C   0  0  0  0  0  0  0  0  0  0  0  0
    3.0691    2.5526   13.9747 C   0  0  0  0  0  0  0  0  0  0  0  0
    2.5043    3.8487   14.0757 C   0  0  0  0  0  0  0  0  0  0  0  0
    2.1856    4.3033   15.3249 C   0  0  0  0  0  0  0  0  0  0  0  0
    2.4196    3.5034   16.4295 C   0  0  0  0  0  0  0  0  0  0  0  0
    5.1870    3.9201   17.7846 C   0  0  0  0  0  0  0  0  0  0  0  0
    4.8474    2.8458   18.7349 C   0  0  0  0  0  0  0  0  0  0  0  0
    5.4039    2.6634   19.9701 N   0  0  0  0  0  0  0  0  0  0  0  0
    4.8995    1.6044   20.5370 N   0  0  0  0  0  0  0  0  0  0  0  0
    3.9973    1.0265   19.7380 C   0  0  0  0  0  0  0  0  0  0  0  0
    3.2206   -0.0539   19.8151 N   0  0  0  0  0  0  0  0  0  0  0  0
    2.3963   -0.4188   18.8261 C   0  0  0  0  0  0  0  0  0  0  0  0
    2.2976    0.2980   17.6684 C   0  0  0  0  0  0  0  0  0  0  0  0
    3.1009    1.4486   17.5462 C   0  0  0  0  0  0  0  0  0  0  0  0
    3.9513    1.8159   18.5730 C   0  0  0  0  0  0  0  0  0  0  0  0
    5.1582    1.2546   21.4759 H   0  0  0  0  0  0  0  0  0  0  0  0
    2.2738    4.5819   12.8981 N   0  0  0  0  0  0  0  0  0  0  0  0
    1.0099    4.7126   12.2448 C   0  0  0  0  0  0  0  0  0  0  0  0
    0.0068    4.1497   12.7414 O   0  0  0  0  0  0  0  0  0  0  0  0
    0.9483    5.4745   11.0627 N   0  0  0  0  0  0  0  0  0  0  0  0
    3.1263    5.0620   12.4875 H   0  0  0  0  0  0  0  0  0  0  0  0
    1.8753    5.9036   10.7462 H   0  0  0  0  0  0  0  0  0  0  0  0
   -0.1686    5.7119   10.2880 C   0  0  0  0  0  0  0  0  0  0  0  0
   -1.4187    5.2649   10.5500 C   0  0  0  0  0  0  0  0  0  0  0  0
   -2.4991    5.5792    9.7050 C   0  0  0  0  0  0  0  0  0  0  0  0
   -2.3294    6.3429    8.5934 C   0  0  0  0  0  0  0  0  0  0  0  0
   -1.0614    6.8136    8.3000 C   0  0  0  0  0  0  0  0  0  0  0  0
   -0.8809    7.6494    7.0810 C   0  0  0  0  0  0  0  0  0  0  0  0
   -0.0203    6.5011    9.1296 C   0  0  0  0  0  0  0  0  0  0  0  0
  7  8  1  0  0  0
  8  9  2  0  0  0
  9 10  1  0  0  0
 10 11  1  0  0  0
 11 12  2  0  0  0
 12 13  1  0  0  0
 13 14  2  0  0  0
 14 15  1  0  0  0
 15  1  1  0  0  0
  1  2  2  0  0  0
  2  3  1  0  0  0
  3  4  2  0  0  0
  4 18  1  0  0  0
 18 19  1  0  0  0
 19 20  2  0  0  0
 19 21  1  0  0  0
 21 24  1  0  0  0
 24 25  2  0  0  0
 25 26  1  0  0  0
 26 27  2  0  0  0
 27 28  1  0  0  0
 28 29  1  0  0  0
 28 30  2  0  0  0
  4  5  1  0  0  0
  5  6  2  0  0  0
 15 16  2  0  0  0
 16  8  1  0  0  0
 16 11  1  0  0  0
  6  1  1  0  0  0
 30 24  1  0  0  0
 10 17  1  0  0  0
 18 22  1  0  0  0
 21 23  1  0  0  0
M  END
> <minimizedAffinity>
-7.70878

> <CNNscore>
0.2562929690

> <CNNaffinity>
5.7203850746

> <CNN_VS>
1.4660944939

> <CNNaffinity_variance>
0.3676541448

$$$$
[H]c1nc2c(c(C([H])([H])[H])nn2[H])c(-c2c([H])c([H])c(N([H])C(=O)N([H])c3c([H])c([H])c([H])c(C([H])([H])[H])c3[H])c([H])c2[H])c1[H]


 30 33  0  0  0  0  0  0  0  0999 V2000
    2.9950    2.4850   15.7146 C   0  0  0  0  0  0  0  0  0  0  0  0
    3.3456    1.9873   14.4810 C   0  0  0  0  0  0  0  0  0  0  0  0
    3.1489    2.7126   13.3349 C   0  0  0  0  0  0  0  0  0  0  0  0
    2.5737    4.0069   13.3891 C   0  0  0  0  0  0  0  0  0  0  0  0
    2.2274    4.4933   14.6189 C   0  0  0  0  0  0  0  0  0  0  0  0
    2.4449    3.7256   15.7494 C   0  0  0  0  0  0  0  0  0  0  0  0
    5.1538    4.2208   17.1630 C   0  0  0  0  0  0  0  0  0  0  0  0
    4.8074    3.1657   18.1322 C   0  0  0  0  0  0  0  0  0  0  0  0
    5.3336    3.0256   19.3861 N   0  0  0  0  0  0  0  0  0  0  0  0
    4.8324    1.9728   19.9673 N   0  0  0  0  0  0  0  0  0  0  0  0
    3.9620    1.3583   19.1604 C   0  0  0  0  0  0  0  0  0  0  0  0
    3.2021    0.2665   19.2457 N   0  0  0  0  0  0  0  0  0  0  0  0
    2.4111   -0.1386   18.2453 C   0  0  0  0  0  0  0  0  0  0  0  0
    2.3312    0.5459   17.0668 C   0  0  0  0  0  0  0  0  0  0  0  0
    3.1176    1.7070   16.9353 C   0  0  0  0  0  0  0  0  0  0  0  0
    3.9337    2.1162   17.9740 C   0  0  0  0  0  0  0  0  0  0  0  0
    5.0718    1.6523   20.9216 H   0  0  0  0  0  0  0  0  0  0  0  0
    2.3616    4.7059   12.1875 N   0  0  0  0  0  0  0  0  0  0  0  0
    3.3816    5.0638   11.2532 C   0  0  0  0  0  0  0  0  0  0  0  0
    4.5669    4.7342   11.4900 O   0  0  0  0  0  0  0  0  0  0  0  0
    3.0054    5.7766   10.0991 N   0  0  0  0  0  0  0  0  0  0  0  0
    1.3544    4.9752   11.9901 H   0  0  0  0  0  0  0  0  0  0  0  0
    1.9617    5.9942   10.0157 H   0  0  0  0  0  0  0  0  0  0  0  0
    3.8371    6.2157    9.0893 C   0  0  0  0  0  0  0  0  0  0  0  0
    4.4450    5.4289    8.1713 C   0  0  0  0  0  0  0  0  0  0  0  0
    5.2618    5.9772    7.1652 C   0  0  0  0  0  0  0  0  0  0  0  0
    5.4723    7.3171    7.0765 C   0  0  0  0  0  0  0  0  0  0  0  0
    4.8636    8.1463    8.0024 C   0  0  0  0  0  0  0  0  0  0  0  0
    5.0977    9.6133    7.9009 C   0  0  0  0  0  0  0  0  0  0  0  0
    4.0722    7.6006    8.9748 C   0  0  0  0  0  0  0  0  0  0  0  0
  7  8  1  0  0  0
  8  9  2  0  0  0
  9 10  1  0  0  0
 10 11  1  0  0  0
 11 12  2  0  0  0
 12 13  1  0  0  0
 13 14  2  0  0  0
 14 15  1  0  0  0
 15  1  1  0  0  0
  1  2  2  0  0  0
  2  3  1  0  0  0
  3  4  2  0  0  0
  4 18  1  0  0  0
 18 19  1  0  0  0
 19 20  2  0  0  0
 19 21  1  0  0  0
 21 24  1  0  0  0
 24 25  2  0  0  0
 25 26  1  0  0  0
 26 27  2  0  0  0
 27 28  1  0  0  0
 28 29  1  0  0  0
 28 30  2  0  0  0
  4  5  1  0  0  0
  5  6  2  0  0  0
 15 16  2  0  0  0
 16  8  1  0  0  0
 16 11  1  0  0  0
  6  1  1  0  0  0
 30 24  1  0  0  0
 10 17  1  0  0  0
 18 22  1  0  0  0
 21 23  1  0  0  0
M  END
> <minimizedAffinity>
-7.26188

> <CNNscore>
0.2158661038

> <CNNaffinity>
5.4903564453

> <CNN_VS>
1.1851818562

> <CNNaffinity_variance>
0.2482861280

$$$$
[H]c1nc2c(c(C([H])([H])[H])nn2[H])c(-c2c([H])c([H])c(N([H])C(=O)N([H])c3c([H])c([H])c([H])c(C([H])([H])[H])c3[H])c([H])c2[H])c1[H]


 30 33  0  0  0  0  0  0  0  0999 V2000
    2.2485    4.3238   12.8612 C   0  0  0  0  0  0  0  0  0  0  0  0
    3.4339    4.5544   13.5199 C   0  0  0  0  0  0  0  0  0  0  0  0
    3.8807    3.7118   14.5043 C   0  0  0  0  0  0  0  0  0  0  0  0
    3.1273    2.5696   14.8742 C   0  0  0  0  0  0  0  0  0  0  0  0
    1.9501    2.3488   14.2150 C   0  0  0  0  0  0  0  0  0  0  0  0
    1.5386    3.2261   13.2274 C   0  0  0  0  0  0  0  0  0  0  0  0
    3.5536    3.0787   10.3080 C   0  0  0  0  0  0  0  0  0  0  0  0
    2.7102    4.1766    9.8020 C   0  0  0  0  0  0  0  0  0  0  0  0
    2.5544    4.5278    8.4901 N   0  0  0  0  0  0  0  0  0  0  0  0
    1.7634    5.5584    8.3929 N   0  0  0  0  0  0  0  0  0  0  0  0
    1.3508    5.9516    9.6019 C   0  0  0  0  0  0  0  0  0  0  0  0
    0.5709    6.9292   10.0629 N   0  0  0  0  0  0  0  0  0  0  0  0
    0.3354    7.1059   11.3682 C   0  0  0  0  0  0  0  0  0  0  0  0
    0.8821    6.2898   12.3164 C   0  0  0  0  0  0  0  0  0  0  0  0
    1.7123    5.2425   11.8717 C   0  0  0  0  0  0  0  0  0  0  0  0
    1.9514    5.0697   10.5207 C   0  0  0  0  0  0  0  0  0  0  0  0
    1.4893    6.0136    7.5050 H   0  0  0  0  0  0  0  0  0  0  0  0
    3.6062    1.7470   15.9093 N   0  0  0  0  0  0  0  0  0  0  0  0
    3.5480    2.0599   17.3021 C   0  0  0  0  0  0  0  0  0  0  0  0
    3.0258    3.1404   17.6621 O   0  0  0  0  0  0  0  0  0  0  0  0
    4.0844    1.1321   18.2148 N   0  0  0  0  0  0  0  0  0  0  0  0
    4.0403    0.8304   15.5974 H   0  0  0  0  0  0  0  0  0  0  0  0
    4.4991    0.2484   17.7782 H   0  0  0  0  0  0  0  0  0  0  0  0
    4.1293    1.2532   19.5886 C   0  0  0  0  0  0  0  0  0  0  0  0
    3.3005    0.6348   20.4615 C   0  0  0  0  0  0  0  0  0  0  0  0
    3.4411    0.8085   21.8508 C   0  0  0  0  0  0  0  0  0  0  0  0
    4.4135    1.6038   22.3698 C   0  0  0  0  0  0  0  0  0  0  0  0
    5.2756    2.2496   21.5007 C   0  0  0  0  0  0  0  0  0  0  0  0
    6.3389    3.1198   22.0744 C   0  0  0  0  0  0  0  0  0  0  0  0
    5.1281    2.0719   20.1529 C   0  0  0  0  0  0  0  0  0  0  0  0
  7  8  1  0  0  0
  8  9  2  0  0  0
  9 10  1  0  0  0
 10 11  1  0  0  0
 11 12  2  0  0  0
 12 13  1  0  0  0
 13 14  2  0  0  0
 14 15  1  0  0  0
 15  1  1  0  0  0
  1  2  2  0  0  0
  2  3  1  0  0  0
  3  4  2  0  0  0
  4 18  1  0  0  0
 18 19  1  0  0  0
 19 20  2  0  0  0
 19 21  1  0  0  0
 21 24  1  0  0  0
 24 25  2  0  0  0
 25 26  1  0  0  0
 26 27  2  0  0  0
 27 28  1  0  0  0
 28 29  1  0  0  0
 28 30  2  0  0  0
  4  5  1  0  0  0
  5  6  2  0  0  0
 15 16  2  0  0  0
 16  8  1  0  0  0
 16 11  1  0  0  0
  6  1  1  0  0  0
 30 24  1  0  0  0
 10 17  1  0  0  0
 18 22  1  0  0  0
 21 23  1  0  0  0
M  END
> <minimizedAffinity>
-7.44606

> <CNNscore>
0.1715045720

> <CNNaffinity>
5.7200503349

> <CNN_VS>
0.9810147882

> <CNNaffinity_variance>
0.3177445829

$$$$
[H]c1nc2c(c(C([H])([H])[H])nn2[H])c(-c2c([H])c([H])c(N([H])C(=O)N([H])c3c([H])c([H])c([H])c(C([H])([H])[H])c3[H])c([H])c2[H])c1[H]


 30 33  0  0  0  0  0  0  0  0999 V2000
    2.7752    6.6629   12.1862 C   0  0  0  0  0  0  0  0  0  0  0  0
    2.9974    5.3943   12.6695 C   0  0  0  0  0  0  0  0  0  0  0  0
    2.9933    5.1304   14.0144 C   0  0  0  0  0  0  0  0  0  0  0  0
    2.7579    6.1663   14.9529 C   0  0  0  0  0  0  0  0  0  0  0  0
    2.5390    7.4240   14.4639 C   0  0  0  0  0  0  0  0  0  0  0  0
    2.5519    7.6438   13.0978 C   0  0  0  0  0  0  0  0  0  0  0  0
   -0.2468    6.3289   11.4595 C   0  0  0  0  0  0  0  0  0  0  0  0
    0.3909    6.7906   10.2134 C   0  0  0  0  0  0  0  0  0  0  0  0
   -0.2454    7.0210    9.0256 N   0  0  0  0  0  0  0  0  0  0  0  0
    0.6154    7.3921    8.1207 N   0  0  0  0  0  0  0  0  0  0  0  0
    1.8494    7.4324    8.6324 C   0  0  0  0  0  0  0  0  0  0  0  0
    3.0608    7.7215    8.1574 N   0  0  0  0  0  0  0  0  0  0  0  0
    4.1628    7.6613    8.9141 C   0  0  0  0  0  0  0  0  0  0  0  0
    4.1154    7.2986   10.2294 C   0  0  0  0  0  0  0  0  0  0  0  0
    2.8537    6.9858   10.7720 C   0  0  0  0  0  0  0  0  0  0  0  0
    1.7211    7.0487    9.9811 C   0  0  0  0  0  0  0  0  0  0  0  0
    0.3812    7.6246    7.1400 H   0  0  0  0  0  0  0  0  0  0  0  0
    2.7915    5.8593   16.3247 N   0  0  0  0  0  0  0  0  0  0  0  0
    3.8177    6.2631   17.2330 C   0  0  0  0  0  0  0  0  0  0  0  0
    4.7712    6.9547   16.8059 O   0  0  0  0  0  0  0  0  0  0  0  0
    3.7103    5.8624   18.5782 N   0  0  0  0  0  0  0  0  0  0  0  0
    1.9771    5.2797   16.6808 H   0  0  0  0  0  0  0  0  0  0  0  0
    2.8473    5.2763   18.8134 H   0  0  0  0  0  0  0  0  0  0  0  0
    4.5950    6.1436   19.5991 C   0  0  0  0  0  0  0  0  0  0  0  0
    5.5538    5.3089   20.0630 C   0  0  0  0  0  0  0  0  0  0  0  0
    6.4228    5.6983   21.0991 C   0  0  0  0  0  0  0  0  0  0  0  0
    6.3328    6.9265   21.6742 C   0  0  0  0  0  0  0  0  0  0  0  0
    5.3609    7.8012   21.2203 C   0  0  0  0  0  0  0  0  0  0  0  0
    5.2665    9.1454   21.8539 C   0  0  0  0  0  0  0  0  0  0  0  0
    4.5232    7.4104   20.2127 C   0  0  0  0  0  0  0  0  0  0  0  0
  7  8  1  0  0  0
  8  9  2  0  0  0
  9 10  1  0  0  0
 10 11  1  0  0  0
 11 12  2  0  0  0
 12 13  1  0  0  0
 13 14  2  0  0  0
 14 15  1  0  0  0
 15  1  1  0  0  0
  1  2  2  0  0  0
  2  3  1  0  0  0
  3  4  2  0  0  0
  4 18  1  0  0  0
 18 19  1  0  0  0
 19 20  2  0  0  0
 19 21  1  0  0  0
 21 24  1  0  0  0
 24 25  2  0  0  0
 25 26  1  0  0  0
 26 27  2  0  0  0
 27 28  1  0  0  0
 28 29  1  0  0  0
 28 30  2  0  0  0
  4  5  1  0  0  0
  5  6  2  0  0  0
 15 16  2  0  0  0
 16  8  1  0  0  0
 16 11  1  0  0  0
  6  1  1  0  0  0
 30 24  1  0  0  0
 10 17  1  0  0  0
 18 22  1  0  0  0
 21 23  1  0  0  0
M  END
> <minimizedAffinity>
-6.59529

> <CNNscore>
0.1683925688

> <CNNaffinity>
4.9093155861

> <CNN_VS>
0.8266922832

> <CNNaffinity_variance>
0.5974811316

$$$$
[H]c1nc2c([H])c(OC([H])([H])[H])c(OC([H])([H])[H])c([H])c2c(Oc2c([H])c([H])c(N([H])C(=O)N([H])c3c([H])c(C([H])([H])[H])c([H])c([H])c3F)c([H])c2[H])c1[H]


 35 38  0  0  0  0  0  0  0  0999 V2000
    3.9782    5.0585   14.8587 C   0  0  0  0  0  0  0  0  0  0  0  0
    3.7020    6.4025   15.1179 C   0  0  0  0  0  0  0  0  0  0  0  0
    3.1823    7.2396   14.1572 C   0  0  0  0  0  0  0  0  0  0  0  0
    2.8998    6.8264   12.8894 C   0  0  0  0  0  0  0  0  0  0  0  0
    3.1814    5.4663   12.6347 C   0  0  0  0  0  0  0  0  0  0  0  0
    3.6951    4.6342   13.5813 C   0  0  0  0  0  0  0  0  0  0  0  0
    2.3888    7.6139   11.8405 N   0  0  0  0  0  0  0  0  0  0  0  0
    2.9642    7.7368   10.5382 C   0  0  0  0  0  0  0  0  0  0  0  0
    4.0030    7.1123   10.2465 O   0  0  0  0  0  0  0  0  0  0  0  0
    2.3462    8.5752    9.5758 N   0  0  0  0  0  0  0  0  0  0  0  0
    1.4983    8.1757   12.0138 H   0  0  0  0  0  0  0  0  0  0  0  0
    1.4620    9.0604    9.9368 H   0  0  0  0  0  0  0  0  0  0  0  0
    2.7705    8.8123    8.2588 C   0  0  0  0  0  0  0  0  0  0  0  0
    3.9808    9.3616    7.8998 C   0  0  0  0  0  0  0  0  0  0  0  0
    4.3176    9.5608    6.5553 C   0  0  0  0  0  0  0  0  0  0  0  0
    5.6274   10.1536    6.2083 C   0  0  0  0  0  0  0  0  0  0  0  0
    3.4115    9.1957    5.5886 C   0  0  0  0  0  0  0  0  0  0  0  0
    2.1839    8.6384    5.9546 C   0  0  0  0  0  0  0  0  0  0  0  0
    1.8435    8.4390    7.2610 C   0  0  0  0  0  0  0  0  0  0  0  0
    0.6387    7.8931    7.5924 F   0  0  0  0  0  0  0  0  0  0  0  0
    4.5039    4.2551   15.8540 O   0  0  0  0  0  0  0  0  0  0  0  0
    4.0873    1.1805   19.8624 C   0  0  0  0  0  0  0  0  0  0  0  0
    3.3744    0.6172   18.8345 C   0  0  0  0  0  0  0  0  0  0  0  0
    3.2977    1.2356   17.5978 C   0  0  0  0  0  0  0  0  0  0  0  0
    2.6070    0.6470   16.6009 N   0  0  0  0  0  0  0  0  0  0  0  0
    2.5600    1.2489   15.4046 C   0  0  0  0  0  0  0  0  0  0  0  0
    3.1841    2.4435   15.1446 C   0  0  0  0  0  0  0  0  0  0  0  0
    3.9004    3.0625   16.1684 C   0  0  0  0  0  0  0  0  0  0  0  0
    3.9425    2.4349   17.3864 C   0  0  0  0  0  0  0  0  0  0  0  0
    4.6620    3.0010   18.4230 C   0  0  0  0  0  0  0  0  0  0  0  0
    4.7389    2.3876   19.6523 C   0  0  0  0  0  0  0  0  0  0  0  0
    3.5979   -0.6753   21.3038 C   0  0  0  0  0  0  0  0  0  0  0  0
    4.1870    0.5916   21.1155 O   0  0  0  0  0  0  0  0  0  0  0  0
    5.4709    2.9954   20.6575 O   0  0  0  0  0  0  0  0  0  0  0  0
    5.2282    4.3348   21.0004 C   0  0  0  0  0  0  0  0  0  0  0  0
 32 33  1  0  0  0
 33 22  1  0  0  0
 22 23  2  0  0  0
 23 24  1  0  0  0
 24 25  2  0  0  0
 25 26  1  0  0  0
 26 27  2  0  0  0
 27 28  1  0  0  0
 28 21  1  0  0  0
 21  1  1  0  0  0
  1  2  2  0  0  0
  2  3  1  0  0  0
  3  4  2  0  0  0
  4  7  1  0  0  0
  7  8  1  0  0  0
  8  9  2  0  0  0
  8 10  1  0  0  0
 10 13  1  0  0  0
 13 14  2  0  0  0
 14 15  1  0  0  0
 15 16  1  0  0  0
 15 17  2  0  0  0
 17 18  1  0  0  0
 18 19  2  0  0  0
 19 20  1  0  0  0
  4  5  1  0  0  0
  5  6  2  0  0  0
 28 29  2  0  0  0
 29 30  1  0  0  0
 30 31  2  0  0  0
 31 34  1  0  0  0
 34 35  1  0  0  0
 31 22  1  0  0  0
 29 24  1  0  0  0
  6  1  1  0  0  0
 19 13  1  0  0  0
  7 11  1  0  0  0
 10 12  1  0  0  0
M  END
> <minimizedAffinity>
-8.38515

> <CNNscore>
0.3973638713

> <CNNaffinity>
6.0460600853

> <CNN_VS>
2.4024858475

> <CNNaffinity_variance>
0.3464222848

$$$$
[H]c1nc2c([H])c(OC([H])([H])[H])c(OC([H])([H])[H])c([H])c2c(Oc2c([H])c([H])c(N([H])C(=O)N([H])c3c([H])c(C([H])([H])[H])c([H])c([H])c3F)c([H])c2[H])c1[H]


 35 38  0  0  0  0  0  0  0  0999 V2000
    2.7926    3.0960   13.6062 C   0  0  0  0  0  0  0  0  0  0  0  0
    2.0715    1.9856   14.0499 C   0  0  0  0  0  0  0  0  0  0  0  0
    2.3480    1.3661   15.2471 C   0  0  0  0  0  0  0  0  0  0  0  0
    3.3385    1.7836   16.0854 C   0  0  0  0  0  0  0  0  0  0  0  0
    4.0631    2.9070   15.6304 C   0  0  0  0  0  0  0  0  0  0  0  0
    3.7934    3.5234   14.4473 C   0  0  0  0  0  0  0  0  0  0  0  0
    3.7044    1.2012   17.3135 N   0  0  0  0  0  0  0  0  0  0  0  0
    4.0231    1.9162   18.5091 C   0  0  0  0  0  0  0  0  0  0  0  0
    3.9848    3.1621   18.5278 O   0  0  0  0  0  0  0  0  0  0  0  0
    4.3846    1.1995   19.6782 N   0  0  0  0  0  0  0  0  0  0  0  0
    3.7557    0.1373   17.3765 H   0  0  0  0  0  0  0  0  0  0  0  0
    4.3837    0.1367   19.5452 H   0  0  0  0  0  0  0  0  0  0  0  0
    4.7260    1.7346   20.9304 C   0  0  0  0  0  0  0  0  0  0  0  0
    3.9641    2.6292   21.6476 C   0  0  0  0  0  0  0  0  0  0  0  0
    4.3879    3.1093   22.8929 C   0  0  0  0  0  0  0  0  0  0  0  0
    3.5420    4.0698   23.6342 C   0  0  0  0  0  0  0  0  0  0  0  0
    5.5895    2.6689   23.3940 C   0  0  0  0  0  0  0  0  0  0  0  0
    6.3614    1.7611   22.6650 C   0  0  0  0  0  0  0  0  0  0  0  0
    5.9599    1.2856   21.4505 C   0  0  0  0  0  0  0  0  0  0  0  0
    6.7316    0.3997   20.7584 F   0  0  0  0  0  0  0  0  0  0  0  0
    2.4819    3.6842   12.3938 O   0  0  0  0  0  0  0  0  0  0  0  0
    6.3854    3.9805    9.1737 C   0  0  0  0  0  0  0  0  0  0  0  0
    5.5230    3.0293    8.6903 C   0  0  0  0  0  0  0  0  0  0  0  0
    4.3537    2.7192    9.3642 C   0  0  0  0  0  0  0  0  0  0  0  0
    3.5159    1.7950    8.8531 N   0  0  0  0  0  0  0  0  0  0  0  0
    2.3789    1.5217    9.5074 C   0  0  0  0  0  0  0  0  0  0  0  0
    2.0250    2.1407   10.6804 C   0  0  0  0  0  0  0  0  0  0  0  0
    2.8843    3.0974   11.2194 C   0  0  0  0  0  0  0  0  0  0  0  0
    4.0427    3.3692   10.5387 C   0  0  0  0  0  0  0  0  0  0  0  0
    4.9123    4.3289   11.0243 C   0  0  0  0  0  0  0  0  0  0  0  0
    6.0745    4.6378   10.3557 C   0  0  0  0  0  0  0  0  0  0  0  0
    8.2601    3.3040    7.8362 C   0  0  0  0  0  0  0  0  0  0  0  0
    7.5666    4.3184    8.5273 O   0  0  0  0  0  0  0  0  0  0  0  0
    6.9119    5.6052   10.8835 O   0  0  0  0  0  0  0  0  0  0  0  0
    6.6586    6.9661   10.6500 C   0  0  0  0  0  0  0  0  0  0  0  0
 32 33  1  0  0  0
 33 22  1  0  0  0
 22 23  2  0  0  0
 23 24  1  0  0  0
 24 25  2  0  0  0
 25 26  1  0  0  0
 26 27  2  0  0  0
 27 28  1  0  0  0
 28 21  1  0  0  0
 21  1  1  0  0  0
  1  2  2  0  0  0
  2  3  1  0  0  0
  3  4  2  0  0  0
  4  7  1  0  0  0
  7  8  1  0  0  0
  8  9  2  0  0  0
  8 10  1  0  0  0
 10 13  1  0  0  0
 13 14  2  0  0  0
 14 15  1  0  0  0
 15 16  1  0  0  0
 15 17  2  0  0  0
 17 18  1  0  0  0
 18 19  2  0  0  0
 19 20  1  0  0  0
  4  5  1  0  0  0
  5  6  2  0  0  0
 28 29  2  0  0  0
 29 30  1  0  0  0
 30 31  2  0  0  0
 31 34  1  0  0  0
 34 35  1  0  0  0
 31 22  1  0  0  0
 29 24  1  0  0  0
  6  1  1  0  0  0
 19 13  1  0  0  0
  7 11  1  0  0  0
 10 12  1  0  0  0
M  END
> <minimizedAffinity>
-8.23208

> <CNNscore>
0.3156945407

> <CNNaffinity>
6.3438973427

> <CNN_VS>
2.0027337074

> <CNNaffinity_variance>
0.1382977962

$$$$
[H]c1nc2c([H])c(OC([H])([H])[H])c(OC([H])([H])[H])c([H])c2c(Oc2c([H])c([H])c(N([H])C(=O)N([H])c3c([H])c(C([H])([H])[H])c([H])c([H])c3F)c([H])c2[H])c1[H]


 35 38  0  0  0  0  0  0  0  0999 V2000
    3.7063    3.1353   15.8905 C   0  0  0  0  0  0  0  0  0  0  0  0
    3.6475    2.9440   14.5086 C   0  0  0  0  0  0  0  0  0  0  0  0
    2.8440    3.7132   13.6984 C   0  0  0  0  0  0  0  0  0  0  0  0
    2.0496    4.7121   14.1770 C   0  0  0  0  0  0  0  0  0  0  0  0
    2.1145    4.9000   15.5751 C   0  0  0  0  0  0  0  0  0  0  0  0
    2.9077    4.1422   16.3807 C   0  0  0  0  0  0  0  0  0  0  0  0
    1.1838    5.5319   13.4290 N   0  0  0  0  0  0  0  0  0  0  0  0
   -0.0854    5.1378   12.9038 C   0  0  0  0  0  0  0  0  0  0  0  0
   -0.5174    3.9846   13.0981 O   0  0  0  0  0  0  0  0  0  0  0  0
   -0.8539    6.0674   12.1580 N   0  0  0  0  0  0  0  0  0  0  0  0
    1.4838    6.5354   13.2247 H   0  0  0  0  0  0  0  0  0  0  0  0
   -0.3845    7.0247   12.0551 H   0  0  0  0  0  0  0  0  0  0  0  0
   -2.1119    5.8531   11.5728 C   0  0  0  0  0  0  0  0  0  0  0  0
   -2.3278    5.2937   10.3336 C   0  0  0  0  0  0  0  0  0  0  0  0
   -3.6233    5.1189    9.8314 C   0  0  0  0  0  0  0  0  0  0  0  0
   -3.8157    4.5141    8.4955 C   0  0  0  0  0  0  0  0  0  0  0  0
   -4.6879    5.5189   10.6031 C   0  0  0  0  0  0  0  0  0  0  0  0
   -4.4670    6.0863   11.8604 C   0  0  0  0  0  0  0  0  0  0  0  0
   -3.2099    6.2621   12.3613 C   0  0  0  0  0  0  0  0  0  0  0  0
   -3.0208    6.8185   13.5917 F   0  0  0  0  0  0  0  0  0  0  0  0
    4.5256    2.3356   16.6661 O   0  0  0  0  0  0  0  0  0  0  0  0
    4.5505    2.5971   21.7283 C   0  0  0  0  0  0  0  0  0  0  0  0
    3.7916    1.5102   21.3750 C   0  0  0  0  0  0  0  0  0  0  0  0
    3.5951    1.1805   20.0444 C   0  0  0  0  0  0  0  0  0  0  0  0
    2.8618    0.0941   19.7291 N   0  0  0  0  0  0  0  0  0  0  0  0
    2.6986   -0.2223   18.4373 C   0  0  0  0  0  0  0  0  0  0  0  0
    3.2446    0.5117   17.4138 C   0  0  0  0  0  0  0  0  0  0  0  0
    4.0040    1.6381   17.7277 C   0  0  0  0  0  0  0  0  0  0  0  0
    4.1651    1.9492   19.0530 C   0  0  0  0  0  0  0  0  0  0  0  0
    4.9311    3.0438   19.4105 C   0  0  0  0  0  0  0  0  0  0  0  0
    5.1271    3.3725   20.7322 C   0  0  0  0  0  0  0  0  0  0  0  0
    3.8224    3.7949   23.6767 C   0  0  0  0  0  0  0  0  0  0  0  0
    4.7698    2.9596   23.0502 O   0  0  0  0  0  0  0  0  0  0  0  0
    5.9012    4.4783   21.0379 O   0  0  0  0  0  0  0  0  0  0  0  0
    5.5430    5.7486   20.5596 C   0  0  0  0  0  0  0  0  0  0  0  0
 32 33  1  0  0  0
 33 22  1  0  0  0
 22 23  2  0  0  0
 23 24  1  0  0  0
 24 25  2  0  0  0
 25 26  1  0  0  0
 26 27  2  0  0  0
 27 28  1  0  0  0
 28 21  1  0  0  0
 21  1  1  0  0  0
  1  2  2  0  0  0
  2  3  1  0  0  0
  3  4  2  0  0  0
  4  7  1  0  0  0
  7  8  1  0  0  0
  8  9  2  0  0  0
  8 10  1  0  0  0
 10 13  1  0  0  0
 13 14  2  0  0  0
 14 15  1  0  0  0
 15 16  1  0  0  0
 15 17  2  0  0  0
 17 18  1  0  0  0
 18 19  2  0  0  0
 19 20  1  0  0  0
  4  5  1  0  0  0
  5  6  2  0  0  0
 28 29  2  0  0  0
 29 30  1  0  0  0
 30 31  2  0  0  0
 31 34  1  0  0  0
 34 35  1  0  0  0
 31 22  1  0  0  0
 29 24  1  0  0  0
  6  1  1  0  0  0
 19 13  1  0  0  0
  7 11  1  0  0  0
 10 12  1  0  0  0
M  END
> <minimizedAffinity>
-8.75741

> <CNNscore>
0.3104400635

> <CNNaffinity>
6.2962875366

> <CNN_VS>
1.9546198845

> <CNNaffinity_variance>
0.2004609108

$$$$
[H]c1nc2c([H])c(OC([H])([H])[H])c(OC([H])([H])[H])c([H])c2c(Oc2c([H])c([H])c(N([H])C(=O)N([H])c3c([H])c(C([H])([H])[H])c([H])c([H])c3F)c([H])c2[H])c1[H]


 35 38  0  0  0  0  0  0  0  0999 V2000
    2.6887    4.3507   14.8881 C   0  0  0  0  0  0  0  0  0  0  0  0
    1.5749    4.5618   14.0728 C   0  0  0  0  0  0  0  0  0  0  0  0
    1.6910    4.7731   12.7180 C   0  0  0  0  0  0  0  0  0  0  0  0
    2.8911    4.7933   12.0720 C   0  0  0  0  0  0  0  0  0  0  0  0
    4.0128    4.5788   12.9026 C   0  0  0  0  0  0  0  0  0  0  0  0
    3.9033    4.3692   14.2429 C   0  0  0  0  0  0  0  0  0  0  0  0
    3.1058    5.0218   10.6998 N   0  0  0  0  0  0  0  0  0  0  0  0
    3.2330    6.3039   10.0816 C   0  0  0  0  0  0  0  0  0  0  0  0
    3.1626    7.3435   10.7660 O   0  0  0  0  0  0  0  0  0  0  0  0
    3.4401    6.3887    8.6813 N   0  0  0  0  0  0  0  0  0  0  0  0
    3.1809    4.1791   10.0496 H   0  0  0  0  0  0  0  0  0  0  0  0
    3.4835    5.4341    8.1973 H   0  0  0  0  0  0  0  0  0  0  0  0
    3.5857    7.5550    7.9136 C   0  0  0  0  0  0  0  0  0  0  0  0
    2.5518    8.2845    7.3712 C   0  0  0  0  0  0  0  0  0  0  0  0
    2.7951    9.4390    6.6170 C   0  0  0  0  0  0  0  0  0  0  0  0
    1.6584   10.1968    6.0503 C   0  0  0  0  0  0  0  0  0  0  0  0
    4.0962    9.8373    6.4242 C   0  0  0  0  0  0  0  0  0  0  0  0
    5.1442    9.0959    6.9753 C   0  0  0  0  0  0  0  0  0  0  0  0
    4.9207    7.9693    7.7121 C   0  0  0  0  0  0  0  0  0  0  0  0
    5.9610    7.2629    8.2395 F   0  0  0  0  0  0  0  0  0  0  0  0
    2.5243    4.1464   16.2459 O   0  0  0  0  0  0  0  0  0  0  0  0
    5.1926    2.5937   20.2663 C   0  0  0  0  0  0  0  0  0  0  0  0
    4.7586    1.4747   19.6020 C   0  0  0  0  0  0  0  0  0  0  0  0
    3.9928    1.5802   18.4530 C   0  0  0  0  0  0  0  0  0  0  0  0
    3.5990    0.4625   17.8104 N   0  0  0  0  0  0  0  0  0  0  0  0
    2.8759    0.5829   16.6888 C   0  0  0  0  0  0  0  0  0  0  0  0
    2.5139    1.7970   16.1604 C   0  0  0  0  0  0  0  0  0  0  0  0
    2.9143    2.9601   16.8170 C   0  0  0  0  0  0  0  0  0  0  0  0
    3.6556    2.8227   17.9618 C   0  0  0  0  0  0  0  0  0  0  0  0
    4.0950    3.9501   18.6317 C   0  0  0  0  0  0  0  0  0  0  0  0
    4.8558    3.8466   19.7735 C   0  0  0  0  0  0  0  0  0  0  0  0
    5.3063    2.2661   22.6414 C   0  0  0  0  0  0  0  0  0  0  0  0
    5.9609    2.5287   21.4206 O   0  0  0  0  0  0  0  0  0  0  0  0
    5.2699    5.0050   20.4076 O   0  0  0  0  0  0  0  0  0  0  0  0
    4.3814    5.7229   21.2236 C   0  0  0  0  0  0  0  0  0  0  0  0
 32 33  1  0  0  0
 33 22  1  0  0  0
 22 23  2  0  0  0
 23 24  1  0  0  0
 24 25  2  0  0  0
 25 26  1  0  0  0
 26 27  2  0  0  0
 27 28  1  0  0  0
 28 21  1  0  0  0
 21  1  1  0  0  0
  1  2  2  0  0  0
  2  3  1  0  0  0
  3  4  2  0  0  0
  4  7  1  0  0  0
  7  8  1  0  0  0
  8  9  2  0  0  0
  8 10  1  0  0  0
 10 13  1  0  0  0
 13 14  2  0  0  0
 14 15  1  0  0  0
 15 16  1  0  0  0
 15 17  2  0  0  0
 17 18  1  0  0  0
 18 19  2  0  0  0
 19 20  1  0  0  0
  4  5  1  0  0  0
  5  6  2  0  0  0
 28 29  2  0  0  0
 29 30  1  0  0  0
 30 31  2  0  0  0
 31 34  1  0  0  0
 34 35  1  0  0  0
 31 22  1  0  0  0
 29 24  1  0  0  0
  6  1  1  0  0  0
 19 13  1  0  0  0
  7 11  1  0  0  0
 10 12  1  0  0  0
M  END
> <minimizedAffinity>
-7.42952

> <CNNscore>
0.3053098917

> <CNNaffinity>
6.1289515495

> <CNN_VS>
1.8712295294

> <CNNaffinity_variance>
0.5119895935

$$$$
[H]c1nc2c([H])c(OC([H])([H])[H])c(OC([H])([H])[H])c([H])c2c(Oc2c([H])c([H])c(N([H])C(=O)N([H])c3c([H])c(C([H])([H])[H])c([H])c([H])c3F)c([H])c2[H])c1[H]


 35 38  0  0  0  0  0  0  0  0999 V2000
    3.6190    3.9262   15.3108 C   0  0  0  0  0  0  0  0  0  0  0  0
    2.6546    4.8029   15.8119 C   0  0  0  0  0  0  0  0  0  0  0  0
    1.7443    5.4323   14.9939 C   0  0  0  0  0  0  0  0  0  0  0  0
    1.7136    5.2512   13.6433 C   0  0  0  0  0  0  0  0  0  0  0  0
    2.6913    4.3632   13.1438 C   0  0  0  0  0  0  0  0  0  0  0  0
    3.5936    3.7381   13.9485 C   0  0  0  0  0  0  0  0  0  0  0  0
    0.8363    5.8661   12.7303 N   0  0  0  0  0  0  0  0  0  0  0  0
   -0.4130    5.3301   12.2897 C   0  0  0  0  0  0  0  0  0  0  0  0
   -0.8149    4.2317   12.7210 O   0  0  0  0  0  0  0  0  0  0  0  0
   -1.1962    6.0557   11.3563 N   0  0  0  0  0  0  0  0  0  0  0  0
    1.1107    6.8121   12.3198 H   0  0  0  0  0  0  0  0  0  0  0  0
   -0.7527    6.9835   11.0563 H   0  0  0  0  0  0  0  0  0  0  0  0
   -2.4384    5.6831   10.8190 C   0  0  0  0  0  0  0  0  0  0  0  0
   -2.6302    5.1087    9.5826 C   0  0  0  0  0  0  0  0  0  0  0  0
   -3.9113    4.7697    9.1302 C   0  0  0  0  0  0  0  0  0  0  0  0
   -4.0779    4.1540    7.7958 C   0  0  0  0  0  0  0  0  0  0  0  0
   -4.9865    5.0220    9.9482 C   0  0  0  0  0  0  0  0  0  0  0  0
   -4.7901    5.6049   11.2025 C   0  0  0  0  0  0  0  0  0  0  0  0
   -3.5472    5.9399   11.6552 C   0  0  0  0  0  0  0  0  0  0  0  0
   -3.3819    6.5079   12.8838 F   0  0  0  0  0  0  0  0  0  0  0  0
    4.5163    3.3191   16.1703 O   0  0  0  0  0  0  0  0  0  0  0  0
    4.7343    2.2978   21.1305 C   0  0  0  0  0  0  0  0  0  0  0  0
    4.0409    1.2780   20.5293 C   0  0  0  0  0  0  0  0  0  0  0  0
    3.8130    1.2796   19.1634 C   0  0  0  0  0  0  0  0  0  0  0  0
    3.1467    0.2528   18.5985 N   0  0  0  0  0  0  0  0  0  0  0  0
    2.9527    0.2601   17.2727 C   0  0  0  0  0  0  0  0  0  0  0  0
    3.4015    1.2694   16.4577 C   0  0  0  0  0  0  0  0  0  0  0  0
    4.0908    2.3374   17.0308 C   0  0  0  0  0  0  0  0  0  0  0  0
    4.2846    2.3163   18.3877 C   0  0  0  0  0  0  0  0  0  0  0  0
    4.9846    3.3431   18.9947 C   0  0  0  0  0  0  0  0  0  0  0  0
    5.2117    3.3427   20.3519 C   0  0  0  0  0  0  0  0  0  0  0  0
    4.0505    1.7164   23.3566 C   0  0  0  0  0  0  0  0  0  0  0  0
    4.9822    2.3319   22.4959 O   0  0  0  0  0  0  0  0  0  0  0  0
    5.9169    4.3940   20.9114 O   0  0  0  0  0  0  0  0  0  0  0  0
    5.4483    5.7108   20.7813 C   0  0  0  0  0  0  0  0  0  0  0  0
 32 33  1  0  0  0
 33 22  1  0  0  0
 22 23  2  0  0  0
 23 24  1  0  0  0
 24 25  2  0  0  0
 25 26  1  0  0  0
 26 27  2  0  0  0
 27 28  1  0  0  0
 28 21  1  0  0  0
 21  1  1  0  0  0
  1  2  2  0  0  0
  2  3  1  0  0  0
  3  4  2  0  0  0
  4  7  1  0  0  0
  7  8  1  0  0  0
  8  9  2  0  0  0
  8 10  1  0  0  0
 10 13  1  0  0  0
 13 14  2  0  0  0
 14 15  1  0  0  0
 15 16  1  0  0  0
 15 17  2  0  0  0
 17 18  1  0  0  0
 18 19  2  0  0  0
 19 20  1  0  0  0
  4  5  1  0  0  0
  5  6  2  0  0  0
 28 29  2  0  0  0
 29 30  1  0  0  0
 30 31  2  0  0  0
 31 34  1  0  0  0
 34 35  1  0  0  0
 31 22  1  0  0  0
 29 24  1  0  0  0
  6  1  1  0  0  0
 19 13  1  0  0  0
  7 11  1  0  0  0
 10 12  1  0  0  0
M  END
> <minimizedAffinity>
-8.32765

> <CNNscore>
0.2780513465

> <CNNaffinity>
6.1110563278

> <CNN_VS>
1.6991873980

> <CNNaffinity_variance>
0.2140771598

$$$$
[H]c1nc2c([H])c(OC([H])([H])[H])c(OC([H])([H])[H])c([H])c2c(Oc2c([H])c([H])c(N([H])C(=O)N([H])c3c([H])c(C([H])([H])[H])c([H])c([H])c3F)c([H])c2[H])c1[H]


 35 38  0  0  0  0  0  0  0  0999 V2000
    3.8340    2.8678   16.4749 C   0  0  0  0  0  0  0  0  0  0  0  0
    3.6635    2.5957   15.1160 C   0  0  0  0  0  0  0  0  0  0  0  0
    2.9494    3.4312   14.2879 C   0  0  0  0  0  0  0  0  0  0  0  0
    2.3576    4.5785   14.7254 C   0  0  0  0  0  0  0  0  0  0  0  0
    2.5344    4.8473   16.1004 C   0  0  0  0  0  0  0  0  0  0  0  0
    3.2400    4.0244   16.9235 C   0  0  0  0  0  0  0  0  0  0  0  0
    1.5941    5.4784   13.9583 N   0  0  0  0  0  0  0  0  0  0  0  0
    0.5013    5.1249   13.1079 C   0  0  0  0  0  0  0  0  0  0  0  0
    0.1448    3.9351   13.0013 O   0  0  0  0  0  0  0  0  0  0  0  0
   -0.1778    6.1370   12.3831 N   0  0  0  0  0  0  0  0  0  0  0  0
    1.8376    6.5164   14.0005 H   0  0  0  0  0  0  0  0  0  0  0  0
    0.2142    7.1195   12.5519 H   0  0  0  0  0  0  0  0  0  0  0  0
   -1.2634    5.9718   11.5085 C   0  0  0  0  0  0  0  0  0  0  0  0
   -2.5625    5.7242   11.8910 C   0  0  0  0  0  0  0  0  0  0  0  0
   -3.5825    5.5736   10.9434 C   0  0  0  0  0  0  0  0  0  0  0  0
   -4.9664    5.3084   11.3927 C   0  0  0  0  0  0  0  0  0  0  0  0
   -3.2634    5.6778    9.6107 C   0  0  0  0  0  0  0  0  0  0  0  0
   -1.9447    5.9290    9.2242 C   0  0  0  0  0  0  0  0  0  0  0  0
   -0.9417    6.0779   10.1375 C   0  0  0  0  0  0  0  0  0  0  0  0
    0.3378    6.3227    9.7346 F   0  0  0  0  0  0  0  0  0  0  0  0
    4.5566    1.9973   17.2702 O   0  0  0  0  0  0  0  0  0  0  0  0
    4.4985    2.3368   22.3274 C   0  0  0  0  0  0  0  0  0  0  0  0
    3.6516    1.3175   21.9725 C   0  0  0  0  0  0  0  0  0  0  0  0
    3.4540    0.9856   20.6427 C   0  0  0  0  0  0  0  0  0  0  0  0
    2.6319   -0.0348   20.3263 N   0  0  0  0  0  0  0  0  0  0  0  0
    2.4679   -0.3560   19.0358 C   0  0  0  0  0  0  0  0  0  0  0  0
    3.0998    0.3090   18.0146 C   0  0  0  0  0  0  0  0  0  0  0  0
    3.9516    1.3671   18.3295 C   0  0  0  0  0  0  0  0  0  0  0  0
    4.1123    1.6835   19.6536 C   0  0  0  0  0  0  0  0  0  0  0  0
    4.9669    2.7099   20.0127 C   0  0  0  0  0  0  0  0  0  0  0  0
    5.1640    3.0408   21.3336 C   0  0  0  0  0  0  0  0  0  0  0  0
    5.6473    1.9443   24.3980 C   0  0  0  0  0  0  0  0  0  0  0  0
    4.7219    2.6992   23.6486 O   0  0  0  0  0  0  0  0  0  0  0  0
    6.0288    4.0767   21.6410 O   0  0  0  0  0  0  0  0  0  0  0  0
    5.9411    5.2998   20.9576 C   0  0  0  0  0  0  0  0  0  0  0  0
 32 33  1  0  0  0
 33 22  1  0  0  0
 22 23  2  0  0  0
 23 24  1  0  0  0
 24 25  2  0  0  0
 25 26  1  0  0  0
 26 27  2  0  0  0
 27 28  1  0  0  0
 28 21  1  0  0  0
 21  1  1  0  0  0
  1  2  2  0  0  0
  2  3  1  0  0  0
  3  4  2  0  0  0
  4  7  1  0  0  0
  7  8  1  0  0  0
  8  9  2  0  0  0
  8 10  1  0  0  0
 10 13  1  0  0  0
 13 14  2  0  0  0
 14 15  1  0  0  0
 15 16  1  0  0  0
 15 17  2  0  0  0
 17 18  1  0  0  0
 18 19  2  0  0  0
 19 20  1  0  0  0
  4  5  1  0  0  0
  5  6  2  0  0  0
 28 29  2  0  0  0
 29 30  1  0  0  0
 30 31  2  0  0  0
 31 34  1  0  0  0
 34 35  1  0  0  0
 31 22  1  0  0  0
 29 24  1  0  0  0
  6  1  1  0  0  0
 19 13  1  0  0  0
  7 11  1  0  0  0
 10 12  1  0  0  0
M  END
> <minimizedAffinity>
-8.98757

> <CNNscore>
0.2590830624

> <CNNaffinity>
6.2041254044

> <CNN_VS>
1.6073838472

> <CNNaffinity_variance>
0.1717147827

$$$$
[H]c1nc2c([H])c(OC([H])([H])[H])c(OC([H])([H])[H])c([H])c2c(Oc2c([H])c([H])c(N([H])C(=O)N([H])c3c([H])c(C([H])([H])[H])c([H])c([H])c3F)c([H])c2[H])c1[H]


 35 38  0  0  0  0  0  0  0  0999 V2000
    4.2029    2.8602   16.1386 C   0  0  0  0  0  0  0  0  0  0  0  0
    3.9555    3.8582   15.1939 C   0  0  0  0  0  0  0  0  0  0  0  0
    2.9817    3.7266   14.2304 C   0  0  0  0  0  0  0  0  0  0  0  0
    2.1905    2.6218   14.1236 C   0  0  0  0  0  0  0  0  0  0  0  0
    2.4461    1.6170   15.0823 C   0  0  0  0  0  0  0  0  0  0  0  0
    3.4077    1.7424   16.0373 C   0  0  0  0  0  0  0  0  0  0  0  0
    1.1886    2.3925   13.1618 N   0  0  0  0  0  0  0  0  0  0  0  0
    1.4137    2.0111   11.8031 C   0  0  0  0  0  0  0  0  0  0  0  0
    2.5743    1.8465   11.3787 O   0  0  0  0  0  0  0  0  0  0  0  0
    0.3073    1.8202   10.9369 N   0  0  0  0  0  0  0  0  0  0  0  0
    0.1686    2.5104   13.4521 H   0  0  0  0  0  0  0  0  0  0  0  0
   -0.6392    1.9891   11.4092 H   0  0  0  0  0  0  0  0  0  0  0  0
    0.3429    1.4483    9.5837 C   0  0  0  0  0  0  0  0  0  0  0  0
    0.5364    2.3091    8.5269 C   0  0  0  0  0  0  0  0  0  0  0  0
    0.5566    1.8446    7.2060 C   0  0  0  0  0  0  0  0  0  0  0  0
    0.7674    2.7998    6.0967 C   0  0  0  0  0  0  0  0  0  0  0  0
    0.3782    0.5011    6.9780 C   0  0  0  0  0  0  0  0  0  0  0  0
    0.1819   -0.3711    8.0514 C   0  0  0  0  0  0  0  0  0  0  0  0
    0.1601    0.0687    9.3430 C   0  0  0  0  0  0  0  0  0  0  0  0
   -0.0332   -0.8030   10.3736 F   0  0  0  0  0  0  0  0  0  0  0  0
    5.1948    3.0343   17.0864 O   0  0  0  0  0  0  0  0  0  0  0  0
    4.3148    2.5418   22.0540 C   0  0  0  0  0  0  0  0  0  0  0  0
    4.3362    3.8838   21.7698 C   0  0  0  0  0  0  0  0  0  0  0  0
    4.5617    4.3356   20.4803 C   0  0  0  0  0  0  0  0  0  0  0  0
    4.5558    5.6599   20.2283 N   0  0  0  0  0  0  0  0  0  0  0  0
    4.7553    6.0792   18.9714 C   0  0  0  0  0  0  0  0  0  0  0  0
    4.9676    5.2198   17.9223 C   0  0  0  0  0  0  0  0  0  0  0  0
    4.9772    3.8478   18.1709 C   0  0  0  0  0  0  0  0  0  0  0  0
    4.7694    3.4324   19.4606 C   0  0  0  0  0  0  0  0  0  0  0  0
    4.7462    2.0797   19.7482 C   0  0  0  0  0  0  0  0  0  0  0  0
    4.5224    1.6296   21.0290 C   0  0  0  0  0  0  0  0  0  0  0  0
    5.1526    2.1082   24.2611 C   0  0  0  0  0  0  0  0  0  0  0  0
    4.0927    2.0506   23.3332 O   0  0  0  0  0  0  0  0  0  0  0  0
    4.5098    0.2659   21.2652 O   0  0  0  0  0  0  0  0  0  0  0  0
    3.3619   -0.4917   20.9839 C   0  0  0  0  0  0  0  0  0  0  0  0
 32 33  1  0  0  0
 33 22  1  0  0  0
 22 23  2  0  0  0
 23 24  1  0  0  0
 24 25  2  0  0  0
 25 26  1  0  0  0
 26 27  2  0  0  0
 27 28  1  0  0  0
 28 21  1  0  0  0
 21  1  1  0  0  0
  1  2  2  0  0  0
  2  3  1  0  0  0
  3  4  2  0  0  0
  4  7  1  0  0  0
  7  8  1  0  0  0
  8  9  2  0  0  0
  8 10  1  0  0  0
 10 13  1  0  0  0
 13 14  2  0  0  0
 14 15  1  0  0  0
 15 16  1  0  0  0
 15 17  2  0  0  0
 17 18  1  0  0  0
 18 19  2  0  0  0
 19 20  1  0  0  0
  4  5  1  0  0  0
  5  6  2  0  0  0
 28 29  2  0  0  0
 29 30  1  0  0  0
 30 31  2  0  0  0
 31 34  1  0  0  0
 34 35  1  0  0  0
 31 22  1  0  0  0
 29 24  1  0  0  0
  6  1  1  0  0  0
 19 13  1  0  0  0
  7 11  1  0  0  0
 10 12  1  0  0  0
M  END
> <minimizedAffinity>
-7.81184

> <CNNscore>
0.2424692810

> <CNNaffinity>
6.1119508743

> <CNN_VS>
1.4819602966

> <CNNaffinity_variance>
0.1345631778

$$$$
[H]c1nc2c([H])c(OC([H])([H])[H])c(OC([H])([H])[H])c([H])c2c(Oc2c([H])c([H])c(N([H])C(=O)N([H])c3c([H])c(C([H])([H])[H])c([H])c([H])c3F)c([H])c2[H])c1[H]


 35 38  0  0  0  0  0  0  0  0999 V2000
    3.8031    2.7980   16.4136 C   0  0  0  0  0  0  0  0  0  0  0  0
    3.4029    2.2862   15.1776 C   0  0  0  0  0  0  0  0  0  0  0  0
    2.6389    3.0175   14.2971 C   0  0  0  0  0  0  0  0  0  0  0  0
    2.2165    4.2864   14.5604 C   0  0  0  0  0  0  0  0  0  0  0  0
    2.6252    4.7975   15.8118 C   0  0  0  0  0  0  0  0  0  0  0  0
    3.3809    4.0784   16.6860 C   0  0  0  0  0  0  0  0  0  0  0  0
    1.4185    5.0979   13.7321 N   0  0  0  0  0  0  0  0  0  0  0  0
    1.7408    5.4919   12.3968 C   0  0  0  0  0  0  0  0  0  0  0  0
    2.8019    5.1100   11.8655 O   0  0  0  0  0  0  0  0  0  0  0  0
    0.8450    6.3223   11.6763 N   0  0  0  0  0  0  0  0  0  0  0  0
    0.4918    5.4611   14.1166 H   0  0  0  0  0  0  0  0  0  0  0  0
   -0.0319    6.5877   12.2313 H   0  0  0  0  0  0  0  0  0  0  0  0
    0.9997    6.8022   10.3661 C   0  0  0  0  0  0  0  0  0  0  0  0
    2.0577    7.5594    9.9160 C   0  0  0  0  0  0  0  0  0  0  0  0
    2.1262    7.9940    8.5866 C   0  0  0  0  0  0  0  0  0  0  0  0
    3.2789    8.8059    8.1398 C   0  0  0  0  0  0  0  0  0  0  0  0
    1.1097    7.6494    7.7283 C   0  0  0  0  0  0  0  0  0  0  0  0
    0.0368    6.8810    8.1866 C   0  0  0  0  0  0  0  0  0  0  0  0
   -0.0419    6.4512    9.4793 C   0  0  0  0  0  0  0  0  0  0  0  0
   -1.0999    5.7021    9.9022 F   0  0  0  0  0  0  0  0  0  0  0  0
    4.5675    2.0252   17.2685 O   0  0  0  0  0  0  0  0  0  0  0  0
    4.5706    2.3953   22.3239 C   0  0  0  0  0  0  0  0  0  0  0  0
    3.7286    1.3662   21.9860 C   0  0  0  0  0  0  0  0  0  0  0  0
    3.5171    1.0244   20.6609 C   0  0  0  0  0  0  0  0  0  0  0  0
    2.7004   -0.0054   20.3611 N   0  0  0  0  0  0  0  0  0  0  0  0
    2.5229   -0.3359   19.0748 C   0  0  0  0  0  0  0  0  0  0  0  0
    3.1357    0.3285   18.0416 C   0  0  0  0  0  0  0  0  0  0  0  0
    3.9817    1.3961   18.3392 C   0  0  0  0  0  0  0  0  0  0  0  0
    4.1564    1.7221   19.6592 C   0  0  0  0  0  0  0  0  0  0  0  0
    5.0061    2.7584   20.0012 C   0  0  0  0  0  0  0  0  0  0  0  0
    5.2170    3.0991   21.3175 C   0  0  0  0  0  0  0  0  0  0  0  0
    5.6596    1.9572   24.4175 C   0  0  0  0  0  0  0  0  0  0  0  0
    4.8075    2.7678   23.6400 O   0  0  0  0  0  0  0  0  0  0  0  0
    6.0761    4.1447   21.6075 O   0  0  0  0  0  0  0  0  0  0  0  0
    5.6488    5.4741   21.4636 C   0  0  0  0  0  0  0  0  0  0  0  0
 32 33  1  0  0  0
 33 22  1  0  0  0
 22 23  2  0  0  0
 23 24  1  0  0  0
 24 25  2  0  0  0
 25 26  1  0  0  0
 26 27  2  0  0  0
 27 28  1  0  0  0
 28 21  1  0  0  0
 21  1  1  0  0  0
  1  2  2  0  0  0
  2  3  1  0  0  0
  3  4  2  0  0  0
  4  7  1  0  0  0
  7  8  1  0  0  0
  8  9  2  0  0  0
  8 10  1  0  0  0
 10 13  1  0  0  0
 13 14  2  0  0  0
 14 15  1  0  0  0
 15 16  1  0  0  0
 15 17  2  0  0  0
 17 18  1  0  0  0
 18 19  2  0  0  0
 19 20  1  0  0  0
  4  5  1  0  0  0
  5  6  2  0  0  0
 28 29  2  0  0  0
 29 30  1  0  0  0
 30 31  2  0  0  0
 31 34  1  0  0  0
 34 35  1  0  0  0
 31 22  1  0  0  0
 29 24  1  0  0  0
  6  1  1  0  0  0
 19 13  1  0  0  0
  7 11  1  0  0  0
 10 12  1  0  0  0
M  END
> <minimizedAffinity>
-8.24293

> <CNNscore>
0.2294028550

> <CNNaffinity>
6.1528415680

> <CNN_VS>
1.4114794731

> <CNNaffinity_variance>
0.1712572426

$$$$
[H]c1nc2c([H])c(OC([H])([H])[H])c(OC([H])([H])[H])c([H])c2c(Oc2c([H])c([H])c(N([H])C(=O)N([H])c3c([H])c(C([H])([H])[H])c([H])c([H])c3F)c([H])c2[H])c1[H]


 35 38  0  0  0  0  0  0  0  0999 V2000
    2.4893    3.3701   12.9860 C   0  0  0  0  0  0  0  0  0  0  0  0
    3.5635    3.8034   13.7658 C   0  0  0  0  0  0  0  0  0  0  0  0
    3.9298    3.1607   14.9262 C   0  0  0  0  0  0  0  0  0  0  0  0
    3.2783    2.0615   15.4009 C   0  0  0  0  0  0  0  0  0  0  0  0
    2.1935    1.6289   14.6072 C   0  0  0  0  0  0  0  0  0  0  0  0
    1.8274    2.2608   13.4587 C   0  0  0  0  0  0  0  0  0  0  0  0
    3.5684    1.3553   16.5835 N   0  0  0  0  0  0  0  0  0  0  0  0
    3.7750    1.9408   17.8707 C   0  0  0  0  0  0  0  0  0  0  0  0
    3.6980    3.1759   18.0211 O   0  0  0  0  0  0  0  0  0  0  0  0
    4.0691    1.1076   18.9799 N   0  0  0  0  0  0  0  0  0  0  0  0
    3.6467    0.2923   16.5347 H   0  0  0  0  0  0  0  0  0  0  0  0
    4.1101    0.0661   18.7329 H   0  0  0  0  0  0  0  0  0  0  0  0
    4.2994    1.5085   20.3054 C   0  0  0  0  0  0  0  0  0  0  0  0
    5.3234    2.3292   20.7217 C   0  0  0  0  0  0  0  0  0  0  0  0
    5.4737    2.6760   22.0700 C   0  0  0  0  0  0  0  0  0  0  0  0
    6.5863    3.5603   22.4794 C   0  0  0  0  0  0  0  0  0  0  0  0
    4.5735    2.1790   22.9818 C   0  0  0  0  0  0  0  0  0  0  0  0
    3.5350    1.3463   22.5578 C   0  0  0  0  0  0  0  0  0  0  0  0
    3.3774    1.0009   21.2470 C   0  0  0  0  0  0  0  0  0  0  0  0
    2.3552    0.1864   20.8583 F   0  0  0  0  0  0  0  0  0  0  0  0
    2.1548    4.0497   11.8290 O   0  0  0  0  0  0  0  0  0  0  0  0
    5.2025    1.8458    8.4307 C   0  0  0  0  0  0  0  0  0  0  0  0
    5.4689    3.1915    8.4124 C   0  0  0  0  0  0  0  0  0  0  0  0
    4.7831    4.0649    9.2396 C   0  0  0  0  0  0  0  0  0  0  0  0
    5.0820    5.3792    9.2141 N   0  0  0  0  0  0  0  0  0  0  0  0
    4.4231    6.2077   10.0357 C   0  0  0  0  0  0  0  0  0  0  0  0
    3.4520    5.7796   10.9064 C   0  0  0  0  0  0  0  0  0  0  0  0
    3.1333    4.4227   10.9409 C   0  0  0  0  0  0  0  0  0  0  0  0
    3.8166    3.5859   10.0970 C   0  0  0  0  0  0  0  0  0  0  0  0
    3.5499    2.2289   10.1156 C   0  0  0  0  0  0  0  0  0  0  0  0
    4.2306    1.3600    9.2940 C   0  0  0  0  0  0  0  0  0  0  0  0
    5.4945    0.8660    6.2591 C   0  0  0  0  0  0  0  0  0  0  0  0
    5.8679    0.9394    7.6167 O   0  0  0  0  0  0  0  0  0  0  0  0
    3.9261    0.0110    9.3497 O   0  0  0  0  0  0  0  0  0  0  0  0
    2.6004   -0.4235    9.1936 C   0  0  0  0  0  0  0  0  0  0  0  0
 32 33  1  0  0  0
 33 22  1  0  0  0
 22 23  2  0  0  0
 23 24  1  0  0  0
 24 25  2  0  0  0
 25 26  1  0  0  0
 26 27  2  0  0  0
 27 28  1  0  0  0
 28 21  1  0  0  0
 21  1  1  0  0  0
  1  2  2  0  0  0
  2  3  1  0  0  0
  3  4  2  0  0  0
  4  7  1  0  0  0
  7  8  1  0  0  0
  8  9  2  0  0  0
  8 10  1  0  0  0
 10 13  1  0  0  0
 13 14  2  0  0  0
 14 15  1  0  0  0
 15 16  1  0  0  0
 15 17  2  0  0  0
 17 18  1  0  0  0
 18 19  2  0  0  0
 19 20  1  0  0  0
  4  5  1  0  0  0
  5  6  2  0  0  0
 28 29  2  0  0  0
 29 30  1  0  0  0
 30 31  2  0  0  0
 31 34  1  0  0  0
 34 35  1  0  0  0
 31 22  1  0  0  0
 29 24  1  0  0  0
  6  1  1  0  0  0
 19 13  1  0  0  0
  7 11  1  0  0  0
 10 12  1  0  0  0
M  END
> <minimizedAffinity>
-7.65323

> <CNNscore>
0.2230736017

> <CNNaffinity>
6.3452081680

> <CNN_VS>
1.4154484272

> <CNNaffinity_variance>
0.1905981302

$$$$
[H]c1c([H])c([H])c(C(=C2C(=O)N([H])c3c([H])c([H])c(N([H])C4([H])C([H])([H])C([H])([H])N(C([H])([H])C([H])([H])[H])C([H])([H])C4([H])[H])c([H])c32)c2nc3c([H])c([H])c([H])c([H])c3n2[H])c([H])c1[H]


 38 43  0  0  0  0  0  0  0  0999 V2000
    4.6942    2.4757   21.3853 C   0  0  0  0  0  0  0  0  0  0  0  0
    4.3785    1.2714   21.9373 C   0  0  0  0  0  0  0  0  0  0  0  0
    3.8015    0.3072   21.1690 C   0  0  0  0  0  0  0  0  0  0  0  0
    3.5274    0.5219   19.8301 C   0  0  0  0  0  0  0  0  0  0  0  0
    2.9261   -0.2917   18.8438 N   0  0  0  0  0  0  0  0  0  0  0  0
    2.8462    0.3896   17.6120 C   0  0  0  0  0  0  0  0  0  0  0  0
    2.3541   -0.0920   16.5694 O   0  0  0  0  0  0  0  0  0  0  0  0
    3.4413    1.7383   17.8188 C   0  0  0  0  0  0  0  0  0  0  0  0
    3.5435    2.6839   16.9352 C   0  0  0  0  0  0  0  0  0  0  0  0
    3.8444    1.7364   19.2586 C   0  0  0  0  0  0  0  0  0  0  0  0
    4.4264    2.7176   20.0331 C   0  0  0  0  0  0  0  0  0  0  0  0
    2.5843   -1.2691   19.0021 H   0  0  0  0  0  0  0  0  0  0  0  0
    3.0494    2.5198   15.5569 C   0  0  0  0  0  0  0  0  0  0  0  0
    3.7601    2.7286   14.4512 N   0  0  0  0  0  0  0  0  0  0  0  0
    3.0281    2.5102   13.3525 C   0  0  0  0  0  0  0  0  0  0  0  0
    3.2699    2.5786   12.0069 C   0  0  0  0  0  0  0  0  0  0  0  0
    2.2557    2.2756   11.1213 C   0  0  0  0  0  0  0  0  0  0  0  0
    1.0081    1.9065   11.5758 C   0  0  0  0  0  0  0  0  0  0  0  0
    0.7574    1.8357   12.9370 C   0  0  0  0  0  0  0  0  0  0  0  0
    1.7721    2.1387   13.8153 C   0  0  0  0  0  0  0  0  0  0  0  0
    1.7963    2.1473   15.1596 N   0  0  0  0  0  0  0  0  0  0  0  0
    1.0479    1.9247   15.8377 H   0  0  0  0  0  0  0  0  0  0  0  0
    4.2544    3.9228   17.1070 C   0  0  0  0  0  0  0  0  0  0  0  0
    5.6107    3.9938   17.1493 C   0  0  0  0  0  0  0  0  0  0  0  0
    6.2535    5.1827   17.4291 C   0  0  0  0  0  0  0  0  0  0  0  0
    5.5365    6.3318   17.6734 C   0  0  0  0  0  0  0  0  0  0  0  0
    4.1654    6.2781   17.6345 C   0  0  0  0  0  0  0  0  0  0  0  0
    3.5248    5.0904   17.3549 C   0  0  0  0  0  0  0  0  0  0  0  0
    5.2766    3.4959   22.1779 N   0  0  0  0  0  0  0  0  0  0  0  0
    5.1213    3.4645   23.2074 H   0  0  0  0  0  0  0  0  0  0  0  0
    6.9373    7.1937   22.6954 N   0  0  0  0  0  0  0  0  0  0  0  0
    7.8437    6.1744   22.2743 C   0  0  0  0  0  0  0  0  0  0  0  0
    7.2870    4.7793   22.4598 C   0  0  0  0  0  0  0  0  0  0  0  0
    6.0678    4.5682   21.6314 C   0  0  0  0  0  0  0  0  0  0  0  0
    5.2720    5.8426   21.4695 C   0  0  0  0  0  0  0  0  0  0  0  0
    5.5601    6.8791   22.5114 C   0  0  0  0  0  0  0  0  0  0  0  0
    6.1254    9.4211   22.3298 C   0  0  0  0  0  0  0  0  0  0  0  0
    7.3402    8.5076   22.3076 C   0  0  0  0  0  0  0  0  0  0  0  0
 37 38  1  0  0  0
 38 31  1  0  0  0
 31 32  1  0  0  0
 32 33  1  0  0  0
 33 34  1  0  0  0
 34 35  1  0  0  0
 35 36  1  0  0  0
 34 29  1  0  0  0
 29  1  1  0  0  0
  1  2  2  0  0  0
  2  3  1  0  0  0
  3  4  2  0  0  0
  4  5  1  0  0  0
  5  6  1  0  0  0
  6  7  2  0  0  0
  6  8  1  0  0  0
  8  9  2  0  0  0
  9 13  1  0  0  0
 13 14  2  0  0  0
 14 15  1  0  0  0
 15 16  2  0  0  0
 16 17  1  0  0  0
 17 18  2  0  0  0
 18 19  1  0  0  0
 19 20  2  0  0  0
 20 21  1  0  0  0
  9 23  1  0  0  0
 23 24  2  0  0  0
 24 25  1  0  0  0
 25 26  2  0  0  0
 26 27  1  0  0  0
 27 28  2  0  0  0
  8 10  1  0  0  0
 10 11  2  0  0  0
 36 31  1  0  0  0
 11  1  1  0  0  0
 10  4  1  0  0  0
 21 13  1  0  0  0
 28 23  1  0  0  0
 20 15  1  0  0  0
 29 30  1  0  0  0
  5 12  1  0  0  0
 21 22  1  0  0  0
M  END
> <minimizedAffinity>
-9.35289

> <CNNscore>
0.8111981153

> <CNNaffinity>
7.5580534935

> <CNN_VS>
6.1310787201

> <CNNaffinity_variance>
0.1029897556

$$$$
[H]c1c([H])c([H])c(C(=C2C(=O)N([H])c3c([H])c([H])c(N([H])C4([H])C([H])([H])C([H])([H])N(C([H])([H])C([H])([H])[H])C([H])([H])C4([H])[H])c([H])c32)c2nc3c([H])c([H])c([H])c([H])c3n2[H])c([H])c1[H]


 38 43  0  0  0  0  0  0  0  0999 V2000
    3.7681    4.1023   13.6090 C   0  0  0  0  0  0  0  0  0  0  0  0
    3.1818    2.9828   13.1013 C   0  0  0  0  0  0  0  0  0  0  0  0
    2.8830    1.9434   13.9279 C   0  0  0  0  0  0  0  0  0  0  0  0
    3.1611    1.9976   15.2820 C   0  0  0  0  0  0  0  0  0  0  0  0
    2.9736    1.0640   16.3258 N   0  0  0  0  0  0  0  0  0  0  0  0
    3.4436    1.5801   17.5508 C   0  0  0  0  0  0  0  0  0  0  0  0
    3.4067    0.9641   18.6371 O   0  0  0  0  0  0  0  0  0  0  0  0
    3.9692    2.9457   17.2771 C   0  0  0  0  0  0  0  0  0  0  0  0
    4.5110    3.7540   18.1363 C   0  0  0  0  0  0  0  0  0  0  0  0
    3.7525    3.1267   15.8088 C   0  0  0  0  0  0  0  0  0  0  0  0
    4.0600    4.1813   14.9754 C   0  0  0  0  0  0  0  0  0  0  0  0
    2.5442    0.1157   16.2096 H   0  0  0  0  0  0  0  0  0  0  0  0
    4.6801    3.3868   19.5532 C   0  0  0  0  0  0  0  0  0  0  0  0
    3.9284    3.8252   20.5601 N   0  0  0  0  0  0  0  0  0  0  0  0
    4.3403    3.3238   21.7304 C   0  0  0  0  0  0  0  0  0  0  0  0
    3.9272    3.4503   23.0294 C   0  0  0  0  0  0  0  0  0  0  0  0
    4.6005    2.7684   24.0225 C   0  0  0  0  0  0  0  0  0  0  0  0
    5.6790    1.9653   23.7213 C   0  0  0  0  0  0  0  0  0  0  0  0
    6.1020    1.8335   22.4081 C   0  0  0  0  0  0  0  0  0  0  0  0
    5.4271    2.5154   21.4220 C   0  0  0  0  0  0  0  0  0  0  0  0
    5.6251    2.5606   20.0929 N   0  0  0  0  0  0  0  0  0  0  0  0
    6.3371    2.0861   19.5120 H   0  0  0  0  0  0  0  0  0  0  0  0
    4.8755    5.1236   17.8893 C   0  0  0  0  0  0  0  0  0  0  0  0
    6.1617    5.5219   17.7064 C   0  0  0  0  0  0  0  0  0  0  0  0
    6.4832    6.8586   17.5854 C   0  0  0  0  0  0  0  0  0  0  0  0
    5.5075    7.8273   17.6469 C   0  0  0  0  0  0  0  0  0  0  0  0
    4.2027    7.4427   17.8311 C   0  0  0  0  0  0  0  0  0  0  0  0
    3.8829    6.1075   17.9516 C   0  0  0  0  0  0  0  0  0  0  0  0
    4.1035    5.1839   12.7570 N   0  0  0  0  0  0  0  0  0  0  0  0
    4.8443    5.8445   13.0732 H   0  0  0  0  0  0  0  0  0  0  0  0
    3.2114    7.8010    9.7480 N   0  0  0  0  0  0  0  0  0  0  0  0
    3.8429    6.5901    9.3323 C   0  0  0  0  0  0  0  0  0  0  0  0
    4.4858    5.8390   10.4782 C   0  0  0  0  0  0  0  0  0  0  0  0
    3.4727    5.4126   11.4827 C   0  0  0  0  0  0  0  0  0  0  0  0
    2.3288    6.3957   11.5776 C   0  0  0  0  0  0  0  0  0  0  0  0
    2.6533    7.7624   11.0581 C   0  0  0  0  0  0  0  0  0  0  0  0
    1.6537    7.2954    7.9952 C   0  0  0  0  0  0  0  0  0  0  0  0
    2.3988    8.3946    8.7348 C   0  0  0  0  0  0  0  0  0  0  0  0
 37 38  1  0  0  0
 38 31  1  0  0  0
 31 32  1  0  0  0
 32 33  1  0  0  0
 33 34  1  0  0  0
 34 35  1  0  0  0
 35 36  1  0  0  0
 34 29  1  0  0  0
 29  1  1  0  0  0
  1  2  2  0  0  0
  2  3  1  0  0  0
  3  4  2  0  0  0
  4  5  1  0  0  0
  5  6  1  0  0  0
  6  7  2  0  0  0
  6  8  1  0  0  0
  8  9  2  0  0  0
  9 13  1  0  0  0
 13 14  2  0  0  0
 14 15  1  0  0  0
 15 16  2  0  0  0
 16 17  1  0  0  0
 17 18  2  0  0  0
 18 19  1  0  0  0
 19 20  2  0  0  0
 20 21  1  0  0  0
  9 23  1  0  0  0
 23 24  2  0  0  0
 24 25  1  0  0  0
 25 26  2  0  0  0
 26 27  1  0  0  0
 27 28  2  0  0  0
  8 10  1  0  0  0
 10 11  2  0  0  0
 36 31  1  0  0  0
 11  1  1  0  0  0
 10  4  1  0  0  0
 21 13  1  0  0  0
 28 23  1  0  0  0
 20 15  1  0  0  0
 29 30  1  0  0  0
  5 12  1  0  0  0
 21 22  1  0  0  0
M  END
> <minimizedAffinity>
-9.26630

> <CNNscore>
0.5440164804

> <CNNaffinity>
6.7793488503

> <CNN_VS>
3.6880774498

> <CNNaffinity_variance>
0.3960699439

$$$$
[H]c1c([H])c([H])c(C(=C2C(=O)N([H])c3c([H])c([H])c(N([H])C4([H])C([H])([H])C([H])([H])N(C([H])([H])C([H])([H])[H])C([H])([H])C4([H])[H])c([H])c32)c2nc3c([H])c([H])c([H])c([H])c3n2[H])c([H])c1[H]


 38 43  0  0  0  0  0  0  0  0999 V2000
    3.4151    3.9741   13.7759 C   0  0  0  0  0  0  0  0  0  0  0  0
    2.9310    2.8086   13.2641 C   0  0  0  0  0  0  0  0  0  0  0  0
    2.7781    1.7269   14.0761 C   0  0  0  0  0  0  0  0  0  0  0  0
    3.1034    1.7835   15.4196 C   0  0  0  0  0  0  0  0  0  0  0  0
    3.0587    0.8146   16.4468 N   0  0  0  0  0  0  0  0  0  0  0  0
    3.5204    1.3535   17.6651 C   0  0  0  0  0  0  0  0  0  0  0  0
    3.5932    0.7155   18.7369 O   0  0  0  0  0  0  0  0  0  0  0  0
    3.8864    2.7727   17.4047 C   0  0  0  0  0  0  0  0  0  0  0  0
    4.3735    3.6171   18.2619 C   0  0  0  0  0  0  0  0  0  0  0  0
    3.5924    2.9587   15.9506 C   0  0  0  0  0  0  0  0  0  0  0  0
    3.7520    4.0567   15.1317 C   0  0  0  0  0  0  0  0  0  0  0  0
    2.7281   -0.1718   16.3242 H   0  0  0  0  0  0  0  0  0  0  0  0
    4.6380    3.2419   19.6620 C   0  0  0  0  0  0  0  0  0  0  0  0
    3.8961    3.5933   20.7095 N   0  0  0  0  0  0  0  0  0  0  0  0
    4.4030    3.1105   21.8500 C   0  0  0  0  0  0  0  0  0  0  0  0
    4.0388    3.1766   23.1679 C   0  0  0  0  0  0  0  0  0  0  0  0
    4.8140    2.5408   24.1164 C   0  0  0  0  0  0  0  0  0  0  0  0
    5.9453    1.8434   23.7519 C   0  0  0  0  0  0  0  0  0  0  0  0
    6.3190    1.7732   22.4192 C   0  0  0  0  0  0  0  0  0  0  0  0
    5.5426    2.4087   21.4778 C   0  0  0  0  0  0  0  0  0  0  0  0
    5.6761    2.4948   20.1427 N   0  0  0  0  0  0  0  0  0  0  0  0
    6.4008    2.0965   19.5217 H   0  0  0  0  0  0  0  0  0  0  0  0
    4.5801    5.0225   18.0344 C   0  0  0  0  0  0  0  0  0  0  0  0
    3.5715    5.9319   18.0794 C   0  0  0  0  0  0  0  0  0  0  0  0
    3.7880    7.2531   17.7441 C   0  0  0  0  0  0  0  0  0  0  0  0
    5.0346    7.6869   17.3540 C   0  0  0  0  0  0  0  0  0  0  0  0
    6.0651    6.7815   17.3031 C   0  0  0  0  0  0  0  0  0  0  0  0
    5.8477    5.4626   17.6383 C   0  0  0  0  0  0  0  0  0  0  0  0
    3.5988    5.1022   12.9382 N   0  0  0  0  0  0  0  0  0  0  0  0
    4.5296    5.2318   12.4888 H   0  0  0  0  0  0  0  0  0  0  0  0
   -0.3569    6.1027   13.1635 N   0  0  0  0  0  0  0  0  0  0  0  0
    0.5441    7.0590   13.7216 C   0  0  0  0  0  0  0  0  0  0  0  0
    1.9284    6.4946   13.9577 C   0  0  0  0  0  0  0  0  0  0  0  0
    2.5666    6.0730   12.6802 C   0  0  0  0  0  0  0  0  0  0  0  0
    1.5476    5.5743   11.6819 C   0  0  0  0  0  0  0  0  0  0  0  0
    0.2489    5.1496   12.2951 C   0  0  0  0  0  0  0  0  0  0  0  0
   -2.4022    7.1022   13.9197 C   0  0  0  0  0  0  0  0  0  0  0  0
   -1.5845    6.6752   12.7116 C   0  0  0  0  0  0  0  0  0  0  0  0
 37 38  1  0  0  0
 38 31  1  0  0  0
 31 32  1  0  0  0
 32 33  1  0  0  0
 33 34  1  0  0  0
 34 35  1  0  0  0
 35 36  1  0  0  0
 34 29  1  0  0  0
 29  1  1  0  0  0
  1  2  2  0  0  0
  2  3  1  0  0  0
  3  4  2  0  0  0
  4  5  1  0  0  0
  5  6  1  0  0  0
  6  7  2  0  0  0
  6  8  1  0  0  0
  8  9  2  0  0  0
  9 13  1  0  0  0
 13 14  2  0  0  0
 14 15  1  0  0  0
 15 16  2  0  0  0
 16 17  1  0  0  0
 17 18  2  0  0  0
 18 19  1  0  0  0
 19 20  2  0  0  0
 20 21  1  0  0  0
  9 23  1  0  0  0
 23 24  2  0  0  0
 24 25  1  0  0  0
 25 26  2  0  0  0
 26 27  1  0  0  0
 27 28  2  0  0  0
  8 10  1  0  0  0
 10 11  2  0  0  0
 36 31  1  0  0  0
 11  1  1  0  0  0
 10  4  1  0  0  0
 21 13  1  0  0  0
 28 23  1  0  0  0
 20 15  1  0  0  0
 29 30  1  0  0  0
  5 12  1  0  0  0
 21 22  1  0  0  0
M  END
> <minimizedAffinity>
-9.71840

> <CNNscore>
0.5145764351

> <CNNaffinity>
6.8800458908

> <CNN_VS>
3.5403094292

> <CNNaffinity_variance>
0.4404923022

$$$$
[H]c1c([H])c([H])c(C(=C2C(=O)N([H])c3c([H])c([H])c(N([H])C4([H])C([H])([H])C([H])([H])N(C([H])([H])C([H])([H])[H])C([H])([H])C4([H])[H])c([H])c32)c2nc3c([H])c([H])c([H])c([H])c3n2[H])c([H])c1[H]


 38 43  0  0  0  0  0  0  0  0999 V2000
    5.7130    4.2566   22.0564 C   0  0  0  0  0  0  0  0  0  0  0  0
    5.8321    3.0441   22.6651 C   0  0  0  0  0  0  0  0  0  0  0  0
    5.5181    1.9109   21.9794 C   0  0  0  0  0  0  0  0  0  0  0  0
    5.0791    1.9612   20.6684 C   0  0  0  0  0  0  0  0  0  0  0  0
    4.6772    0.9523   19.7645 N   0  0  0  0  0  0  0  0  0  0  0  0
    4.2873    1.5111   18.5302 C   0  0  0  0  0  0  0  0  0  0  0  0
    3.8817    0.8484   17.5518 O   0  0  0  0  0  0  0  0  0  0  0  0
    4.4525    2.9860   18.6461 C   0  0  0  0  0  0  0  0  0  0  0  0
    4.1829    3.8699   17.7345 C   0  0  0  0  0  0  0  0  0  0  0  0
    4.9565    3.1828   20.0400 C   0  0  0  0  0  0  0  0  0  0  0  0
    5.2705    4.3339   20.7310 C   0  0  0  0  0  0  0  0  0  0  0  0
    4.6684   -0.0730   19.9785 H   0  0  0  0  0  0  0  0  0  0  0  0
    3.6491    3.4908   16.4145 C   0  0  0  0  0  0  0  0  0  0  0  0
    4.2307    3.7428   15.2443 N   0  0  0  0  0  0  0  0  0  0  0  0
    3.4933    3.2868   14.2250 C   0  0  0  0  0  0  0  0  0  0  0  0
    3.6315    3.2862   12.8631 C   0  0  0  0  0  0  0  0  0  0  0  0
    2.6494    2.7089   12.0841 C   0  0  0  0  0  0  0  0  0  0  0  0
    1.5367    2.1356   12.6605 C   0  0  0  0  0  0  0  0  0  0  0  0
    1.3912    2.1333   14.0387 C   0  0  0  0  0  0  0  0  0  0  0  0
    2.3733    2.7101   14.8106 C   0  0  0  0  0  0  0  0  0  0  0  0
    2.4786    2.8395   16.1447 N   0  0  0  0  0  0  0  0  0  0  0  0
    1.8366    2.5294   16.8937 H   0  0  0  0  0  0  0  0  0  0  0  0
    4.4887    5.2738   17.8070 C   0  0  0  0  0  0  0  0  0  0  0  0
    3.5570    6.2158   18.1083 C   0  0  0  0  0  0  0  0  0  0  0  0
    3.8614    7.5610   18.0569 C   0  0  0  0  0  0  0  0  0  0  0  0
    5.1204    7.9863   17.6983 C   0  0  0  0  0  0  0  0  0  0  0  0
    6.0740    7.0480   17.3909 C   0  0  0  0  0  0  0  0  0  0  0  0
    5.7688    5.7051   17.4427 C   0  0  0  0  0  0  0  0  0  0  0  0
    6.0169    5.4459   22.7644 N   0  0  0  0  0  0  0  0  0  0  0  0
    5.7267    5.5089   23.7629 H   0  0  0  0  0  0  0  0  0  0  0  0
    6.1928    9.4846   22.1668 N   0  0  0  0  0  0  0  0  0  0  0  0
    7.3865    8.8942   22.6808 C   0  0  0  0  0  0  0  0  0  0  0  0
    7.1633    7.5034   23.2343 C   0  0  0  0  0  0  0  0  0  0  0  0
    6.7032    6.5656   22.1732 C   0  0  0  0  0  0  0  0  0  0  0  0
    5.8636    7.2667   21.1304 C   0  0  0  0  0  0  0  0  0  0  0  0
    5.2712    8.5620   21.5933 C   0  0  0  0  0  0  0  0  0  0  0  0
    5.4051   10.7749   20.3043 C   0  0  0  0  0  0  0  0  0  0  0  0
    6.4251   10.6842   21.4276 C   0  0  0  0  0  0  0  0  0  0  0  0
 37 38  1  0  0  0
 38 31  1  0  0  0
 31 32  1  0  0  0
 32 33  1  0  0  0
 33 34  1  0  0  0
 34 35  1  0  0  0
 35 36  1  0  0  0
 34 29  1  0  0  0
 29  1  1  0  0  0
  1  2  2  0  0  0
  2  3  1  0  0  0
  3  4  2  0  0  0
  4  5  1  0  0  0
  5  6  1  0  0  0
  6  7  2  0  0  0
  6  8  1  0  0  0
  8  9  2  0  0  0
  9 13  1  0  0  0
 13 14  2  0  0  0
 14 15  1  0  0  0
 15 16  2  0  0  0
 16 17  1  0  0  0
 17 18  2  0  0  0
 18 19  1  0  0  0
 19 20  2  0  0  0
 20 21  1  0  0  0
  9 23  1  0  0  0
 23 24  2  0  0  0
 24 25  1  0  0  0
 25 26  2  0  0  0
 26 27  1  0  0  0
 27 28  2  0  0  0
  8 10  1  0  0  0
 10 11  2  0  0  0
 36 31  1  0  0  0
 11  1  1  0  0  0
 10  4  1  0  0  0
 21 13  1  0  0  0
 28 23  1  0  0  0
 20 15  1  0  0  0
 29 30  1  0  0  0
  5 12  1  0  0  0
 21 22  1  0  0  0
M  END
> <minimizedAffinity>
-9.78892

> <CNNscore>
0.5134345293

> <CNNaffinity>
7.0856614113

> <CNN_VS>
3.6380231380

> <CNNaffinity_variance>
0.2236059904

$$$$
[H]c1c([H])c([H])c(C(=C2C(=O)N([H])c3c([H])c([H])c(N([H])C4([H])C([H])([H])C([H])([H])N(C([H])([H])C([H])([H])[H])C([H])([H])C4([H])[H])c([H])c32)c2nc3c([H])c([H])c([H])c([H])c3n2[H])c([H])c1[H]


 38 43  0  0  0  0  0  0  0  0999 V2000
    3.1974    3.9678   14.0253 C   0  0  0  0  0  0  0  0  0  0  0  0
    2.6747    2.8221   13.5066 C   0  0  0  0  0  0  0  0  0  0  0  0
    2.5390    1.7232   14.2984 C   0  0  0  0  0  0  0  0  0  0  0  0
    2.9207    1.7424   15.6280 C   0  0  0  0  0  0  0  0  0  0  0  0
    2.9037    0.7494   16.6330 N   0  0  0  0  0  0  0  0  0  0  0  0
    3.4238    1.2518   17.8433 C   0  0  0  0  0  0  0  0  0  0  0  0
    3.5313    0.5869   18.8956 O   0  0  0  0  0  0  0  0  0  0  0  0
    3.8004    2.6716   17.6016 C   0  0  0  0  0  0  0  0  0  0  0  0
    4.3355    3.4878   18.4575 C   0  0  0  0  0  0  0  0  0  0  0  0
    3.4492    2.8972   16.1659 C   0  0  0  0  0  0  0  0  0  0  0  0
    3.5915    4.0124   15.3674 C   0  0  0  0  0  0  0  0  0  0  0  0
    2.5533   -0.2288   16.5008 H   0  0  0  0  0  0  0  0  0  0  0  0
    4.6520    3.0748   19.8360 C   0  0  0  0  0  0  0  0  0  0  0  0
    3.9250    3.3588   20.9140 N   0  0  0  0  0  0  0  0  0  0  0  0
    4.4811    2.8575   22.0231 C   0  0  0  0  0  0  0  0  0  0  0  0
    4.1499    2.8625   23.3513 C   0  0  0  0  0  0  0  0  0  0  0  0
    4.9749    2.2259   24.2563 C   0  0  0  0  0  0  0  0  0  0  0  0
    6.1228    1.5882   23.8383 C   0  0  0  0  0  0  0  0  0  0  0  0
    6.4633    1.5800   22.4950 C   0  0  0  0  0  0  0  0  0  0  0  0
    5.6373    2.2160   21.5971 C   0  0  0  0  0  0  0  0  0  0  0  0
    5.7315    2.3542   20.2630 N   0  0  0  0  0  0  0  0  0  0  0  0
    6.4546    2.0077   19.6099 H   0  0  0  0  0  0  0  0  0  0  0  0
    4.5540    4.8953   18.2550 C   0  0  0  0  0  0  0  0  0  0  0  0
    5.7230    5.3980   17.7787 C   0  0  0  0  0  0  0  0  0  0  0  0
    5.9357    6.7597   17.7053 C   0  0  0  0  0  0  0  0  0  0  0  0
    4.9669    7.6480   18.1137 C   0  0  0  0  0  0  0  0  0  0  0  0
    3.7796    7.1574   18.5974 C   0  0  0  0  0  0  0  0  0  0  0  0
    3.5686    5.7974   18.6700 C   0  0  0  0  0  0  0  0  0  0  0  0
    3.3635    5.1132   13.2077 N   0  0  0  0  0  0  0  0  0  0  0  0
    3.0750    5.0476   12.2089 H   0  0  0  0  0  0  0  0  0  0  0  0
    2.7441    9.0434   14.1400 N   0  0  0  0  0  0  0  0  0  0  0  0
    3.3479    8.2625   15.1713 C   0  0  0  0  0  0  0  0  0  0  0  0
    3.2127    6.7734   14.9366 C   0  0  0  0  0  0  0  0  0  0  0  0
    3.9092    6.3564   13.6884 C   0  0  0  0  0  0  0  0  0  0  0  0
    3.8748    7.4418   12.6374 C   0  0  0  0  0  0  0  0  0  0  0  0
    2.7928    8.4567   12.8428 C   0  0  0  0  0  0  0  0  0  0  0  0
    3.4395   10.7732   15.6495 C   0  0  0  0  0  0  0  0  0  0  0  0
    3.0684   10.4320   14.2155 C   0  0  0  0  0  0  0  0  0  0  0  0
 37 38  1  0  0  0
 38 31  1  0  0  0
 31 32  1  0  0  0
 32 33  1  0  0  0
 33 34  1  0  0  0
 34 35  1  0  0  0
 35 36  1  0  0  0
 34 29  1  0  0  0
 29  1  1  0  0  0
  1  2  2  0  0  0
  2  3  1  0  0  0
  3  4  2  0  0  0
  4  5  1  0  0  0
  5  6  1  0  0  0
  6  7  2  0  0  0
  6  8  1  0  0  0
  8  9  2  0  0  0
  9 13  1  0  0  0
 13 14  2  0  0  0
 14 15  1  0  0  0
 15 16  2  0  0  0
 16 17  1  0  0  0
 17 18  2  0  0  0
 18 19  1  0  0  0
 19 20  2  0  0  0
 20 21  1  0  0  0
  9 23  1  0  0  0
 23 24  2  0  0  0
 24 25  1  0  0  0
 25 26  2  0  0  0
 26 27  1  0  0  0
 27 28  2  0  0  0
  8 10  1  0  0  0
 10 11  2  0  0  0
 36 31  1  0  0  0
 11  1  1  0  0  0
 10  4  1  0  0  0
 21 13  1  0  0  0
 28 23  1  0  0  0
 20 15  1  0  0  0
 29 30  1  0  0  0
  5 12  1  0  0  0
 21 22  1  0  0  0
M  END
> <minimizedAffinity>
-9.08191

> <CNNscore>
0.4403206706

> <CNNaffinity>
6.9394493103

> <CNN_VS>
3.0555830002

> <CNNaffinity_variance>
0.4042018056

$$$$
[H]c1c([H])c([H])c(C(=C2C(=O)N([H])c3c([H])c([H])c(N([H])C4([H])C([H])([H])C([H])([H])N(C([H])([H])C([H])([H])[H])C([H])([H])C4([H])[H])c([H])c32)c2nc3c([H])c([H])c([H])c([H])c3n2[H])c([H])c1[H]


 38 43  0  0  0  0  0  0  0  0999 V2000
    5.6913    4.6511   22.2368 C   0  0  0  0  0  0  0  0  0  0  0  0
    5.8706    3.4570   22.8668 C   0  0  0  0  0  0  0  0  0  0  0  0
    5.6145    2.2976   22.2012 C   0  0  0  0  0  0  0  0  0  0  0  0
    5.1747    2.3026   20.8895 C   0  0  0  0  0  0  0  0  0  0  0  0
    4.8249    1.2590   20.0036 N   0  0  0  0  0  0  0  0  0  0  0  0
    4.4086    1.7756   18.7596 C   0  0  0  0  0  0  0  0  0  0  0  0
    4.0377    1.0762   17.7930 O   0  0  0  0  0  0  0  0  0  0  0  0
    4.4993    3.2588   18.8495 C   0  0  0  0  0  0  0  0  0  0  0  0
    4.1866    4.1118   17.9223 C   0  0  0  0  0  0  0  0  0  0  0  0
    4.9915    3.5052   20.2396 C   0  0  0  0  0  0  0  0  0  0  0  0
    5.2467    4.6827   20.9102 C   0  0  0  0  0  0  0  0  0  0  0  0
    4.8674    0.2385   20.2357 H   0  0  0  0  0  0  0  0  0  0  0  0
    3.6737    3.6831   16.6093 C   0  0  0  0  0  0  0  0  0  0  0  0
    4.2338    3.9578   15.4337 N   0  0  0  0  0  0  0  0  0  0  0  0
    3.5237    3.4429   14.4230 C   0  0  0  0  0  0  0  0  0  0  0  0
    3.6569    3.4347   13.0606 C   0  0  0  0  0  0  0  0  0  0  0  0
    2.7113    2.7859   12.2927 C   0  0  0  0  0  0  0  0  0  0  0  0
    1.6399    2.1493   12.8806 C   0  0  0  0  0  0  0  0  0  0  0  0
    1.4997    2.1543   14.2593 C   0  0  0  0  0  0  0  0  0  0  0  0
    2.4452    2.8025   15.0202 C   0  0  0  0  0  0  0  0  0  0  0  0
    2.5466    2.9546   16.3522 N   0  0  0  0  0  0  0  0  0  0  0  0
    1.9286    2.6129   17.1076 H   0  0  0  0  0  0  0  0  0  0  0  0
    4.4214    5.5304   17.9701 C   0  0  0  0  0  0  0  0  0  0  0  0
    5.5938    6.0963   17.5811 C   0  0  0  0  0  0  0  0  0  0  0  0
    5.8229    7.4470   17.7479 C   0  0  0  0  0  0  0  0  0  0  0  0
    4.8676    8.2599   18.3143 C   0  0  0  0  0  0  0  0  0  0  0  0
    3.6771    7.7048   18.7129 C   0  0  0  0  0  0  0  0  0  0  0  0
    3.4495    6.3559   18.5456 C   0  0  0  0  0  0  0  0  0  0  0  0
    5.9343    5.8665   22.9237 N   0  0  0  0  0  0  0  0  0  0  0  0
    5.2526    6.1606   23.6544 H   0  0  0  0  0  0  0  0  0  0  0  0
    9.5973    6.3032   21.1657 N   0  0  0  0  0  0  0  0  0  0  0  0
    8.6440    7.3153   20.8422 C   0  0  0  0  0  0  0  0  0  0  0  0
    7.2259    6.9216   21.1955 C   0  0  0  0  0  0  0  0  0  0  0  0
    7.0717    6.7102   22.6613 C   0  0  0  0  0  0  0  0  0  0  0  0
    8.3388    6.1749   23.2872 C   0  0  0  0  0  0  0  0  0  0  0  0
    9.2734    5.5250   22.3140 C   0  0  0  0  0  0  0  0  0  0  0  0
   11.1319    7.9756   21.9419 C   0  0  0  0  0  0  0  0  0  0  0  0
   10.9514    6.7460   21.0667 C   0  0  0  0  0  0  0  0  0  0  0  0
 37 38  1  0  0  0
 38 31  1  0  0  0
 31 32  1  0  0  0
 32 33  1  0  0  0
 33 34  1  0  0  0
 34 35  1  0  0  0
 35 36  1  0  0  0
 34 29  1  0  0  0
 29  1  1  0  0  0
  1  2  2  0  0  0
  2  3  1  0  0  0
  3  4  2  0  0  0
  4  5  1  0  0  0
  5  6  1  0  0  0
  6  7  2  0  0  0
  6  8  1  0  0  0
  8  9  2  0  0  0
  9 13  1  0  0  0
 13 14  2  0  0  0
 14 15  1  0  0  0
 15 16  2  0  0  0
 16 17  1  0  0  0
 17 18  2  0  0  0
 18 19  1  0  0  0
 19 20  2  0  0  0
 20 21  1  0  0  0
  9 23  1  0  0  0
 23 24  2  0  0  0
 24 25  1  0  0  0
 25 26  2  0  0  0
 26 27  1  0  0  0
 27 28  2  0  0  0
  8 10  1  0  0  0
 10 11  2  0  0  0
 36 31  1  0  0  0
 11  1  1  0  0  0
 10  4  1  0  0  0
 21 13  1  0  0  0
 28 23  1  0  0  0
 20 15  1  0  0  0
 29 30  1  0  0  0
  5 12  1  0  0  0
 21 22  1  0  0  0
M  END
> <minimizedAffinity>
-9.32631

> <CNNscore>
0.3453167975

> <CNNaffinity>
6.9414224625

> <CNN_VS>
2.3969898224

> <CNNaffinity_variance>
0.2364109457

$$$$
[H]c1c([H])c([H])c(C(=C2C(=O)N([H])c3c([H])c([H])c(N([H])C4([H])C([H])([H])C([H])([H])N(C([H])([H])C([H])([H])[H])C([H])([H])C4([H])[H])c([H])c32)c2nc3c([H])c([H])c([H])c([H])c3n2[H])c([H])c1[H]


 38 43  0  0  0  0  0  0  0  0999 V2000
    1.3693    3.4223   10.8032 C   0  0  0  0  0  0  0  0  0  0  0  0
    0.9927    2.1139   10.8355 C   0  0  0  0  0  0  0  0  0  0  0  0
    1.0833    1.4140   11.9995 C   0  0  0  0  0  0  0  0  0  0  0  0
    1.5508    2.0045   13.1600 C   0  0  0  0  0  0  0  0  0  0  0  0
    1.7573    1.4994   14.4632 N   0  0  0  0  0  0  0  0  0  0  0  0
    2.2788    2.4977   15.3113 C   0  0  0  0  0  0  0  0  0  0  0  0
    2.5611    2.3241   16.5159 O   0  0  0  0  0  0  0  0  0  0  0  0
    2.4155    3.7360   14.4965 C   0  0  0  0  0  0  0  0  0  0  0  0
    2.8788    4.8804   14.8978 C   0  0  0  0  0  0  0  0  0  0  0  0
    1.9331    3.3295   13.1409 C   0  0  0  0  0  0  0  0  0  0  0  0
    1.8461    4.0423   11.9637 C   0  0  0  0  0  0  0  0  0  0  0  0
    1.5523    0.5169   14.7629 H   0  0  0  0  0  0  0  0  0  0  0  0
    3.3517    5.0896   16.2774 C   0  0  0  0  0  0  0  0  0  0  0  0
    4.6225    5.0601   16.6716 N   0  0  0  0  0  0  0  0  0  0  0  0
    4.7295    5.2710   17.9887 C   0  0  0  0  0  0  0  0  0  0  0  0
    5.7752    5.3403   18.8694 C   0  0  0  0  0  0  0  0  0  0  0  0
    5.5203    5.5825   20.2040 C   0  0  0  0  0  0  0  0  0  0  0  0
    4.2302    5.7547   20.6567 C   0  0  0  0  0  0  0  0  0  0  0  0
    3.1675    5.6854   19.7698 C   0  0  0  0  0  0  0  0  0  0  0  0
    3.4273    5.4438   18.4405 C   0  0  0  0  0  0  0  0  0  0  0  0
    2.5959    5.3318   17.3897 N   0  0  0  0  0  0  0  0  0  0  0  0
    1.5651    5.4042   17.3491 H   0  0  0  0  0  0  0  0  0  0  0  0
    2.8643    6.1053   14.1434 C   0  0  0  0  0  0  0  0  0  0  0  0
    3.9796    6.6327   13.5739 C   0  0  0  0  0  0  0  0  0  0  0  0
    3.9486    7.8661   12.9554 C   0  0  0  0  0  0  0  0  0  0  0  0
    2.7842    8.5977   12.8984 C   0  0  0  0  0  0  0  0  0  0  0  0
    1.6479    8.0799   13.4685 C   0  0  0  0  0  0  0  0  0  0  0  0
    1.6802    6.8480   14.0857 C   0  0  0  0  0  0  0  0  0  0  0  0
    1.2997    4.1576    9.5938 N   0  0  0  0  0  0  0  0  0  0  0  0
    2.1533    4.2025    8.9984 H   0  0  0  0  0  0  0  0  0  0  0  0
   -2.7627    4.5469    9.8047 N   0  0  0  0  0  0  0  0  0  0  0  0
   -2.0254    5.7505   10.0181 C   0  0  0  0  0  0  0  0  0  0  0  0
   -0.5607    5.4997   10.3051 C   0  0  0  0  0  0  0  0  0  0  0  0
    0.1125    4.8423    9.1511 C   0  0  0  0  0  0  0  0  0  0  0  0
   -0.8281    3.9300    8.3982 C   0  0  0  0  0  0  0  0  0  0  0  0
   -2.0225    3.4960    9.1906 C   0  0  0  0  0  0  0  0  0  0  0  0
   -4.7718    5.8065   10.1668 C   0  0  0  0  0  0  0  0  0  0  0  0
   -4.0790    4.7694    9.2978 C   0  0  0  0  0  0  0  0  0  0  0  0
 37 38  1  0  0  0
 38 31  1  0  0  0
 31 32  1  0  0  0
 32 33  1  0  0  0
 33 34  1  0  0  0
 34 35  1  0  0  0
 35 36  1  0  0  0
 34 29  1  0  0  0
 29  1  1  0  0  0
  1  2  2  0  0  0
  2  3  1  0  0  0
  3  4  2  0  0  0
  4  5  1  0  0  0
  5  6  1  0  0  0
  6  7  2  0  0  0
  6  8  1  0  0  0
  8  9  2  0  0  0
  9 13  1  0  0  0
 13 14  2  0  0  0
 14 15  1  0  0  0
 15 16  2  0  0  0
 16 17  1  0  0  0
 17 18  2  0  0  0
 18 19  1  0  0  0
 19 20  2  0  0  0
 20 21  1  0  0  0
  9 23  1  0  0  0
 23 24  2  0  0  0
 24 25  1  0  0  0
 25 26  2  0  0  0
 26 27  1  0  0  0
 27 28  2  0  0  0
  8 10  1  0  0  0
 10 11  2  0  0  0
 36 31  1  0  0  0
 11  1  1  0  0  0
 10  4  1  0  0  0
 21 13  1  0  0  0
 28 23  1  0  0  0
 20 15  1  0  0  0
 29 30  1  0  0  0
  5 12  1  0  0  0
 21 22  1  0  0  0
M  END
> <minimizedAffinity>
-7.16055

> <CNNscore>
0.2456516922

> <CNNaffinity>
6.1722354889

> <CNN_VS>
1.5162200928

> <CNNaffinity_variance>
0.6139111519

$$$$
[H]c1c([H])c([H])c(C(=C2C(=O)N([H])c3c([H])c([H])c(N([H])C4([H])C([H])([H])C([H])([H])N(C([H])([H])C([H])([H])[H])C([H])([H])C4([H])[H])c([H])c32)c2nc3c([H])c([H])c([H])c([H])c3n2[H])c([H])c1[H]


 38 43  0  0  0  0  0  0  0  0999 V2000
    1.3989    3.7343   10.6317 C   0  0  0  0  0  0  0  0  0  0  0  0
    1.0272    2.4250   10.5815 C   0  0  0  0  0  0  0  0  0  0  0  0
    1.0988    1.6596   11.7048 C   0  0  0  0  0  0  0  0  0  0  0  0
    1.5418    2.1837   12.9060 C   0  0  0  0  0  0  0  0  0  0  0  0
    1.7259    1.6050   14.1818 N   0  0  0  0  0  0  0  0  0  0  0  0
    2.2271    2.5544   15.0956 C   0  0  0  0  0  0  0  0  0  0  0  0
    2.4874    2.3126   16.2934 O   0  0  0  0  0  0  0  0  0  0  0  0
    2.3740    3.8381   14.3562 C   0  0  0  0  0  0  0  0  0  0  0  0
    2.8247    4.9588   14.8314 C   0  0  0  0  0  0  0  0  0  0  0  0
    1.9189    3.5088   12.9705 C   0  0  0  0  0  0  0  0  0  0  0  0
    1.8510    4.2879   11.8348 C   0  0  0  0  0  0  0  0  0  0  0  0
    1.5194    0.6062   14.4205 H   0  0  0  0  0  0  0  0  0  0  0  0
    3.2706    5.0898   16.2296 C   0  0  0  0  0  0  0  0  0  0  0  0
    4.5327    5.0270   16.6473 N   0  0  0  0  0  0  0  0  0  0  0  0
    4.6142    5.1664   17.9757 C   0  0  0  0  0  0  0  0  0  0  0  0
    5.6419    5.1786   18.8799 C   0  0  0  0  0  0  0  0  0  0  0  0
    5.3614    5.3519   20.2200 C   0  0  0  0  0  0  0  0  0  0  0  0
    4.0637    5.5121   20.6550 C   0  0  0  0  0  0  0  0  0  0  0  0
    3.0191    5.5005   19.7443 C   0  0  0  0  0  0  0  0  0  0  0  0
    3.3043    5.3275   18.4095 C   0  0  0  0  0  0  0  0  0  0  0  0
    2.4940    5.2797   17.3376 N   0  0  0  0  0  0  0  0  0  0  0  0
    1.4650    5.3641   17.2800 H   0  0  0  0  0  0  0  0  0  0  0  0
    2.8193    6.2252   14.1486 C   0  0  0  0  0  0  0  0  0  0  0  0
    1.7181    7.0177   14.0755 C   0  0  0  0  0  0  0  0  0  0  0  0
    1.7189    8.1703   13.3163 C   0  0  0  0  0  0  0  0  0  0  0  0
    2.8381    8.5495   12.6107 C   0  0  0  0  0  0  0  0  0  0  0  0
    3.9597    7.7605   12.6734 C   0  0  0  0  0  0  0  0  0  0  0  0
    3.9575    6.6099   13.4320 C   0  0  0  0  0  0  0  0  0  0  0  0
    1.3490    4.5378    9.4655 N   0  0  0  0  0  0  0  0  0  0  0  0
    0.6413    4.3018    8.7384 H   0  0  0  0  0  0  0  0  0  0  0  0
    2.0921    8.0032    7.4313 N   0  0  0  0  0  0  0  0  0  0  0  0
    2.1620    8.1069    8.8534 C   0  0  0  0  0  0  0  0  0  0  0  0
    1.5227    6.9314    9.5605 C   0  0  0  0  0  0  0  0  0  0  0  0
    2.2248    5.6584    9.2384 C   0  0  0  0  0  0  0  0  0  0  0  0
    2.7905    5.6689    7.8371 C   0  0  0  0  0  0  0  0  0  0  0  0
    2.1504    6.6719    6.9276 C   0  0  0  0  0  0  0  0  0  0  0  0
    3.0837    8.5246    5.3101 C   0  0  0  0  0  0  0  0  0  0  0  0
    2.8944    8.9693    6.7513 C   0  0  0  0  0  0  0  0  0  0  0  0
 37 38  1  0  0  0
 38 31  1  0  0  0
 31 32  1  0  0  0
 32 33  1  0  0  0
 33 34  1  0  0  0
 34 35  1  0  0  0
 35 36  1  0  0  0
 34 29  1  0  0  0
 29  1  1  0  0  0
  1  2  2  0  0  0
  2  3  1  0  0  0
  3  4  2  0  0  0
  4  5  1  0  0  0
  5  6  1  0  0  0
  6  7  2  0  0  0
  6  8  1  0  0  0
  8  9  2  0  0  0
  9 13  1  0  0  0
 13 14  2  0  0  0
 14 15  1  0  0  0
 15 16  2  0  0  0
 16 17  1  0  0  0
 17 18  2  0  0  0
 18 19  1  0  0  0
 19 20  2  0  0  0
 20 21  1  0  0  0
  9 23  1  0  0  0
 23 24  2  0  0  0
 24 25  1  0  0  0
 25 26  2  0  0  0
 26 27  1  0  0  0
 27 28  2  0  0  0
  8 10  1  0  0  0
 10 11  2  0  0  0
 36 31  1  0  0  0
 11  1  1  0  0  0
 10  4  1  0  0  0
 21 13  1  0  0  0
 28 23  1  0  0  0
 20 15  1  0  0  0
 29 30  1  0  0  0
  5 12  1  0  0  0
 21 22  1  0  0  0
M  END
> <minimizedAffinity>
-6.99572

> <CNNscore>
0.2279559970

> <CNNaffinity>
6.1058135033

> <CNN_VS>
1.3918567896

> <CNNaffinity_variance>
0.3783543706

$$$$
[H]c1c([H])c([H])c(C(=C2C(=O)N([H])c3c([H])c([H])c(N([H])C4([H])C([H])([H])C([H])([H])N(C([H])([H])C([H])([H])[H])C([H])([H])C4([H])[H])c([H])c32)c2nc3c([H])c([H])c([H])c([H])c3n2[H])c([H])c1[H]


 38 43  0  0  0  0  0  0  0  0999 V2000
    5.9361    3.8329   21.6148 C   0  0  0  0  0  0  0  0  0  0  0  0
    5.8491    2.5104   21.9284 C   0  0  0  0  0  0  0  0  0  0  0  0
    5.3192    1.6369   21.0289 C   0  0  0  0  0  0  0  0  0  0  0  0
    4.8647    2.0628   19.7936 C   0  0  0  0  0  0  0  0  0  0  0  0
    4.2655    1.3738   18.7155 N   0  0  0  0  0  0  0  0  0  0  0  0
    3.9531    2.2607   17.6650 C   0  0  0  0  0  0  0  0  0  0  0  0
    3.4109    1.9211   16.5918 O   0  0  0  0  0  0  0  0  0  0  0  0
    4.3845    3.6186   18.0962 C   0  0  0  0  0  0  0  0  0  0  0  0
    4.2569    4.7220   17.4243 C   0  0  0  0  0  0  0  0  0  0  0  0
    4.9495    3.3991   19.4630 C   0  0  0  0  0  0  0  0  0  0  0  0
    5.4828    4.2887   20.3717 C   0  0  0  0  0  0  0  0  0  0  0  0
    4.0770    0.3436   18.6953 H   0  0  0  0  0  0  0  0  0  0  0  0
    3.6316    4.7548   16.0906 C   0  0  0  0  0  0  0  0  0  0  0  0
    2.3814    5.1311   15.8324 N   0  0  0  0  0  0  0  0  0  0  0  0
    2.1037    5.0370   14.5267 C   0  0  0  0  0  0  0  0  0  0  0  0
    1.0007    5.2932   13.7575 C   0  0  0  0  0  0  0  0  0  0  0  0
    1.0621    5.0805   12.3953 C   0  0  0  0  0  0  0  0  0  0  0  0
    2.2169    4.6152   11.8045 C   0  0  0  0  0  0  0  0  0  0  0  0
    3.3366    4.3540   12.5781 C   0  0  0  0  0  0  0  0  0  0  0  0
    3.2700    4.5679   13.9356 C   0  0  0  0  0  0  0  0  0  0  0  0
    4.1945    4.3998   14.8973 N   0  0  0  0  0  0  0  0  0  0  0  0
    5.1718    4.0691   14.8270 H   0  0  0  0  0  0  0  0  0  0  0  0
    4.8127    5.9980   17.7884 C   0  0  0  0  0  0  0  0  0  0  0  0
    6.1157    6.3208   17.5778 C   0  0  0  0  0  0  0  0  0  0  0  0
    6.6392    7.5101   18.0430 C   0  0  0  0  0  0  0  0  0  0  0  0
    5.8539    8.4039   18.7348 C   0  0  0  0  0  0  0  0  0  0  0  0
    4.5351    8.0939   18.9564 C   0  0  0  0  0  0  0  0  0  0  0  0
    4.0136    6.9061   18.4911 C   0  0  0  0  0  0  0  0  0  0  0  0
    6.4667    4.7568   22.5491 N   0  0  0  0  0  0  0  0  0  0  0  0
    6.2321    4.6246   23.5554 H   0  0  0  0  0  0  0  0  0  0  0  0
    8.6169    8.0281   23.7214 N   0  0  0  0  0  0  0  0  0  0  0  0
    9.3334    7.0834   22.9265 C   0  0  0  0  0  0  0  0  0  0  0  0
    8.6378    5.7422   22.8378 C   0  0  0  0  0  0  0  0  0  0  0  0
    7.3093    5.8637   22.1764 C   0  0  0  0  0  0  0  0  0  0  0  0
    6.6610    7.1988   22.4611 C   0  0  0  0  0  0  0  0  0  0  0  0
    7.1995    7.8929   23.6740 C   0  0  0  0  0  0  0  0  0  0  0  0
    9.4553    9.6488   22.1642 C   0  0  0  0  0  0  0  0  0  0  0  0
    9.1261    9.3584   23.6195 C   0  0  0  0  0  0  0  0  0  0  0  0
 37 38  1  0  0  0
 38 31  1  0  0  0
 31 32  1  0  0  0
 32 33  1  0  0  0
 33 34  1  0  0  0
 34 35  1  0  0  0
 35 36  1  0  0  0
 34 29  1  0  0  0
 29  1  1  0  0  0
  1  2  2  0  0  0
  2  3  1  0  0  0
  3  4  2  0  0  0
  4  5  1  0  0  0
  5  6  1  0  0  0
  6  7  2  0  0  0
  6  8  1  0  0  0
  8  9  2  0  0  0
  9 13  1  0  0  0
 13 14  2  0  0  0
 14 15  1  0  0  0
 15 16  2  0  0  0
 16 17  1  0  0  0
 17 18  2  0  0  0
 18 19  1  0  0  0
 19 20  2  0  0  0
 20 21  1  0  0  0
  9 23  1  0  0  0
 23 24  2  0  0  0
 24 25  1  0  0  0
 25 26  2  0  0  0
 26 27  1  0  0  0
 27 28  2  0  0  0
  8 10  1  0  0  0
 10 11  2  0  0  0
 36 31  1  0  0  0
 11  1  1  0  0  0
 10  4  1  0  0  0
 21 13  1  0  0  0
 28 23  1  0  0  0
 20 15  1  0  0  0
 29 30  1  0  0  0
  5 12  1  0  0  0
 21 22  1  0  0  0
M  END
> <minimizedAffinity>
-9.19753

> <CNNscore>
0.2238539308

> <CNNaffinity>
6.5050172806

> <CNN_VS>
1.4561736584

> <CNNaffinity_variance>
0.2848550975

$$$$
[H]c1nc2c([H])c(OC([H])([H])C([H])([H])C([H])([H])N3C([H])([H])C([H])([H])C([H])([H])C([H])([H])C3([H])[H])c(OC([H])([H])[H])c([H])c2c(Oc2c([H])c([H])c(N([H])C(=O)C3(C(=O)N([H])c4c([H])c([H])c(F)c([H])c4[H])C([H])([H])C3([H])[H])c([H])c2F)c1[H]


 48 53  0  0  0  0  0  0  0  0999 V2000
    3.8772    1.8308   17.6251 C   0  0  0  0  0  0  0  0  0  0  0  0
    2.8758    0.9581   17.2672 C   0  0  0  0  0  0  0  0  0  0  0  0
    2.2324    0.9960   16.0285 C   0  0  0  0  0  0  0  0  0  0  0  0
    2.5795    1.9346   15.0786 C   0  0  0  0  0  0  0  0  0  0  0  0
    3.5754    2.8114   15.4200 C   0  0  0  0  0  0  0  0  0  0  0  0
    4.2137    2.7841   16.6327 C   0  0  0  0  0  0  0  0  0  0  0  0
    5.1844    3.6820   16.9096 F   0  0  0  0  0  0  0  0  0  0  0  0
    1.9495    1.9176   13.8011 N   0  0  0  0  0  0  0  0  0  0  0  0
    2.3766    2.5731   12.6539 C   0  0  0  0  0  0  0  0  0  0  0  0
    3.3927    3.3116   12.6676 O   0  0  0  0  0  0  0  0  0  0  0  0
    1.0259    1.3689   13.7659 H   0  0  0  0  0  0  0  0  0  0  0  0
    1.6610    2.4523   11.3722 C   0  0  0  0  0  0  0  0  0  0  0  0
    2.4730    2.1129   10.1594 C   0  0  0  0  0  0  0  0  0  0  0  0
    1.6065    1.0861   10.7311 C   0  0  0  0  0  0  0  0  0  0  0  0
    0.5207    3.3663   11.1324 C   0  0  0  0  0  0  0  0  0  0  0  0
    0.1099    4.0283   12.1302 O   0  0  0  0  0  0  0  0  0  0  0  0
   -0.0694    3.5031    9.8689 N   0  0  0  0  0  0  0  0  0  0  0  0
    0.4350    2.9569    9.0847 H   0  0  0  0  0  0  0  0  0  0  0  0
   -1.1683    4.2996    9.5104 C   0  0  0  0  0  0  0  0  0  0  0  0
   -1.1049    5.5689    9.0414 C   0  0  0  0  0  0  0  0  0  0  0  0
   -2.2350    6.3028    8.7016 C   0  0  0  0  0  0  0  0  0  0  0  0
   -3.4600    5.7010    8.8542 C   0  0  0  0  0  0  0  0  0  0  0  0
   -4.6390    6.3395    8.5491 F   0  0  0  0  0  0  0  0  0  0  0  0
   -3.5542    4.4186    9.3260 C   0  0  0  0  0  0  0  0  0  0  0  0
   -2.4231    3.7301    9.6488 C   0  0  0  0  0  0  0  0  0  0  0  0
    4.5307    1.8543   18.7869 O   0  0  0  0  0  0  0  0  0  0  0  0
    5.7247    5.2286   20.6037 C   0  0  0  0  0  0  0  0  0  0  0  0
    5.2949    4.0484   19.9785 C   0  0  0  0  0  0  0  0  0  0  0  0
    4.7279    3.0610   20.7596 C   0  0  0  0  0  0  0  0  0  0  0  0
    4.3228    1.8730   20.0919 C   0  0  0  0  0  0  0  0  0  0  0  0
    3.7799    0.9093   20.8985 C   0  0  0  0  0  0  0  0  0  0  0  0
    3.6561    1.1194   22.2602 C   0  0  0  0  0  0  0  0  0  0  0  0
    4.0501    2.2513   22.8519 N   0  0  0  0  0  0  0  0  0  0  0  0
    4.5845    3.2215   22.1137 C   0  0  0  0  0  0  0  0  0  0  0  0
    5.0205    4.4057   22.7182 C   0  0  0  0  0  0  0  0  0  0  0  0
    5.5905    5.4152   21.9796 C   0  0  0  0  0  0  0  0  0  0  0  0
    5.7968    6.5050   18.5632 C   0  0  0  0  0  0  0  0  0  0  0  0
    6.2968    6.2406   19.8583 O   0  0  0  0  0  0  0  0  0  0  0  0
    6.0354    6.5854   22.4833 O   0  0  0  0  0  0  0  0  0  0  0  0
    7.2831    7.0385   22.8372 C   0  0  0  0  0  0  0  0  0  0  0  0
    7.3590    8.4143   23.4448 C   0  0  0  0  0  0  0  0  0  0  0  0
    6.2270    9.2327   22.8529 C   0  0  0  0  0  0  0  0  0  0  0  0
    6.6383   10.4059   22.2081 N   0  0  0  0  0  0  0  0  0  0  0  0
    6.7386   10.4119   20.8079 C   0  0  0  0  0  0  0  0  0  0  0  0
    7.1097   11.7116   20.1981 C   0  0  0  0  0  0  0  0  0  0  0  0
    6.9629   12.9025   21.0860 C   0  0  0  0  0  0  0  0  0  0  0  0
    7.2775   12.6553   22.5280 C   0  0  0  0  0  0  0  0  0  0  0  0
    7.6465   11.2121   22.8080 C   0  0  0  0  0  0  0  0  0  0  0  0
 37 38  1  0  0  0
 38 27  1  0  0  0
 27 28  2  0  0  0
 28 29  1  0  0  0
 29 30  2  0  0  0
 30 26  1  0  0  0
 26  1  1  0  0  0
  1  2  2  0  0  0
  2  3  1  0  0  0
  3  4  2  0  0  0
  4  8  1  0  0  0
  8  9  1  0  0  0
  9 10  2  0  0  0
  9 12  1  0  0  0
 12 13  1  0  0  0
 13 14  1  0  0  0
 12 15  1  0  0  0
 15 16  2  0  0  0
 15 17  1  0  0  0
 17 19  1  0  0  0
 19 20  2  0  0  0
 20 21  1  0  0  0
 21 22  2  0  0  0
 22 23  1  0  0  0
 22 24  1  0  0  0
 24 25  2  0  0  0
  4  5  1  0  0  0
  5  6  2  0  0  0
  6  7  1  0  0  0
 30 31  1  0  0  0
 31 32  2  0  0  0
 32 33  1  0  0  0
 33 34  2  0  0  0
 34 35  1  0  0  0
 35 36  2  0  0  0
 36 39  1  0  0  0
 39 40  1  0  0  0
 40 41  1  0  0  0
 41 42  1  0  0  0
 42 43  1  0  0  0
 43 44  1  0  0  0
 44 45  1  0  0  0
 45 46  1  0  0  0
 46 47  1  0  0  0
 47 48  1  0  0  0
 36 27  1  0  0  0
 48 43  1  0  0  0
 34 29  1  0  0  0
  6  1  1  0  0  0
 14 12  1  0  0  0
 25 19  1  0  0  0
  8 11  1  0  0  0
 17 18  1  0  0  0
M  END
> <minimizedAffinity>
-8.45064

> <CNNscore>
0.3315638602

> <CNNaffinity>
6.9097871780

> <CNN_VS>
2.2910356522

> <CNNaffinity_variance>
0.1567459702

$$$$
[H]c1nc2c([H])c(OC([H])([H])C([H])([H])C([H])([H])N3C([H])([H])C([H])([H])C([H])([H])C([H])([H])C3([H])[H])c(OC([H])([H])[H])c([H])c2c(Oc2c([H])c([H])c(N([H])C(=O)C3(C(=O)N([H])c4c([H])c([H])c(F)c([H])c4[H])C([H])([H])C3([H])[H])c([H])c2F)c1[H]


 48 53  0  0  0  0  0  0  0  0999 V2000
    4.0694    1.7256   17.3196 C   0  0  0  0  0  0  0  0  0  0  0  0
    4.3792    2.8247   16.5525 C   0  0  0  0  0  0  0  0  0  0  0  0
    3.8768    3.0276   15.2656 C   0  0  0  0  0  0  0  0  0  0  0  0
    3.0223    2.1120   14.6864 C   0  0  0  0  0  0  0  0  0  0  0  0
    2.7040    1.0115   15.4379 C   0  0  0  0  0  0  0  0  0  0  0  0
    3.1914    0.8014   16.7017 C   0  0  0  0  0  0  0  0  0  0  0  0
    2.8433   -0.3090   17.3879 F   0  0  0  0  0  0  0  0  0  0  0  0
    2.4769    2.3682   13.3956 N   0  0  0  0  0  0  0  0  0  0  0  0
    1.6871    3.4486   13.0254 C   0  0  0  0  0  0  0  0  0  0  0  0
    1.3367    4.3152   13.8646 O   0  0  0  0  0  0  0  0  0  0  0  0
    2.6779    1.6045   12.6663 H   0  0  0  0  0  0  0  0  0  0  0  0
    1.2081    3.6301   11.6445 C   0  0  0  0  0  0  0  0  0  0  0  0
    2.2414    3.7126   10.5624 C   0  0  0  0  0  0  0  0  0  0  0  0
    1.4393    2.4974   10.6727 C   0  0  0  0  0  0  0  0  0  0  0  0
    0.0093    4.4746   11.4377 C   0  0  0  0  0  0  0  0  0  0  0  0
    0.1553    5.4868   10.6915 O   0  0  0  0  0  0  0  0  0  0  0  0
   -1.2255    4.1693   12.0252 N   0  0  0  0  0  0  0  0  0  0  0  0
   -1.2403    3.2295   12.5585 H   0  0  0  0  0  0  0  0  0  0  0  0
   -2.4245    4.8948   11.9426 C   0  0  0  0  0  0  0  0  0  0  0  0
   -2.7658    5.9485   12.7225 C   0  0  0  0  0  0  0  0  0  0  0  0
   -3.9715    6.6261   12.5862 C   0  0  0  0  0  0  0  0  0  0  0  0
   -4.8423    6.1960   11.6153 C   0  0  0  0  0  0  0  0  0  0  0  0
   -6.0609    6.7951   11.3991 F   0  0  0  0  0  0  0  0  0  0  0  0
   -4.5235    5.1333   10.8121 C   0  0  0  0  0  0  0  0  0  0  0  0
   -3.3310    4.4937   10.9755 C   0  0  0  0  0  0  0  0  0  0  0  0
    4.5131    1.4668   18.5498 O   0  0  0  0  0  0  0  0  0  0  0  0
    5.3740    5.0132   20.2215 C   0  0  0  0  0  0  0  0  0  0  0  0
    5.0597    3.7730   19.6457 C   0  0  0  0  0  0  0  0  0  0  0  0
    4.4477    2.8194   20.4348 C   0  0  0  0  0  0  0  0  0  0  0  0
    4.1628    1.5694   19.8200 C   0  0  0  0  0  0  0  0  0  0  0  0
    3.5711    0.6423   20.6352 C   0  0  0  0  0  0  0  0  0  0  0  0
    3.2911    0.9435   21.9561 C   0  0  0  0  0  0  0  0  0  0  0  0
    3.5754    2.1315   22.4985 N   0  0  0  0  0  0  0  0  0  0  0  0
    4.1509    3.0696   21.7498 C   0  0  0  0  0  0  0  0  0  0  0  0
    4.4735    4.3127   22.3054 C   0  0  0  0  0  0  0  0  0  0  0  0
    5.0830    5.2915   21.5571 C   0  0  0  0  0  0  0  0  0  0  0  0
    6.3708    5.6977   18.1393 C   0  0  0  0  0  0  0  0  0  0  0  0
    5.9862    5.9940   19.4665 O   0  0  0  0  0  0  0  0  0  0  0  0
    5.4260    6.5137   22.0149 O   0  0  0  0  0  0  0  0  0  0  0  0
    6.6361    7.1293   22.2249 C   0  0  0  0  0  0  0  0  0  0  0  0
    6.6894    8.6172   21.9991 C   0  0  0  0  0  0  0  0  0  0  0  0
    5.2596    9.1240   21.9875 C   0  0  0  0  0  0  0  0  0  0  0  0
    4.8742    9.7384   20.7894 N   0  0  0  0  0  0  0  0  0  0  0  0
    4.1914    8.9793   19.8259 C   0  0  0  0  0  0  0  0  0  0  0  0
    3.7550    9.7207   18.6182 C   0  0  0  0  0  0  0  0  0  0  0  0
    3.7588   11.2083   18.7418 C   0  0  0  0  0  0  0  0  0  0  0  0
    4.8626   11.7673   19.5836 C   0  0  0  0  0  0  0  0  0  0  0  0
    5.7432   10.6904   20.1854 C   0  0  0  0  0  0  0  0  0  0  0  0
 37 38  1  0  0  0
 38 27  1  0  0  0
 27 28  2  0  0  0
 28 29  1  0  0  0
 29 30  2  0  0  0
 30 26  1  0  0  0
 26  1  1  0  0  0
  1  2  2  0  0  0
  2  3  1  0  0  0
  3  4  2  0  0  0
  4  8  1  0  0  0
  8  9  1  0  0  0
  9 10  2  0  0  0
  9 12  1  0  0  0
 12 13  1  0  0  0
 13 14  1  0  0  0
 12 15  1  0  0  0
 15 16  2  0  0  0
 15 17  1  0  0  0
 17 19  1  0  0  0
 19 20  2  0  0  0
 20 21  1  0  0  0
 21 22  2  0  0  0
 22 23  1  0  0  0
 22 24  1  0  0  0
 24 25  2  0  0  0
  4  5  1  0  0  0
  5  6  2  0  0  0
  6  7  1  0  0  0
 30 31  1  0  0  0
 31 32  2  0  0  0
 32 33  1  0  0  0
 33 34  2  0  0  0
 34 35  1  0  0  0
 35 36  2  0  0  0
 36 39  1  0  0  0
 39 40  1  0  0  0
 40 41  1  0  0  0
 41 42  1  0  0  0
 42 43  1  0  0  0
 43 44  1  0  0  0
 44 45  1  0  0  0
 45 46  1  0  0  0
 46 47  1  0  0  0
 47 48  1  0  0  0
 36 27  1  0  0  0
 48 43  1  0  0  0
 34 29  1  0  0  0
  6  1  1  0  0  0
 14 12  1  0  0  0
 25 19  1  0  0  0
  8 11  1  0  0  0
 17 18  1  0  0  0
M  END
> <minimizedAffinity>
-10.17741

> <CNNscore>
0.3100017607

> <CNNaffinity>
7.1401000023

> <CNN_VS>
2.2134435177

> <CNNaffinity_variance>
0.2661286891

$$$$
[H]c1nc2c([H])c(OC([H])([H])C([H])([H])C([H])([H])N3C([H])([H])C([H])([H])C([H])([H])C([H])([H])C3([H])[H])c(OC([H])([H])[H])c([H])c2c(Oc2c([H])c([H])c(N([H])C(=O)C3(C(=O)N([H])c4c([H])c([H])c(F)c([H])c4[H])C([H])([H])C3([H])[H])c([H])c2F)c1[H]


 48 53  0  0  0  0  0  0  0  0999 V2000
    3.6513    2.0834   16.8189 C   0  0  0  0  0  0  0  0  0  0  0  0
    2.4592    1.8266   16.1823 C   0  0  0  0  0  0  0  0  0  0  0  0
    2.0424    2.5027   15.0338 C   0  0  0  0  0  0  0  0  0  0  0  0
    2.8269    3.4860   14.4668 C   0  0  0  0  0  0  0  0  0  0  0  0
    4.0177    3.7536   15.0894 C   0  0  0  0  0  0  0  0  0  0  0  0
    4.4370    3.0970   16.2172 C   0  0  0  0  0  0  0  0  0  0  0  0
    5.6206    3.4132   16.7866 F   0  0  0  0  0  0  0  0  0  0  0  0
    2.4079    4.1217   13.2629 N   0  0  0  0  0  0  0  0  0  0  0  0
    1.8849    5.4018   13.1363 C   0  0  0  0  0  0  0  0  0  0  0  0
    1.6904    6.1268   14.1434 O   0  0  0  0  0  0  0  0  0  0  0  0
    2.4736    3.5041   12.3855 H   0  0  0  0  0  0  0  0  0  0  0  0
    1.5187    5.9708   11.8281 C   0  0  0  0  0  0  0  0  0  0  0  0
    2.3407    7.1165   11.3209 C   0  0  0  0  0  0  0  0  0  0  0  0
    2.5053    5.8068   10.6965 C   0  0  0  0  0  0  0  0  0  0  0  0
    0.0804    6.0233   11.4791 C   0  0  0  0  0  0  0  0  0  0  0  0
   -0.2426    6.8058   10.5379 O   0  0  0  0  0  0  0  0  0  0  0  0
   -0.8749    5.2434   12.1442 N   0  0  0  0  0  0  0  0  0  0  0  0
   -0.4575    4.5490   12.8594 H   0  0  0  0  0  0  0  0  0  0  0  0
   -2.2637    5.2195   11.9413 C   0  0  0  0  0  0  0  0  0  0  0  0
   -2.9416    4.2921   11.2232 C   0  0  0  0  0  0  0  0  0  0  0  0
   -4.3217    4.3255   11.0634 C   0  0  0  0  0  0  0  0  0  0  0  0
   -5.0120    5.3490   11.6651 C   0  0  0  0  0  0  0  0  0  0  0  0
   -6.3778    5.4752   11.5677 F   0  0  0  0  0  0  0  0  0  0  0  0
   -4.3528    6.3005   12.3972 C   0  0  0  0  0  0  0  0  0  0  0  0
   -2.9980    6.2343   12.5318 C   0  0  0  0  0  0  0  0  0  0  0  0
    4.1097    1.4812   17.9165 O   0  0  0  0  0  0  0  0  0  0  0  0
    5.4341    4.3646   20.3751 C   0  0  0  0  0  0  0  0  0  0  0  0
    4.9581    3.3553   19.5246 C   0  0  0  0  0  0  0  0  0  0  0  0
    4.2659    2.2991   20.0829 C   0  0  0  0  0  0  0  0  0  0  0  0
    3.8167    1.2875   19.1905 C   0  0  0  0  0  0  0  0  0  0  0  0
    3.1486    0.2478   19.7795 C   0  0  0  0  0  0  0  0  0  0  0  0
    2.9502    0.2243   21.1484 C   0  0  0  0  0  0  0  0  0  0  0  0
    3.3891    1.1952   21.9553 N   0  0  0  0  0  0  0  0  0  0  0  0
    4.0446    2.2300   21.4343 C   0  0  0  0  0  0  0  0  0  0  0  0
    4.5286    3.2463   22.2655 C   0  0  0  0  0  0  0  0  0  0  0  0
    5.2225    4.3165   21.7531 C   0  0  0  0  0  0  0  0  0  0  0  0
    5.6359    6.0829   18.7005 C   0  0  0  0  0  0  0  0  0  0  0  0
    6.1308    5.4382   19.8566 O   0  0  0  0  0  0  0  0  0  0  0  0
    5.7210    5.3360   22.4833 O   0  0  0  0  0  0  0  0  0  0  0  0
    5.6407    6.7020   22.3613 C   0  0  0  0  0  0  0  0  0  0  0  0
    6.8861    7.4866   22.6790 C   0  0  0  0  0  0  0  0  0  0  0  0
    6.4957    8.9516   22.7333 C   0  0  0  0  0  0  0  0  0  0  0  0
    7.4879    9.8309   22.2820 N   0  0  0  0  0  0  0  0  0  0  0  0
    8.8129    9.3747   22.1986 C   0  0  0  0  0  0  0  0  0  0  0  0
    9.7896   10.3426   21.6436 C   0  0  0  0  0  0  0  0  0  0  0  0
    9.1993   11.5035   20.9141 C   0  0  0  0  0  0  0  0  0  0  0  0
    7.9076   12.0090   21.4756 C   0  0  0  0  0  0  0  0  0  0  0  0
    7.4296   11.2006   22.6653 C   0  0  0  0  0  0  0  0  0  0  0  0
 37 38  1  0  0  0
 38 27  1  0  0  0
 27 28  2  0  0  0
 28 29  1  0  0  0
 29 30  2  0  0  0
 30 26  1  0  0  0
 26  1  1  0  0  0
  1  2  2  0  0  0
  2  3  1  0  0  0
  3  4  2  0  0  0
  4  8  1  0  0  0
  8  9  1  0  0  0
  9 10  2  0  0  0
  9 12  1  0  0  0
 12 13  1  0  0  0
 13 14  1  0  0  0
 12 15  1  0  0  0
 15 16  2  0  0  0
 15 17  1  0  0  0
 17 19  1  0  0  0
 19 20  2  0  0  0
 20 21  1  0  0  0
 21 22  2  0  0  0
 22 23  1  0  0  0
 22 24  1  0  0  0
 24 25  2  0  0  0
  4  5  1  0  0  0
  5  6  2  0  0  0
  6  7  1  0  0  0
 30 31  1  0  0  0
 31 32  2  0  0  0
 32 33  1  0  0  0
 33 34  2  0  0  0
 34 35  1  0  0  0
 35 36  2  0  0  0
 36 39  1  0  0  0
 39 40  1  0  0  0
 40 41  1  0  0  0
 41 42  1  0  0  0
 42 43  1  0  0  0
 43 44  1  0  0  0
 44 45  1  0  0  0
 45 46  1  0  0  0
 46 47  1  0  0  0
 47 48  1  0  0  0
 36 27  1  0  0  0
 48 43  1  0  0  0
 34 29  1  0  0  0
  6  1  1  0  0  0
 14 12  1  0  0  0
 25 19  1  0  0  0
  8 11  1  0  0  0
 17 18  1  0  0  0
M  END
> <minimizedAffinity>
-8.89786

> <CNNscore>
0.2425338775

> <CNNaffinity>
7.0516343117

> <CNN_VS>
1.7102601528

> <CNNaffinity_variance>
0.1631592512

$$$$
[H]c1nc2c([H])c(OC([H])([H])C([H])([H])C([H])([H])N3C([H])([H])C([H])([H])C([H])([H])C([H])([H])C3([H])[H])c(OC([H])([H])[H])c([H])c2c(Oc2c([H])c([H])c(N([H])C(=O)C3(C(=O)N([H])c4c([H])c([H])c(F)c([H])c4[H])C([H])([H])C3([H])[H])c([H])c2F)c1[H]


 48 53  0  0  0  0  0  0  0  0999 V2000
    3.1016    5.8869   13.0148 C   0  0  0  0  0  0  0  0  0  0  0  0
    2.2084    6.9182   12.8381 C   0  0  0  0  0  0  0  0  0  0  0  0
    2.2079    7.7479   11.7150 C   0  0  0  0  0  0  0  0  0  0  0  0
    3.1267    7.5684   10.7014 C   0  0  0  0  0  0  0  0  0  0  0  0
    4.0235    6.5451   10.8626 C   0  0  0  0  0  0  0  0  0  0  0  0
    4.0339    5.7247   11.9606 C   0  0  0  0  0  0  0  0  0  0  0  0
    4.9499    4.7368   12.0615 F   0  0  0  0  0  0  0  0  0  0  0  0
    3.0705    8.3900    9.5391 N   0  0  0  0  0  0  0  0  0  0  0  0
    2.3936    8.1158    8.3581 C   0  0  0  0  0  0  0  0  0  0  0  0
    1.7745    7.0343    8.2001 O   0  0  0  0  0  0  0  0  0  0  0  0
    3.6605    9.2867    9.5973 H   0  0  0  0  0  0  0  0  0  0  0  0
    2.3755    9.0621    7.2297 C   0  0  0  0  0  0  0  0  0  0  0  0
    1.0473    9.3638    6.6050 C   0  0  0  0  0  0  0  0  0  0  0  0
    1.6756   10.3837    7.4401 C   0  0  0  0  0  0  0  0  0  0  0  0
    3.5221    9.0371    6.2926 C   0  0  0  0  0  0  0  0  0  0  0  0
    3.2551    8.7773    5.0827 O   0  0  0  0  0  0  0  0  0  0  0  0
    4.8328    9.2965    6.7145 N   0  0  0  0  0  0  0  0  0  0  0  0
    4.9119    9.5984    7.7492 H   0  0  0  0  0  0  0  0  0  0  0  0
    6.0080    9.2727    5.9471 C   0  0  0  0  0  0  0  0  0  0  0  0
    6.5801   10.3425    5.3444 C   0  0  0  0  0  0  0  0  0  0  0  0
    7.7493   10.2499    4.5988 C   0  0  0  0  0  0  0  0  0  0  0  0
    8.3361    9.0142    4.4776 C   0  0  0  0  0  0  0  0  0  0  0  0
    9.4924    8.8135    3.7611 F   0  0  0  0  0  0  0  0  0  0  0  0
    7.7799    7.9151    5.0764 C   0  0  0  0  0  0  0  0  0  0  0  0
    6.6322    8.0452    5.8002 C   0  0  0  0  0  0  0  0  0  0  0  0
    3.1617    5.0602   14.0589 O   0  0  0  0  0  0  0  0  0  0  0  0
    4.6411    4.0029   17.6375 C   0  0  0  0  0  0  0  0  0  0  0  0
    4.1112    4.3635   16.3895 C   0  0  0  0  0  0  0  0  0  0  0  0
    3.4082    3.4133   15.6756 C   0  0  0  0  0  0  0  0  0  0  0  0
    2.9037    3.8118   14.4076 C   0  0  0  0  0  0  0  0  0  0  0  0
    2.2262    2.8407   13.7203 C   0  0  0  0  0  0  0  0  0  0  0  0
    2.0704    1.5762   14.2593 C   0  0  0  0  0  0  0  0  0  0  0  0
    2.5609    1.2391   15.4561 N   0  0  0  0  0  0  0  0  0  0  0  0
    3.2277    2.1459   16.1667 C   0  0  0  0  0  0  0  0  0  0  0  0
    3.7652    1.8058   17.4131 C   0  0  0  0  0  0  0  0  0  0  0  0
    4.4718    2.7198   18.1581 C   0  0  0  0  0  0  0  0  0  0  0  0
    6.2744    5.7697   17.7291 C   0  0  0  0  0  0  0  0  0  0  0  0
    5.3503    4.9238   18.3830 O   0  0  0  0  0  0  0  0  0  0  0  0
    5.0206    2.4737   19.3661 O   0  0  0  0  0  0  0  0  0  0  0  0
    5.2297    1.3200   20.0821 C   0  0  0  0  0  0  0  0  0  0  0  0
    5.7959    1.4744   21.4689 C   0  0  0  0  0  0  0  0  0  0  0  0
    4.9040    2.4487   22.2151 C   0  0  0  0  0  0  0  0  0  0  0  0
    5.3239    3.7831   22.1491 N   0  0  0  0  0  0  0  0  0  0  0  0
    6.6889    4.0739   22.3004 C   0  0  0  0  0  0  0  0  0  0  0  0
    7.0606    5.5010   22.1453 C   0  0  0  0  0  0  0  0  0  0  0  0
    6.0323    6.3650   21.4939 C   0  0  0  0  0  0  0  0  0  0  0  0
    4.6151    6.0097   21.8172 C   0  0  0  0  0  0  0  0  0  0  0  0
    4.5065    4.7982   22.7215 C   0  0  0  0  0  0  0  0  0  0  0  0
 37 38  1  0  0  0
 38 27  1  0  0  0
 27 28  2  0  0  0
 28 29  1  0  0  0
 29 30  2  0  0  0
 30 26  1  0  0  0
 26  1  1  0  0  0
  1  2  2  0  0  0
  2  3  1  0  0  0
  3  4  2  0  0  0
  4  8  1  0  0  0
  8  9  1  0  0  0
  9 10  2  0  0  0
  9 12  1  0  0  0
 12 13  1  0  0  0
 13 14  1  0  0  0
 12 15  1  0  0  0
 15 16  2  0  0  0
 15 17  1  0  0  0
 17 19  1  0  0  0
 19 20  2  0  0  0
 20 21  1  0  0  0
 21 22  2  0  0  0
 22 23  1  0  0  0
 22 24  1  0  0  0
 24 25  2  0  0  0
  4  5  1  0  0  0
  5  6  2  0  0  0
  6  7  1  0  0  0
 30 31  1  0  0  0
 31 32  2  0  0  0
 32 33  1  0  0  0
 33 34  2  0  0  0
 34 35  1  0  0  0
 35 36  2  0  0  0
 36 39  1  0  0  0
 39 40  1  0  0  0
 40 41  1  0  0  0
 41 42  1  0  0  0
 42 43  1  0  0  0
 43 44  1  0  0  0
 44 45  1  0  0  0
 45 46  1  0  0  0
 46 47  1  0  0  0
 47 48  1  0  0  0
 36 27  1  0  0  0
 48 43  1  0  0  0
 34 29  1  0  0  0
  6  1  1  0  0  0
 14 12  1  0  0  0
 25 19  1  0  0  0
  8 11  1  0  0  0
 17 18  1  0  0  0
M  END
> <minimizedAffinity>
-8.54860

> <CNNscore>
0.2382795364

> <CNNaffinity>
6.6741132736

> <CNN_VS>
1.5903046131

> <CNNaffinity_variance>
0.2475316525

$$$$
[H]c1nc2c([H])c(OC([H])([H])C([H])([H])C([H])([H])N3C([H])([H])C([H])([H])C([H])([H])C([H])([H])C3([H])[H])c(OC([H])([H])[H])c([H])c2c(Oc2c([H])c([H])c(N([H])C(=O)C3(C(=O)N([H])c4c([H])c([H])c(F)c([H])c4[H])C([H])([H])C3([H])[H])c([H])c2F)c1[H]


 48 53  0  0  0  0  0  0  0  0999 V2000
    3.7597    2.3305   16.2305 C   0  0  0  0  0  0  0  0  0  0  0  0
    2.8691    1.4051   15.7378 C   0  0  0  0  0  0  0  0  0  0  0  0
    2.2213    1.5434   14.5086 C   0  0  0  0  0  0  0  0  0  0  0  0
    2.4498    2.6434   13.7074 C   0  0  0  0  0  0  0  0  0  0  0  0
    3.3345    3.5746   14.1843 C   0  0  0  0  0  0  0  0  0  0  0  0
    3.9758    3.4498   15.3893 C   0  0  0  0  0  0  0  0  0  0  0  0
    4.8327    4.4079   15.8050 F   0  0  0  0  0  0  0  0  0  0  0  0
    1.8219    2.7350   12.4321 N   0  0  0  0  0  0  0  0  0  0  0  0
    0.7728    3.5735   12.0794 C   0  0  0  0  0  0  0  0  0  0  0  0
    0.2363    4.3334   12.9236 O   0  0  0  0  0  0  0  0  0  0  0  0
    2.1907    2.0379   11.7017 H   0  0  0  0  0  0  0  0  0  0  0  0
    0.2256    3.6085   10.7125 C   0  0  0  0  0  0  0  0  0  0  0  0
    1.1968    3.7927    9.5863 C   0  0  0  0  0  0  0  0  0  0  0  0
    0.5967    2.4763    9.7845 C   0  0  0  0  0  0  0  0  0  0  0  0
   -1.0958    4.2479   10.5167 C   0  0  0  0  0  0  0  0  0  0  0  0
   -1.1921    5.0567    9.5476 O   0  0  0  0  0  0  0  0  0  0  0  0
   -2.1874    3.9690   11.3496 N   0  0  0  0  0  0  0  0  0  0  0  0
   -2.0005    3.1916   12.0768 H   0  0  0  0  0  0  0  0  0  0  0  0
   -3.4759    4.5240   11.3002 C   0  0  0  0  0  0  0  0  0  0  0  0
   -3.8290    5.7447   11.7694 C   0  0  0  0  0  0  0  0  0  0  0  0
   -5.1262    6.2363   11.6863 C   0  0  0  0  0  0  0  0  0  0  0  0
   -6.0781    5.4377   11.1013 C   0  0  0  0  0  0  0  0  0  0  0  0
   -7.3902    5.8279   10.9711 F   0  0  0  0  0  0  0  0  0  0  0  0
   -5.7496    4.1989   10.6180 C   0  0  0  0  0  0  0  0  0  0  0  0
   -4.4661    3.7509   10.7173 C   0  0  0  0  0  0  0  0  0  0  0  0
    4.4099    2.2648   17.3925 O   0  0  0  0  0  0  0  0  0  0  0  0
    5.2251    5.3734   19.7976 C   0  0  0  0  0  0  0  0  0  0  0  0
    4.9280    4.2829   18.9664 C   0  0  0  0  0  0  0  0  0  0  0  0
    4.4851    3.1133   19.5515 C   0  0  0  0  0  0  0  0  0  0  0  0
    4.2130    2.0256   18.6773 C   0  0  0  0  0  0  0  0  0  0  0  0
    3.7915    0.8772   19.2921 C   0  0  0  0  0  0  0  0  0  0  0  0
    3.6568    0.8246   20.6679 C   0  0  0  0  0  0  0  0  0  0  0  0
    3.9236    1.8697   21.4571 N   0  0  0  0  0  0  0  0  0  0  0  0
    4.3364    3.0111   20.9107 C   0  0  0  0  0  0  0  0  0  0  0  0
    4.6391    4.1100   21.7224 C   0  0  0  0  0  0  0  0  0  0  0  0
    5.0828    5.2940   21.1830 C   0  0  0  0  0  0  0  0  0  0  0  0
    6.8790    6.5687   18.5195 C   0  0  0  0  0  0  0  0  0  0  0  0
    5.6705    6.5612   19.2520 O   0  0  0  0  0  0  0  0  0  0  0  0
    5.3950    6.3982   21.8932 O   0  0  0  0  0  0  0  0  0  0  0  0
    6.5831    7.0330   22.1632 C   0  0  0  0  0  0  0  0  0  0  0  0
    6.6143    8.5262   21.9711 C   0  0  0  0  0  0  0  0  0  0  0  0
    5.1772    8.9957   21.8450 C   0  0  0  0  0  0  0  0  0  0  0  0
    4.9468    9.8696   20.7752 N   0  0  0  0  0  0  0  0  0  0  0  0
    4.1138    9.4526   19.7249 C   0  0  0  0  0  0  0  0  0  0  0  0
    3.8626   10.4616   18.6677 C   0  0  0  0  0  0  0  0  0  0  0  0
    4.2035   11.8691   19.0297 C   0  0  0  0  0  0  0  0  0  0  0  0
    5.4016   12.0194   19.9136 C   0  0  0  0  0  0  0  0  0  0  0  0
    6.0120   10.6882   20.3044 C   0  0  0  0  0  0  0  0  0  0  0  0
 37 38  1  0  0  0
 38 27  1  0  0  0
 27 28  2  0  0  0
 28 29  1  0  0  0
 29 30  2  0  0  0
 30 26  1  0  0  0
 26  1  1  0  0  0
  1  2  2  0  0  0
  2  3  1  0  0  0
  3  4  2  0  0  0
  4  8  1  0  0  0
  8  9  1  0  0  0
  9 10  2  0  0  0
  9 12  1  0  0  0
 12 13  1  0  0  0
 13 14  1  0  0  0
 12 15  1  0  0  0
 15 16  2  0  0  0
 15 17  1  0  0  0
 17 19  1  0  0  0
 19 20  2  0  0  0
 20 21  1  0  0  0
 21 22  2  0  0  0
 22 23  1  0  0  0
 22 24  1  0  0  0
 24 25  2  0  0  0
  4  5  1  0  0  0
  5  6  2  0  0  0
  6  7  1  0  0  0
 30 31  1  0  0  0
 31 32  2  0  0  0
 32 33  1  0  0  0
 33 34  2  0  0  0
 34 35  1  0  0  0
 35 36  2  0  0  0
 36 39  1  0  0  0
 39 40  1  0  0  0
 40 41  1  0  0  0
 41 42  1  0  0  0
 42 43  1  0  0  0
 43 44  1  0  0  0
 44 45  1  0  0  0
 45 46  1  0  0  0
 46 47  1  0  0  0
 47 48  1  0  0  0
 36 27  1  0  0  0
 48 43  1  0  0  0
 34 29  1  0  0  0
  6  1  1  0  0  0
 14 12  1  0  0  0
 25 19  1  0  0  0
  8 11  1  0  0  0
 17 18  1  0  0  0
M  END
> <minimizedAffinity>
-9.76847

> <CNNscore>
0.1772156507

> <CNNaffinity>
6.7344145775

> <CNN_VS>
1.1934436560

> <CNNaffinity_variance>
0.3272572160

$$$$
[H]c1nc2c([H])c(OC([H])([H])C([H])([H])C([H])([H])N3C([H])([H])C([H])([H])C([H])([H])C([H])([H])C3([H])[H])c(OC([H])([H])[H])c([H])c2c(Oc2c([H])c([H])c(N([H])C(=O)C3(C(=O)N([H])c4c([H])c([H])c(F)c([H])c4[H])C([H])([H])C3([H])[H])c([H])c2F)c1[H]


 48 53  0  0  0  0  0  0  0  0999 V2000
    3.7092    2.0611   16.9975 C   0  0  0  0  0  0  0  0  0  0  0  0
    2.5216    1.6543   16.4347 C   0  0  0  0  0  0  0  0  0  0  0  0
    2.0046    2.1995   15.2578 C   0  0  0  0  0  0  0  0  0  0  0  0
    2.6778    3.1981   14.5844 C   0  0  0  0  0  0  0  0  0  0  0  0
    3.8625    3.6145   15.1324 C   0  0  0  0  0  0  0  0  0  0  0  0
    4.3795    3.0872   16.2871 C   0  0  0  0  0  0  0  0  0  0  0  0
    5.5508    3.5471   16.7788 F   0  0  0  0  0  0  0  0  0  0  0  0
    2.1600    3.6987   13.3554 N   0  0  0  0  0  0  0  0  0  0  0  0
    1.7349    4.9953   13.0981 C   0  0  0  0  0  0  0  0  0  0  0  0
    1.7358    5.8703   13.9994 O   0  0  0  0  0  0  0  0  0  0  0  0
    2.0580    2.9609   12.5803 H   0  0  0  0  0  0  0  0  0  0  0  0
    1.2501    5.4102   11.7707 C   0  0  0  0  0  0  0  0  0  0  0  0
    1.7235    6.7319   11.2467 C   0  0  0  0  0  0  0  0  0  0  0  0
    2.2664    5.5107   10.6582 C   0  0  0  0  0  0  0  0  0  0  0  0
   -0.1362    5.0444   11.3995 C   0  0  0  0  0  0  0  0  0  0  0  0
   -0.3536    3.8180   11.1729 O   0  0  0  0  0  0  0  0  0  0  0  0
   -1.1587    5.9983   11.3124 N   0  0  0  0  0  0  0  0  0  0  0  0
   -0.8644    6.9906   11.6231 H   0  0  0  0  0  0  0  0  0  0  0  0
   -2.4977    5.7980   10.9414 C   0  0  0  0  0  0  0  0  0  0  0  0
   -2.9504    5.6301    9.6757 C   0  0  0  0  0  0  0  0  0  0  0  0
   -4.2932    5.4329    9.3768 C   0  0  0  0  0  0  0  0  0  0  0  0
   -5.1856    5.4106   10.4204 C   0  0  0  0  0  0  0  0  0  0  0  0
   -6.5351    5.2244   10.2335 F   0  0  0  0  0  0  0  0  0  0  0  0
   -4.7562    5.5775   11.7103 C   0  0  0  0  0  0  0  0  0  0  0  0
   -3.4307    5.7683   11.9643 C   0  0  0  0  0  0  0  0  0  0  0  0
    4.2593    1.5888   18.1162 O   0  0  0  0  0  0  0  0  0  0  0  0
    5.5914    4.4412   20.6066 C   0  0  0  0  0  0  0  0  0  0  0  0
    5.1129    3.4424   19.7452 C   0  0  0  0  0  0  0  0  0  0  0  0
    4.4404    2.3689   20.2946 C   0  0  0  0  0  0  0  0  0  0  0  0
    3.9880    1.3690   19.3909 C   0  0  0  0  0  0  0  0  0  0  0  0
    3.3399    0.3117   19.9709 C   0  0  0  0  0  0  0  0  0  0  0  0
    3.1629    0.2614   21.3420 C   0  0  0  0  0  0  0  0  0  0  0  0
    3.6041    1.2221   22.1597 N   0  0  0  0  0  0  0  0  0  0  0  0
    4.2407    2.2730   21.6477 C   0  0  0  0  0  0  0  0  0  0  0  0
    4.7269    3.2792   22.4899 C   0  0  0  0  0  0  0  0  0  0  0  0
    5.4017    4.3658   21.9866 C   0  0  0  0  0  0  0  0  0  0  0  0
    5.8376    6.0974   18.8763 C   0  0  0  0  0  0  0  0  0  0  0  0
    6.2689    5.5313   20.0972 O   0  0  0  0  0  0  0  0  0  0  0  0
    5.9008    5.3773   22.7276 O   0  0  0  0  0  0  0  0  0  0  0  0
    6.2259    6.6798   22.4361 C   0  0  0  0  0  0  0  0  0  0  0  0
    7.5683    7.1678   22.9130 C   0  0  0  0  0  0  0  0  0  0  0  0
    8.5913    6.1110   22.5418 C   0  0  0  0  0  0  0  0  0  0  0  0
    9.7922    6.1928   23.2577 N   0  0  0  0  0  0  0  0  0  0  0  0
   10.8873    5.4214   22.8375 C   0  0  0  0  0  0  0  0  0  0  0  0
   12.1414    5.6194   23.6035 C   0  0  0  0  0  0  0  0  0  0  0  0
   12.1893    6.8477   24.4504 C   0  0  0  0  0  0  0  0  0  0  0  0
   10.8843    7.2351   25.0719 C   0  0  0  0  0  0  0  0  0  0  0  0
    9.7496    6.3117   24.6756 C   0  0  0  0  0  0  0  0  0  0  0  0
 37 38  1  0  0  0
 38 27  1  0  0  0
 27 28  2  0  0  0
 28 29  1  0  0  0
 29 30  2  0  0  0
 30 26  1  0  0  0
 26  1  1  0  0  0
  1  2  2  0  0  0
  2  3  1  0  0  0
  3  4  2  0  0  0
  4  8  1  0  0  0
  8  9  1  0  0  0
  9 10  2  0  0  0
  9 12  1  0  0  0
 12 13  1  0  0  0
 13 14  1  0  0  0
 12 15  1  0  0  0
 15 16  2  0  0  0
 15 17  1  0  0  0
 17 19  1  0  0  0
 19 20  2  0  0  0
 20 21  1  0  0  0
 21 22  2  0  0  0
 22 23  1  0  0  0
 22 24  1  0  0  0
 24 25  2  0  0  0
  4  5  1  0  0  0
  5  6  2  0  0  0
  6  7  1  0  0  0
 30 31  1  0  0  0
 31 32  2  0  0  0
 32 33  1  0  0  0
 33 34  2  0  0  0
 34 35  1  0  0  0
 35 36  2  0  0  0
 36 39  1  0  0  0
 39 40  1  0  0  0
 40 41  1  0  0  0
 41 42  1  0  0  0
 42 43  1  0  0  0
 43 44  1  0  0  0
 44 45  1  0  0  0
 45 46  1  0  0  0
 46 47  1  0  0  0
 47 48  1  0  0  0
 36 27  1  0  0  0
 48 43  1  0  0  0
 34 29  1  0  0  0
  6  1  1  0  0  0
 14 12  1  0  0  0
 25 19  1  0  0  0
  8 11  1  0  0  0
 17 18  1  0  0  0
M  END
> <minimizedAffinity>
-8.90432

> <CNNscore>
0.1557956636

> <CNNaffinity>
6.8525819778

> <CNN_VS>
1.0676025152

> <CNNaffinity_variance>
0.2326619327

$$$$
[H]c1nc2c([H])c(OC([H])([H])C([H])([H])C([H])([H])N3C([H])([H])C([H])([H])C([H])([H])C([H])([H])C3([H])[H])c(OC([H])([H])[H])c([H])c2c(Oc2c([H])c([H])c(N([H])C(=O)C3(C(=O)N([H])c4c([H])c([H])c(F)c([H])c4[H])C([H])([H])C3([H])[H])c([H])c2F)c1[H]


 48 53  0  0  0  0  0  0  0  0999 V2000
    3.6831    2.3163   16.5776 C   0  0  0  0  0  0  0  0  0  0  0  0
    3.9926    3.5633   16.0862 C   0  0  0  0  0  0  0  0  0  0  0  0
    3.3710    4.1225   14.9678 C   0  0  0  0  0  0  0  0  0  0  0  0
    2.3902    3.4335   14.2841 C   0  0  0  0  0  0  0  0  0  0  0  0
    2.0706    2.1895   14.7613 C   0  0  0  0  0  0  0  0  0  0  0  0
    2.6741    1.6303   15.8576 C   0  0  0  0  0  0  0  0  0  0  0  0
    2.3171    0.3956   16.2734 F   0  0  0  0  0  0  0  0  0  0  0  0
    1.7299    4.0470   13.1811 N   0  0  0  0  0  0  0  0  0  0  0  0
    1.0017    5.2292   13.1999 C   0  0  0  0  0  0  0  0  0  0  0  0
    0.8237    5.8658   14.2681 O   0  0  0  0  0  0  0  0  0  0  0  0
    1.7812    3.4893   12.2636 H   0  0  0  0  0  0  0  0  0  0  0  0
    0.3906    5.7903   11.9830 C   0  0  0  0  0  0  0  0  0  0  0  0
    0.4919    7.2718   11.7818 C   0  0  0  0  0  0  0  0  0  0  0  0
    1.3161    6.3953   10.9543 C   0  0  0  0  0  0  0  0  0  0  0  0
   -0.8634    5.1717   11.4950 C   0  0  0  0  0  0  0  0  0  0  0  0
   -0.7913    3.9595   11.1374 O   0  0  0  0  0  0  0  0  0  0  0  0
   -2.0700    5.8817   11.4395 N   0  0  0  0  0  0  0  0  0  0  0  0
   -2.0177    6.8748   11.8624 H   0  0  0  0  0  0  0  0  0  0  0  0
   -3.3151    5.4339   10.9705 C   0  0  0  0  0  0  0  0  0  0  0  0
   -3.6477    5.2416    9.6715 C   0  0  0  0  0  0  0  0  0  0  0  0
   -4.9014    4.7925    9.2744 C   0  0  0  0  0  0  0  0  0  0  0  0
   -5.8308    4.5382   10.2529 C   0  0  0  0  0  0  0  0  0  0  0  0
   -7.1000    4.0928    9.9674 F   0  0  0  0  0  0  0  0  0  0  0  0
   -5.5222    4.7236   11.5744 C   0  0  0  0  0  0  0  0  0  0  0  0
   -4.2814    5.1652   11.9255 C   0  0  0  0  0  0  0  0  0  0  0  0
    4.2359    1.7210   17.6346 O   0  0  0  0  0  0  0  0  0  0  0  0
    5.4716    4.7749   19.9280 C   0  0  0  0  0  0  0  0  0  0  0  0
    5.0275    3.7051   19.1363 C   0  0  0  0  0  0  0  0  0  0  0  0
    4.4763    2.6070   19.7663 C   0  0  0  0  0  0  0  0  0  0  0  0
    4.0559    1.5362   18.9308 C   0  0  0  0  0  0  0  0  0  0  0  0
    3.5295    0.4575   19.5893 C   0  0  0  0  0  0  0  0  0  0  0  0
    3.4351    0.4531   20.9694 C   0  0  0  0  0  0  0  0  0  0  0  0
    3.8427    1.4802   21.7213 N   0  0  0  0  0  0  0  0  0  0  0  0
    4.3621    2.5546   21.1317 C   0  0  0  0  0  0  0  0  0  0  0  0
    4.8121    3.6316   21.9035 C   0  0  0  0  0  0  0  0  0  0  0  0
    5.3671    4.7450   21.3187 C   0  0  0  0  0  0  0  0  0  0  0  0
    6.3893    5.8370   17.9717 C   0  0  0  0  0  0  0  0  0  0  0  0
    6.0286    5.8917   19.3370 O   0  0  0  0  0  0  0  0  0  0  0  0
    5.8237    5.8238   21.9887 O   0  0  0  0  0  0  0  0  0  0  0  0
    7.0582    6.1632   22.4869 C   0  0  0  0  0  0  0  0  0  0  0  0
    7.7438    7.3458   21.8552 C   0  0  0  0  0  0  0  0  0  0  0  0
    7.0982    8.5971   22.4198 C   0  0  0  0  0  0  0  0  0  0  0  0
    6.2902    9.2908   21.5103 N   0  0  0  0  0  0  0  0  0  0  0  0
    6.5279   10.6577   21.2960 C   0  0  0  0  0  0  0  0  0  0  0  0
    5.6777   11.3016   20.2658 C   0  0  0  0  0  0  0  0  0  0  0  0
    4.9627   10.3668   19.3476 C   0  0  0  0  0  0  0  0  0  0  0  0
    4.5042    9.0906   19.9804 C   0  0  0  0  0  0  0  0  0  0  0  0
    4.9020    8.9841   21.4391 C   0  0  0  0  0  0  0  0  0  0  0  0
 37 38  1  0  0  0
 38 27  1  0  0  0
 27 28  2  0  0  0
 28 29  1  0  0  0
 29 30  2  0  0  0
 30 26  1  0  0  0
 26  1  1  0  0  0
  1  2  2  0  0  0
  2  3  1  0  0  0
  3  4  2  0  0  0
  4  8  1  0  0  0
  8  9  1  0  0  0
  9 10  2  0  0  0
  9 12  1  0  0  0
 12 13  1  0  0  0
 13 14  1  0  0  0
 12 15  1  0  0  0
 15 16  2  0  0  0
 15 17  1  0  0  0
 17 19  1  0  0  0
 19 20  2  0  0  0
 20 21  1  0  0  0
 21 22  2  0  0  0
 22 23  1  0  0  0
 22 24  1  0  0  0
 24 25  2  0  0  0
  4  5  1  0  0  0
  5  6  2  0  0  0
  6  7  1  0  0  0
 30 31  1  0  0  0
 31 32  2  0  0  0
 32 33  1  0  0  0
 33 34  2  0  0  0
 34 35  1  0  0  0
 35 36  2  0  0  0
 36 39  1  0  0  0
 39 40  1  0  0  0
 40 41  1  0  0  0
 41 42  1  0  0  0
 42 43  1  0  0  0
 43 44  1  0  0  0
 44 45  1  0  0  0
 45 46  1  0  0  0
 46 47  1  0  0  0
 47 48  1  0  0  0
 36 27  1  0  0  0
 48 43  1  0  0  0
 34 29  1  0  0  0
  6  1  1  0  0  0
 14 12  1  0  0  0
 25 19  1  0  0  0
  8 11  1  0  0  0
 17 18  1  0  0  0
M  END
> <minimizedAffinity>
-9.48514

> <CNNscore>
0.1462586820

> <CNNaffinity>
6.8393182755

> <CNN_VS>
1.0003097057

> <CNNaffinity_variance>
0.2800942957

$$$$
[H]c1nc2c([H])c(OC([H])([H])C([H])([H])C([H])([H])N3C([H])([H])C([H])([H])C([H])([H])C([H])([H])C3([H])[H])c(OC([H])([H])[H])c([H])c2c(Oc2c([H])c([H])c(N([H])C(=O)C3(C(=O)N([H])c4c([H])c([H])c(F)c([H])c4[H])C([H])([H])C3([H])[H])c([H])c2F)c1[H]


 48 53  0  0  0  0  0  0  0  0999 V2000
    2.9768    2.7947   15.2903 C   0  0  0  0  0  0  0  0  0  0  0  0
    2.1798    1.8490   14.6880 C   0  0  0  0  0  0  0  0  0  0  0  0
    1.3953    2.1114   13.5631 C   0  0  0  0  0  0  0  0  0  0  0  0
    1.3818    3.3645   12.9858 C   0  0  0  0  0  0  0  0  0  0  0  0
    2.1705    4.3179   13.5742 C   0  0  0  0  0  0  0  0  0  0  0  0
    2.9442    4.0721   14.6786 C   0  0  0  0  0  0  0  0  0  0  0  0
    3.6954    5.0587   15.2148 F   0  0  0  0  0  0  0  0  0  0  0  0
    0.6186    3.5935   11.8050 N   0  0  0  0  0  0  0  0  0  0  0  0
   -0.5468    4.3411   11.6993 C   0  0  0  0  0  0  0  0  0  0  0  0
   -1.0725    4.8713   12.7095 O   0  0  0  0  0  0  0  0  0  0  0  0
    0.9835    3.0841   10.9316 H   0  0  0  0  0  0  0  0  0  0  0  0
   -1.2335    4.5406   10.4117 C   0  0  0  0  0  0  0  0  0  0  0  0
   -1.8495    5.8834   10.1606 C   0  0  0  0  0  0  0  0  0  0  0  0
   -0.6269    5.5295    9.4448 C   0  0  0  0  0  0  0  0  0  0  0  0
   -1.9721    3.3910    9.8407 C   0  0  0  0  0  0  0  0  0  0  0  0
   -1.2896    2.5568    9.1767 O   0  0  0  0  0  0  0  0  0  0  0  0
   -3.3503    3.2245   10.0305 N   0  0  0  0  0  0  0  0  0  0  0  0
   -3.7955    3.9517   10.6945 H   0  0  0  0  0  0  0  0  0  0  0  0
   -4.1760    2.2095    9.5219 C   0  0  0  0  0  0  0  0  0  0  0  0
   -4.0491    0.8853    9.7776 C   0  0  0  0  0  0  0  0  0  0  0  0
   -4.9050   -0.0698    9.2422 C   0  0  0  0  0  0  0  0  0  0  0  0
   -5.9163    0.3643    8.4207 C   0  0  0  0  0  0  0  0  0  0  0  0
   -6.8156   -0.4977    7.8386 F   0  0  0  0  0  0  0  0  0  0  0  0
   -6.0686    1.6972    8.1448 C   0  0  0  0  0  0  0  0  0  0  0  0
   -5.2093    2.6047    8.6889 C   0  0  0  0  0  0  0  0  0  0  0  0
    3.7465    2.6157   16.3640 O   0  0  0  0  0  0  0  0  0  0  0  0
    5.3148    4.8564   19.3020 C   0  0  0  0  0  0  0  0  0  0  0  0
    4.7559    4.0675   18.2853 C   0  0  0  0  0  0  0  0  0  0  0  0
    4.2914    2.8088   18.6118 C   0  0  0  0  0  0  0  0  0  0  0  0
    3.7498    2.0333   17.5504 C   0  0  0  0  0  0  0  0  0  0  0  0
    3.3138    0.7853   17.9062 C   0  0  0  0  0  0  0  0  0  0  0  0
    3.4150    0.3517   19.2160 C   0  0  0  0  0  0  0  0  0  0  0  0
    3.9318    1.1110   20.1870 N   0  0  0  0  0  0  0  0  0  0  0  0
    4.3704    2.3335   19.8954 C   0  0  0  0  0  0  0  0  0  0  0  0
    4.9324    3.1356   20.8949 C   0  0  0  0  0  0  0  0  0  0  0  0
    5.4073    4.3949   20.6152 C   0  0  0  0  0  0  0  0  0  0  0  0
    6.6804    6.2906   17.9324 C   0  0  0  0  0  0  0  0  0  0  0  0
    5.7908    6.1210   19.0173 O   0  0  0  0  0  0  0  0  0  0  0  0
    5.9614    5.2305   21.5185 O   0  0  0  0  0  0  0  0  0  0  0  0
    7.2287    5.3416   22.0370 C   0  0  0  0  0  0  0  0  0  0  0  0
    7.6001    6.6687   22.6441 C   0  0  0  0  0  0  0  0  0  0  0  0
    8.0385    7.5772   21.5110 C   0  0  0  0  0  0  0  0  0  0  0  0
    7.1167    8.5799   21.1850 N   0  0  0  0  0  0  0  0  0  0  0  0
    7.5723    9.7336   20.5277 C   0  0  0  0  0  0  0  0  0  0  0  0
    6.5241   10.7134   20.1534 C   0  0  0  0  0  0  0  0  0  0  0  0
    5.1239   10.1968   20.1791 C   0  0  0  0  0  0  0  0  0  0  0  0
    4.8405    9.1996   21.2583 C   0  0  0  0  0  0  0  0  0  0  0  0
    6.0630    8.8780   22.0945 C   0  0  0  0  0  0  0  0  0  0  0  0
 37 38  1  0  0  0
 38 27  1  0  0  0
 27 28  2  0  0  0
 28 29  1  0  0  0
 29 30  2  0  0  0
 30 26  1  0  0  0
 26  1  1  0  0  0
  1  2  2  0  0  0
  2  3  1  0  0  0
  3  4  2  0  0  0
  4  8  1  0  0  0
  8  9  1  0  0  0
  9 10  2  0  0  0
  9 12  1  0  0  0
 12 13  1  0  0  0
 13 14  1  0  0  0
 12 15  1  0  0  0
 15 16  2  0  0  0
 15 17  1  0  0  0
 17 19  1  0  0  0
 19 20  2  0  0  0
 20 21  1  0  0  0
 21 22  2  0  0  0
 22 23  1  0  0  0
 22 24  1  0  0  0
 24 25  2  0  0  0
  4  5  1  0  0  0
  5  6  2  0  0  0
  6  7  1  0  0  0
 30 31  1  0  0  0
 31 32  2  0  0  0
 32 33  1  0  0  0
 33 34  2  0  0  0
 34 35  1  0  0  0
 35 36  2  0  0  0
 36 39  1  0  0  0
 39 40  1  0  0  0
 40 41  1  0  0  0
 41 42  1  0  0  0
 42 43  1  0  0  0
 43 44  1  0  0  0
 44 45  1  0  0  0
 45 46  1  0  0  0
 46 47  1  0  0  0
 47 48  1  0  0  0
 36 27  1  0  0  0
 48 43  1  0  0  0
 34 29  1  0  0  0
  6  1  1  0  0  0
 14 12  1  0  0  0
 25 19  1  0  0  0
  8 11  1  0  0  0
 17 18  1  0  0  0
M  END
> <minimizedAffinity>
-8.39199

> <CNNscore>
0.1061874330

> <CNNaffinity>
6.4773035049

> <CNN_VS>
0.6878082156

> <CNNaffinity_variance>
0.2444342375

$$$$
[H]c1nc2c([H])c(OC([H])([H])C([H])([H])C([H])([H])N3C([H])([H])C([H])([H])C([H])([H])C([H])([H])C3([H])[H])c(OC([H])([H])[H])c([H])c2c(Oc2c([H])c([H])c(N([H])C(=O)C3(C(=O)N([H])c4c([H])c([H])c(F)c([H])c4[H])C([H])([H])C3([H])[H])c([H])c2F)c1[H]


 48 53  0  0  0  0  0  0  0  0999 V2000
    3.1154    4.7841   13.2930 C   0  0  0  0  0  0  0  0  0  0  0  0
    3.9013    4.5743   12.1835 C   0  0  0  0  0  0  0  0  0  0  0  0
    3.5171    4.9397   10.8918 C   0  0  0  0  0  0  0  0  0  0  0  0
    2.2992    5.5455   10.6597 C   0  0  0  0  0  0  0  0  0  0  0  0
    1.5047    5.7613   11.7549 C   0  0  0  0  0  0  0  0  0  0  0  0
    1.8709    5.4066   13.0272 C   0  0  0  0  0  0  0  0  0  0  0  0
    1.0376    5.6418   14.0642 F   0  0  0  0  0  0  0  0  0  0  0  0
    1.9534    5.9615    9.3420 N   0  0  0  0  0  0  0  0  0  0  0  0
    2.1167    7.2294    8.7999 C   0  0  0  0  0  0  0  0  0  0  0  0
    2.5722    8.1766    9.4879 O   0  0  0  0  0  0  0  0  0  0  0  0
    1.4772    5.2047    8.7454 H   0  0  0  0  0  0  0  0  0  0  0  0
    1.7549    7.5359    7.4055 C   0  0  0  0  0  0  0  0  0  0  0  0
    0.9655    6.5058    6.6564 C   0  0  0  0  0  0  0  0  0  0  0  0
    0.2898    7.7250    7.0915 C   0  0  0  0  0  0  0  0  0  0  0  0
    2.7320    8.2959    6.5925 C   0  0  0  0  0  0  0  0  0  0  0  0
    2.2521    9.0704    5.7136 O   0  0  0  0  0  0  0  0  0  0  0  0
    4.1143    8.1763    6.7879 N   0  0  0  0  0  0  0  0  0  0  0  0
    4.3892    7.5581    7.6305 H   0  0  0  0  0  0  0  0  0  0  0  0
    5.1455    8.8054    6.0726 C   0  0  0  0  0  0  0  0  0  0  0  0
    5.6484   10.0367    6.3296 C   0  0  0  0  0  0  0  0  0  0  0  0
    6.6747   10.6014    5.5818 C   0  0  0  0  0  0  0  0  0  0  0  0
    7.1890    9.8668    4.5417 C   0  0  0  0  0  0  0  0  0  0  0  0
    8.2035   10.3335    3.7394 F   0  0  0  0  0  0  0  0  0  0  0  0
    6.7000    8.6190    4.2589 C   0  0  0  0  0  0  0  0  0  0  0  0
    5.6927    8.0982    5.0151 C   0  0  0  0  0  0  0  0  0  0  0  0
    3.4161    4.4594   14.5505 O   0  0  0  0  0  0  0  0  0  0  0  0
    4.1083    1.7914   17.4686 C   0  0  0  0  0  0  0  0  0  0  0  0
    3.8789    2.7325   16.4536 C   0  0  0  0  0  0  0  0  0  0  0  0
    4.1052    4.0659   16.7316 C   0  0  0  0  0  0  0  0  0  0  0  0
    3.8429    4.9898   15.6833 C   0  0  0  0  0  0  0  0  0  0  0  0
    4.0623    6.3039   15.9983 C   0  0  0  0  0  0  0  0  0  0  0  0
    4.5054    6.6605   17.2594 C   0  0  0  0  0  0  0  0  0  0  0  0
    4.7402    5.7613   18.2200 N   0  0  0  0  0  0  0  0  0  0  0  0
    4.5433    4.4695   17.9666 C   0  0  0  0  0  0  0  0  0  0  0  0
    4.7652    3.5153   18.9657 C   0  0  0  0  0  0  0  0  0  0  0  0
    4.5532    2.1772   18.7332 C   0  0  0  0  0  0  0  0  0  0  0  0
    2.5692   -0.0185   17.0775 C   0  0  0  0  0  0  0  0  0  0  0  0
    3.8943    0.4480   17.2313 O   0  0  0  0  0  0  0  0  0  0  0  0
    4.7432    1.1954   19.6394 O   0  0  0  0  0  0  0  0  0  0  0  0
    3.9138    0.5905   20.5524 C   0  0  0  0  0  0  0  0  0  0  0  0
    3.3748    1.4576   21.6593 C   0  0  0  0  0  0  0  0  0  0  0  0
    4.5414    1.8180   22.5597 C   0  0  0  0  0  0  0  0  0  0  0  0
    4.9414    3.1577   22.4784 N   0  0  0  0  0  0  0  0  0  0  0  0
    6.3111    3.4535   22.3931 C   0  0  0  0  0  0  0  0  0  0  0  0
    6.6476    4.8892   22.2372 C   0  0  0  0  0  0  0  0  0  0  0  0
    5.5178    5.7719   21.8217 C   0  0  0  0  0  0  0  0  0  0  0  0
    4.1827    5.3904   22.3798 C   0  0  0  0  0  0  0  0  0  0  0  0
    4.2405    4.1396   23.2339 C   0  0  0  0  0  0  0  0  0  0  0  0
 37 38  1  0  0  0
 38 27  1  0  0  0
 27 28  2  0  0  0
 28 29  1  0  0  0
 29 30  2  0  0  0
 30 26  1  0  0  0
 26  1  1  0  0  0
  1  2  2  0  0  0
  2  3  1  0  0  0
  3  4  2  0  0  0
  4  8  1  0  0  0
  8  9  1  0  0  0
  9 10  2  0  0  0
  9 12  1  0  0  0
 12 13  1  0  0  0
 13 14  1  0  0  0
 12 15  1  0  0  0
 15 16  2  0  0  0
 15 17  1  0  0  0
 17 19  1  0  0  0
 19 20  2  0  0  0
 20 21  1  0  0  0
 21 22  2  0  0  0
 22 23  1  0  0  0
 22 24  1  0  0  0
 24 25  2  0  0  0
  4  5  1  0  0  0
  5  6  2  0  0  0
  6  7  1  0  0  0
 30 31  1  0  0  0
 31 32  2  0  0  0
 32 33  1  0  0  0
 33 34  2  0  0  0
 34 35  1  0  0  0
 35 36  2  0  0  0
 36 39  1  0  0  0
 39 40  1  0  0  0
 40 41  1  0  0  0
 41 42  1  0  0  0
 42 43  1  0  0  0
 43 44  1  0  0  0
 44 45  1  0  0  0
 45 46  1  0  0  0
 46 47  1  0  0  0
 47 48  1  0  0  0
 36 27  1  0  0  0
 48 43  1  0  0  0
 34 29  1  0  0  0
  6  1  1  0  0  0
 14 12  1  0  0  0
 25 19  1  0  0  0
  8 11  1  0  0  0
 17 18  1  0  0  0
M  END
> <minimizedAffinity>
-8.65617

> <CNNscore>
0.0996686071

> <CNNaffinity>
6.2969050407

> <CNN_VS>
0.6276037693

> <CNNaffinity_variance>
0.1648677886

$$$$
[H]c1nc(N2C([H])([H])C([H])([H])N(c3nc([H])c(C([H])([H])c4c([H])c([H])c([H])c([H])c4[H])c([H])n3)C([H])([H])C2([H])[H])c2c([H])c(OC([H])([H])[H])c(OC([H])([H])[H])c([H])c2n1


 33 37  0  0  0  0  0  0  0  0999 V2000
    2.9968    3.8562   15.2684 N   0  0  0  0  0  0  0  0  0  0  0  0
    2.2199    5.0482   15.3994 C   0  0  0  0  0  0  0  0  0  0  0  0
    1.4051    5.3810   14.1442 C   0  0  0  0  0  0  0  0  0  0  0  0
    2.1493    5.1220   12.9345 N   0  0  0  0  0  0  0  0  0  0  0  0
    2.8862    3.8501   12.8375 C   0  0  0  0  0  0  0  0  0  0  0  0
    3.8259    3.7923   14.0353 C   0  0  0  0  0  0  0  0  0  0  0  0
    5.1127    2.7888   19.7654 C   0  0  0  0  0  0  0  0  0  0  0  0
    4.5122    1.6480   19.2946 C   0  0  0  0  0  0  0  0  0  0  0  0
    3.8384    1.6005   18.0975 C   0  0  0  0  0  0  0  0  0  0  0  0
    3.2497    0.4751   17.6812 N   0  0  0  0  0  0  0  0  0  0  0  0
    2.5891    0.4674   16.5178 C   0  0  0  0  0  0  0  0  0  0  0  0
    2.4935    1.5499   15.7448 N   0  0  0  0  0  0  0  0  0  0  0  0
    3.0731    2.7404   16.1080 C   0  0  0  0  0  0  0  0  0  0  0  0
    3.7479    2.7593   17.2977 C   0  0  0  0  0  0  0  0  0  0  0  0
    4.3655    3.8770   17.8096 C   0  0  0  0  0  0  0  0  0  0  0  0
    5.0462    3.9712   18.9974 C   0  0  0  0  0  0  0  0  0  0  0  0
    5.1704    2.3613   22.1233 C   0  0  0  0  0  0  0  0  0  0  0  0
    5.7949    2.8366   20.9760 O   0  0  0  0  0  0  0  0  0  0  0  0
    5.6622    5.1061   19.4959 O   0  0  0  0  0  0  0  0  0  0  0  0
    6.0064    6.1394   18.6078 C   0  0  0  0  0  0  0  0  0  0  0  0
    2.2477    6.0146   11.8293 C   0  0  0  0  0  0  0  0  0  0  0  0
    3.0416    7.0594   11.7468 N   0  0  0  0  0  0  0  0  0  0  0  0
    3.0869    7.8887   10.6687 C   0  0  0  0  0  0  0  0  0  0  0  0
    2.2379    7.6112    9.5894 C   0  0  0  0  0  0  0  0  0  0  0  0
    1.4169    6.5283    9.6812 C   0  0  0  0  0  0  0  0  0  0  0  0
    1.4142    5.7446   10.7690 N   0  0  0  0  0  0  0  0  0  0  0  0
    2.2040    8.4324    8.3552 C   0  0  0  0  0  0  0  0  0  0  0  0
    3.5104    8.4522    7.6489 C   0  0  0  0  0  0  0  0  0  0  0  0
    4.1920    9.6233    7.5309 C   0  0  0  0  0  0  0  0  0  0  0  0
    5.4248    9.6623    6.8577 C   0  0  0  0  0  0  0  0  0  0  0  0
    5.9034    8.5001    6.3347 C   0  0  0  0  0  0  0  0  0  0  0  0
    5.2243    7.3153    6.4479 C   0  0  0  0  0  0  0  0  0  0  0  0
    4.0136    7.2590    7.1063 C   0  0  0  0  0  0  0  0  0  0  0  0
 17 18  1  0  0  0
 18  7  1  0  0  0
  7  8  2  0  0  0
  8  9  1  0  0  0
  9 10  2  0  0  0
 10 11  1  0  0  0
 11 12  2  0  0  0
 12 13  1  0  0  0
 13  1  1  0  0  0
  1  2  1  0  0  0
  2  3  1  0  0  0
  3  4  1  0  0  0
  4  5  1  0  0  0
  5  6  1  0  0  0
  4 21  1  0  0  0
 21 22  2  0  0  0
 22 23  1  0  0  0
 23 24  2  0  0  0
 24 27  1  0  0  0
 27 28  1  0  0  0
 28 29  2  0  0  0
 29 30  1  0  0  0
 30 31  2  0  0  0
 31 32  1  0  0  0
 32 33  2  0  0  0
 24 25  1  0  0  0
 25 26  2  0  0  0
 13 14  2  0  0  0
 14 15  1  0  0  0
 15 16  2  0  0  0
 16 19  1  0  0  0
 19 20  1  0  0  0
 16  7  1  0  0  0
 14  9  1  0  0  0
  6  1  1  0  0  0
 26 21  1  0  0  0
 33 28  1  0  0  0
M  END
> <minimizedAffinity>
-7.27876

> <CNNscore>
0.3053282499

> <CNNaffinity>
6.0417237282

> <CNN_VS>
1.8447089195

> <CNNaffinity_variance>
0.4461850524

$$$$
[H]c1nc(N2C([H])([H])C([H])([H])N(c3nc([H])c(C([H])([H])c4c([H])c([H])c([H])c([H])c4[H])c([H])n3)C([H])([H])C2([H])[H])c2c([H])c(OC([H])([H])[H])c(OC([H])([H])[H])c([H])c2n1


 33 37  0  0  0  0  0  0  0  0999 V2000
    3.4998    3.1816   17.0537 N   0  0  0  0  0  0  0  0  0  0  0  0
    2.8683    4.4621   17.1099 C   0  0  0  0  0  0  0  0  0  0  0  0
    2.1725    4.8521   15.8007 C   0  0  0  0  0  0  0  0  0  0  0  0
    2.9466    4.4682   14.6440 N   0  0  0  0  0  0  0  0  0  0  0  0
    3.5266    3.1142   14.6214 C   0  0  0  0  0  0  0  0  0  0  0  0
    4.3831    2.9802   15.8742 C   0  0  0  0  0  0  0  0  0  0  0  0
    5.2439    1.9892   21.6770 C   0  0  0  0  0  0  0  0  0  0  0  0
    4.5244    0.9206   21.2036 C   0  0  0  0  0  0  0  0  0  0  0  0
    3.9078    0.9234   19.9750 C   0  0  0  0  0  0  0  0  0  0  0  0
    3.1994   -0.1297   19.5562 N   0  0  0  0  0  0  0  0  0  0  0  0
    2.5994   -0.0882   18.3611 C   0  0  0  0  0  0  0  0  0  0  0  0
    2.6811    0.9739   17.5586 N   0  0  0  0  0  0  0  0  0  0  0  0
    3.3915    2.0911   17.9224 C   0  0  0  0  0  0  0  0  0  0  0  0
    4.0057    2.0596   19.1442 C   0  0  0  0  0  0  0  0  0  0  0  0
    4.7373    3.1043   19.6602 C   0  0  0  0  0  0  0  0  0  0  0  0
    5.3672    3.1467   20.8787 C   0  0  0  0  0  0  0  0  0  0  0  0
    5.1050    2.2055   24.0602 C   0  0  0  0  0  0  0  0  0  0  0  0
    5.8682    1.9861   22.9194 O   0  0  0  0  0  0  0  0  0  0  0  0
    6.0999    4.2082   21.3808 O   0  0  0  0  0  0  0  0  0  0  0  0
    5.4818    5.4644   21.5032 C   0  0  0  0  0  0  0  0  0  0  0  0
    3.2157    5.3080   13.5260 C   0  0  0  0  0  0  0  0  0  0  0  0
    3.7719    6.4986   13.5686 N   0  0  0  0  0  0  0  0  0  0  0  0
    3.9956    7.2662   12.4673 C   0  0  0  0  0  0  0  0  0  0  0  0
    3.6092    6.7565   11.2208 C   0  0  0  0  0  0  0  0  0  0  0  0
    3.0324    5.5232   11.1832 C   0  0  0  0  0  0  0  0  0  0  0  0
    2.8360    4.8099   12.3013 N   0  0  0  0  0  0  0  0  0  0  0  0
    3.8110    7.4913    9.9488 C   0  0  0  0  0  0  0  0  0  0  0  0
    4.7521    6.7966    9.0336 C   0  0  0  0  0  0  0  0  0  0  0  0
    6.0388    6.5909    9.4234 C   0  0  0  0  0  0  0  0  0  0  0  0
    6.9452    5.9438    8.5666 C   0  0  0  0  0  0  0  0  0  0  0  0
    6.4930    5.5375    7.3485 C   0  0  0  0  0  0  0  0  0  0  0  0
    5.1989    5.7402    6.9463 C   0  0  0  0  0  0  0  0  0  0  0  0
    4.2959    6.3726    7.7752 C   0  0  0  0  0  0  0  0  0  0  0  0
 17 18  1  0  0  0
 18  7  1  0  0  0
  7  8  2  0  0  0
  8  9  1  0  0  0
  9 10  2  0  0  0
 10 11  1  0  0  0
 11 12  2  0  0  0
 12 13  1  0  0  0
 13  1  1  0  0  0
  1  2  1  0  0  0
  2  3  1  0  0  0
  3  4  1  0  0  0
  4  5  1  0  0  0
  5  6  1  0  0  0
  4 21  1  0  0  0
 21 22  2  0  0  0
 22 23  1  0  0  0
 23 24  2  0  0  0
 24 27  1  0  0  0
 27 28  1  0  0  0
 28 29  2  0  0  0
 29 30  1  0  0  0
 30 31  2  0  0  0
 31 32  1  0  0  0
 32 33  2  0  0  0
 24 25  1  0  0  0
 25 26  2  0  0  0
 13 14  2  0  0  0
 14 15  1  0  0  0
 15 16  2  0  0  0
 16 19  1  0  0  0
 19 20  1  0  0  0
 16  7  1  0  0  0
 14  9  1  0  0  0
  6  1  1  0  0  0
 26 21  1  0  0  0
 33 28  1  0  0  0
M  END
> <minimizedAffinity>
-6.89998

> <CNNscore>
0.2738968432

> <CNNaffinity>
6.2112069130

> <CNN_VS>
1.7012299299

> <CNNaffinity_variance>
0.5378553867

$$$$
[H]c1nc(N2C([H])([H])C([H])([H])N(c3nc([H])c(C([H])([H])c4c([H])c([H])c([H])c([H])c4[H])c([H])n3)C([H])([H])C2([H])[H])c2c([H])c(OC([H])([H])[H])c(OC([H])([H])[H])c([H])c2n1


 33 37  0  0  0  0  0  0  0  0999 V2000
    2.8140    4.9510   13.3663 N   0  0  0  0  0  0  0  0  0  0  0  0
    1.7409    5.8861   13.2416 C   0  0  0  0  0  0  0  0  0  0  0  0
    1.1911    5.9902   11.8143 C   0  0  0  0  0  0  0  0  0  0  0  0
    2.2438    5.9486   10.8271 N   0  0  0  0  0  0  0  0  0  0  0  0
    3.2926    4.9256   10.9805 C   0  0  0  0  0  0  0  0  0  0  0  0
    3.8998    5.1203   12.3641 C   0  0  0  0  0  0  0  0  0  0  0  0
    4.9844    4.3222   17.9196 C   0  0  0  0  0  0  0  0  0  0  0  0
    4.4877    3.1093   17.5124 C   0  0  0  0  0  0  0  0  0  0  0  0
    3.8283    2.9372   16.3186 C   0  0  0  0  0  0  0  0  0  0  0  0
    3.3416    1.7438   15.9649 N   0  0  0  0  0  0  0  0  0  0  0  0
    2.6917    1.6143   14.8027 C   0  0  0  0  0  0  0  0  0  0  0  0
    2.5082    2.6399   13.9701 N   0  0  0  0  0  0  0  0  0  0  0  0
    2.9807    3.8944   14.2671 C   0  0  0  0  0  0  0  0  0  0  0  0
    3.6435    4.0377   15.4551 C   0  0  0  0  0  0  0  0  0  0  0  0
    4.1591    5.2313   15.9047 C   0  0  0  0  0  0  0  0  0  0  0  0
    4.8214    5.4498   17.0866 C   0  0  0  0  0  0  0  0  0  0  0  0
    5.0796    4.0021   20.2933 C   0  0  0  0  0  0  0  0  0  0  0  0
    5.6520    4.4960   19.1268 O   0  0  0  0  0  0  0  0  0  0  0  0
    5.3339    6.6597   17.5219 O   0  0  0  0  0  0  0  0  0  0  0  0
    5.5875    7.6702   16.5787 C   0  0  0  0  0  0  0  0  0  0  0  0
    2.3630    6.8392    9.7224 C   0  0  0  0  0  0  0  0  0  0  0  0
    2.2951    8.1511    9.7751 N   0  0  0  0  0  0  0  0  0  0  0  0
    2.4037    8.9563    8.6833 C   0  0  0  0  0  0  0  0  0  0  0  0
    2.5972    8.3497    7.4354 C   0  0  0  0  0  0  0  0  0  0  0  0
    2.6654    6.9902    7.3869 C   0  0  0  0  0  0  0  0  0  0  0  0
    2.5519    6.2456    8.4960 N   0  0  0  0  0  0  0  0  0  0  0  0
    2.7424    9.1190    6.1761 C   0  0  0  0  0  0  0  0  0  0  0  0
    4.1578    9.2381    5.7421 C   0  0  0  0  0  0  0  0  0  0  0  0
    4.9873   10.1017    6.3872 C   0  0  0  0  0  0  0  0  0  0  0  0
    6.3268   10.2342    5.9839 C   0  0  0  0  0  0  0  0  0  0  0  0
    6.7561    9.4768    4.9373 C   0  0  0  0  0  0  0  0  0  0  0  0
    5.9284    8.6043    4.2807 C   0  0  0  0  0  0  0  0  0  0  0  0
    4.6112    8.4611    4.6641 C   0  0  0  0  0  0  0  0  0  0  0  0
 17 18  1  0  0  0
 18  7  1  0  0  0
  7  8  2  0  0  0
  8  9  1  0  0  0
  9 10  2  0  0  0
 10 11  1  0  0  0
 11 12  2  0  0  0
 12 13  1  0  0  0
 13  1  1  0  0  0
  1  2  1  0  0  0
  2  3  1  0  0  0
  3  4  1  0  0  0
  4  5  1  0  0  0
  5  6  1  0  0  0
  4 21  1  0  0  0
 21 22  2  0  0  0
 22 23  1  0  0  0
 23 24  2  0  0  0
 24 27  1  0  0  0
 27 28  1  0  0  0
 28 29  2  0  0  0
 29 30  1  0  0  0
 30 31  2  0  0  0
 31 32  1  0  0  0
 32 33  2  0  0  0
 24 25  1  0  0  0
 25 26  2  0  0  0
 13 14  2  0  0  0
 14 15  1  0  0  0
 15 16  2  0  0  0
 16 19  1  0  0  0
 19 20  1  0  0  0
 16  7  1  0  0  0
 14  9  1  0  0  0
  6  1  1  0  0  0
 26 21  1  0  0  0
 33 28  1  0  0  0
M  END
> <minimizedAffinity>
-7.13461

> <CNNscore>
0.1411867291

> <CNNaffinity>
5.5179414749

> <CNN_VS>
0.7790601254

> <CNNaffinity_variance>
0.2825511098

$$$$
[H]c1nc(N2C([H])([H])C([H])([H])N(c3nc([H])c(C([H])([H])c4c([H])c([H])c([H])c([H])c4[H])c([H])n3)C([H])([H])C2([H])[H])c2c([H])c(OC([H])([H])[H])c(OC([H])([H])[H])c([H])c2n1


 33 37  0  0  0  0  0  0  0  0999 V2000
    5.4584    9.8282   19.5363 N   0  0  0  0  0  0  0  0  0  0  0  0
    4.0660    9.5078   19.5548 C   0  0  0  0  0  0  0  0  0  0  0  0
    3.6961    8.3602   18.6080 C   0  0  0  0  0  0  0  0  0  0  0  0
    4.4114    8.4424   17.3566 N   0  0  0  0  0  0  0  0  0  0  0  0
    5.8570    8.7215   17.4061 C   0  0  0  0  0  0  0  0  0  0  0  0
    6.0286   10.0244   18.1767 C   0  0  0  0  0  0  0  0  0  0  0  0
    8.0958    6.6661   22.5169 C   0  0  0  0  0  0  0  0  0  0  0  0
    8.3490    7.9509   22.9280 C   0  0  0  0  0  0  0  0  0  0  0  0
    7.7928    9.0509   22.3196 C   0  0  0  0  0  0  0  0  0  0  0  0
    8.0784   10.2882   22.7365 N   0  0  0  0  0  0  0  0  0  0  0  0
    7.5314   11.3375   22.1124 C   0  0  0  0  0  0  0  0  0  0  0  0
    6.7003   11.1987   21.0786 N   0  0  0  0  0  0  0  0  0  0  0  0
    6.3612    9.9587   20.5963 C   0  0  0  0  0  0  0  0  0  0  0  0
    6.9183    8.8795   21.2256 C   0  0  0  0  0  0  0  0  0  0  0  0
    6.6939    7.5749   20.8508 C   0  0  0  0  0  0  0  0  0  0  0  0
    7.2271    6.4488   21.4259 C   0  0  0  0  0  0  0  0  0  0  0  0
    9.9908    5.5988   23.5248 C   0  0  0  0  0  0  0  0  0  0  0  0
    8.6580    5.5535   23.1328 O   0  0  0  0  0  0  0  0  0  0  0  0
    6.9887    5.1428   21.0343 O   0  0  0  0  0  0  0  0  0  0  0  0
    5.7603    4.5462   21.3662 C   0  0  0  0  0  0  0  0  0  0  0  0
    3.8224    8.2975   16.0682 C   0  0  0  0  0  0  0  0  0  0  0  0
    3.7137    7.1773   15.3885 N   0  0  0  0  0  0  0  0  0  0  0  0
    3.1510    7.0972   14.1520 C   0  0  0  0  0  0  0  0  0  0  0  0
    2.6627    8.2762   13.5740 C   0  0  0  0  0  0  0  0  0  0  0  0
    2.7793    9.4337   14.2823 C   0  0  0  0  0  0  0  0  0  0  0  0
    3.3434    9.4541   15.4984 N   0  0  0  0  0  0  0  0  0  0  0  0
    2.0180    8.3157   12.2393 C   0  0  0  0  0  0  0  0  0  0  0  0
    1.0182    7.2325   12.0581 C   0  0  0  0  0  0  0  0  0  0  0  0
    1.2189    6.2868   11.1013 C   0  0  0  0  0  0  0  0  0  0  0  0
    0.2789    5.2602   10.9096 C   0  0  0  0  0  0  0  0  0  0  0  0
   -0.8252    5.2490   11.7061 C   0  0  0  0  0  0  0  0  0  0  0  0
   -1.0369    6.1971   12.6725 C   0  0  0  0  0  0  0  0  0  0  0  0
   -0.1239    7.2110   12.8747 C   0  0  0  0  0  0  0  0  0  0  0  0
 17 18  1  0  0  0
 18  7  1  0  0  0
  7  8  2  0  0  0
  8  9  1  0  0  0
  9 10  2  0  0  0
 10 11  1  0  0  0
 11 12  2  0  0  0
 12 13  1  0  0  0
 13  1  1  0  0  0
  1  2  1  0  0  0
  2  3  1  0  0  0
  3  4  1  0  0  0
  4  5  1  0  0  0
  5  6  1  0  0  0
  4 21  1  0  0  0
 21 22  2  0  0  0
 22 23  1  0  0  0
 23 24  2  0  0  0
 24 27  1  0  0  0
 27 28  1  0  0  0
 28 29  2  0  0  0
 29 30  1  0  0  0
 30 31  2  0  0  0
 31 32  1  0  0  0
 32 33  2  0  0  0
 24 25  1  0  0  0
 25 26  2  0  0  0
 13 14  2  0  0  0
 14 15  1  0  0  0
 15 16  2  0  0  0
 16 19  1  0  0  0
 19 20  1  0  0  0
 16  7  1  0  0  0
 14  9  1  0  0  0
  6  1  1  0  0  0
 26 21  1  0  0  0
 33 28  1  0  0  0
M  END
> <minimizedAffinity>
-6.49120

> <CNNscore>
0.1248708442

> <CNNaffinity>
5.3192758560

> <CNN_VS>
0.6642224789

> <CNNaffinity_variance>
0.3003000319

$$$$
[H]c1nc(N2C([H])([H])C([H])([H])N(c3nc([H])c(C([H])([H])c4c([H])c([H])c([H])c([H])c4[H])c([H])n3)C([H])([H])C2([H])[H])c2c([H])c(OC([H])([H])[H])c(OC([H])([H])[H])c([H])c2n1


 33 37  0  0  0  0  0  0  0  0999 V2000
    3.1761    7.2563   12.4953 N   0  0  0  0  0  0  0  0  0  0  0  0
    2.0795    7.7963   13.2353 C   0  0  0  0  0  0  0  0  0  0  0  0
    2.3826    9.1657   13.8543 C   0  0  0  0  0  0  0  0  0  0  0  0
    3.7250    9.2335   14.3813 N   0  0  0  0  0  0  0  0  0  0  0  0
    4.8203    8.7095   13.5470 C   0  0  0  0  0  0  0  0  0  0  0  0
    4.4737    7.2620   13.2221 C   0  0  0  0  0  0  0  0  0  0  0  0
    2.7726    2.6776   10.3246 C   0  0  0  0  0  0  0  0  0  0  0  0
    3.0125    3.5990    9.3360 C   0  0  0  0  0  0  0  0  0  0  0  0
    3.1645    4.9414    9.5899 C   0  0  0  0  0  0  0  0  0  0  0  0
    3.3783    5.8113    8.5981 N   0  0  0  0  0  0  0  0  0  0  0  0
    3.5068    7.1132    8.8785 C   0  0  0  0  0  0  0  0  0  0  0  0
    3.4313    7.5854   10.1234 N   0  0  0  0  0  0  0  0  0  0  0  0
    3.2142    6.7509   11.1919 C   0  0  0  0  0  0  0  0  0  0  0  0
    3.0779    5.4183   10.9150 C   0  0  0  0  0  0  0  0  0  0  0  0
    2.8378    4.4585   11.8710 C   0  0  0  0  0  0  0  0  0  0  0  0
    2.6779    3.1113   11.6644 C   0  0  0  0  0  0  0  0  0  0  0  0
    3.7459    0.5516    9.7970 C   0  0  0  0  0  0  0  0  0  0  0  0
    2.6195    1.3197   10.0678 O   0  0  0  0  0  0  0  0  0  0  0  0
    2.4371    2.1601   12.6406 O   0  0  0  0  0  0  0  0  0  0  0  0
    2.8666    2.4101   13.9551 C   0  0  0  0  0  0  0  0  0  0  0  0
    4.0745    9.7485   15.6621 C   0  0  0  0  0  0  0  0  0  0  0  0
    5.2877    9.8162   16.1643 N   0  0  0  0  0  0  0  0  0  0  0  0
    5.5648   10.3081   17.4026 C   0  0  0  0  0  0  0  0  0  0  0  0
    4.4952   10.7655   18.1831 C   0  0  0  0  0  0  0  0  0  0  0  0
    3.2406   10.6916   17.6580 C   0  0  0  0  0  0  0  0  0  0  0  0
    3.0255   10.1971   16.4306 N   0  0  0  0  0  0  0  0  0  0  0  0
    4.6702   11.3339   19.5414 C   0  0  0  0  0  0  0  0  0  0  0  0
    5.2488   10.3555   20.4974 C   0  0  0  0  0  0  0  0  0  0  0  0
    6.3982   10.6609   21.1572 C   0  0  0  0  0  0  0  0  0  0  0  0
    6.9647    9.7434   22.0581 C   0  0  0  0  0  0  0  0  0  0  0  0
    6.3288    8.5538   22.2418 C   0  0  0  0  0  0  0  0  0  0  0  0
    5.1706    8.2364   21.5818 C   0  0  0  0  0  0  0  0  0  0  0  0
    4.6005    9.1258   20.6949 C   0  0  0  0  0  0  0  0  0  0  0  0
 17 18  1  0  0  0
 18  7  1  0  0  0
  7  8  2  0  0  0
  8  9  1  0  0  0
  9 10  2  0  0  0
 10 11  1  0  0  0
 11 12  2  0  0  0
 12 13  1  0  0  0
 13  1  1  0  0  0
  1  2  1  0  0  0
  2  3  1  0  0  0
  3  4  1  0  0  0
  4  5  1  0  0  0
  5  6  1  0  0  0
  4 21  1  0  0  0
 21 22  2  0  0  0
 22 23  1  0  0  0
 23 24  2  0  0  0
 24 27  1  0  0  0
 27 28  1  0  0  0
 28 29  2  0  0  0
 29 30  1  0  0  0
 30 31  2  0  0  0
 31 32  1  0  0  0
 32 33  2  0  0  0
 24 25  1  0  0  0
 25 26  2  0  0  0
 13 14  2  0  0  0
 14 15  1  0  0  0
 15 16  2  0  0  0
 16 19  1  0  0  0
 19 20  1  0  0  0
 16  7  1  0  0  0
 14  9  1  0  0  0
  6  1  1  0  0  0
 26 21  1  0  0  0
 33 28  1  0  0  0
M  END
> <minimizedAffinity>
-6.55960

> <CNNscore>
0.1150634140

> <CNNaffinity>
5.4032640457

> <CNN_VS>
0.6217179894

> <CNNaffinity_variance>
0.7966764569

$$$$
[H]c1nc(N2C([H])([H])C([H])([H])N(c3nc([H])c(C([H])([H])c4c([H])c([H])c([H])c([H])c4[H])c([H])n3)C([H])([H])C2([H])[H])c2c([H])c(OC([H])([H])[H])c(OC([H])([H])[H])c([H])c2n1


 33 37  0  0  0  0  0  0  0  0999 V2000
    3.7570    3.3254   17.0608 N   0  0  0  0  0  0  0  0  0  0  0  0
    4.4152    3.6076   15.8244 C   0  0  0  0  0  0  0  0  0  0  0  0
    3.9190    4.8939   15.1540 C   0  0  0  0  0  0  0  0  0  0  0  0
    2.4881    5.0459   15.2726 N   0  0  0  0  0  0  0  0  0  0  0  0
    1.8749    4.7936   16.5881 C   0  0  0  0  0  0  0  0  0  0  0  0
    2.2722    3.3807   16.9964 C   0  0  0  0  0  0  0  0  0  0  0  0
    5.5330    5.9984   21.0029 C   0  0  0  0  0  0  0  0  0  0  0  0
    5.6813    4.6646   21.2902 C   0  0  0  0  0  0  0  0  0  0  0  0
    5.2883    3.6687   20.4280 C   0  0  0  0  0  0  0  0  0  0  0  0
    5.4317    2.3799   20.7512 N   0  0  0  0  0  0  0  0  0  0  0  0
    5.0249    1.4357   19.8951 C   0  0  0  0  0  0  0  0  0  0  0  0
    4.4764    1.7308   18.7158 N   0  0  0  0  0  0  0  0  0  0  0  0
    4.2982    3.0324   18.3166 C   0  0  0  0  0  0  0  0  0  0  0  0
    4.7078    4.0051   19.1867 C   0  0  0  0  0  0  0  0  0  0  0  0
    4.5809    5.3530   18.9427 C   0  0  0  0  0  0  0  0  0  0  0  0
    4.9564    6.3797   19.7723 C   0  0  0  0  0  0  0  0  0  0  0  0
    7.1652    6.9046   22.5064 C   0  0  0  0  0  0  0  0  0  0  0  0
    5.9311    7.0057   21.8748 O   0  0  0  0  0  0  0  0  0  0  0  0
    4.8208    7.7317   19.5086 O   0  0  0  0  0  0  0  0  0  0  0  0
    4.1193    8.1339   18.3592 C   0  0  0  0  0  0  0  0  0  0  0  0
    1.6133    5.3996   14.2062 C   0  0  0  0  0  0  0  0  0  0  0  0
    1.1246    6.5973   13.9709 N   0  0  0  0  0  0  0  0  0  0  0  0
    0.2802    6.8783   12.9412 C   0  0  0  0  0  0  0  0  0  0  0  0
   -0.0875    5.8301   12.0875 C   0  0  0  0  0  0  0  0  0  0  0  0
    0.4208    4.5914   12.3370 C   0  0  0  0  0  0  0  0  0  0  0  0
    1.2500    4.3717   13.3674 N   0  0  0  0  0  0  0  0  0  0  0  0
   -0.9898    6.0127   10.9251 C   0  0  0  0  0  0  0  0  0  0  0  0
   -2.3623    5.5081   11.1856 C   0  0  0  0  0  0  0  0  0  0  0  0
   -2.7958    4.3848   10.5530 C   0  0  0  0  0  0  0  0  0  0  0  0
   -4.0944    3.8986   10.7803 C   0  0  0  0  0  0  0  0  0  0  0  0
   -4.8909    4.5856   11.6445 C   0  0  0  0  0  0  0  0  0  0  0  0
   -4.4638    5.7183   12.2865 C   0  0  0  0  0  0  0  0  0  0  0  0
   -3.1919    6.2087   12.0758 C   0  0  0  0  0  0  0  0  0  0  0  0
 17 18  1  0  0  0
 18  7  1  0  0  0
  7  8  2  0  0  0
  8  9  1  0  0  0
  9 10  2  0  0  0
 10 11  1  0  0  0
 11 12  2  0  0  0
 12 13  1  0  0  0
 13  1  1  0  0  0
  1  2  1  0  0  0
  2  3  1  0  0  0
  3  4  1  0  0  0
  4  5  1  0  0  0
  5  6  1  0  0  0
  4 21  1  0  0  0
 21 22  2  0  0  0
 22 23  1  0  0  0
 23 24  2  0  0  0
 24 27  1  0  0  0
 27 28  1  0  0  0
 28 29  2  0  0  0
 29 30  1  0  0  0
 30 31  2  0  0  0
 31 32  1  0  0  0
 32 33  2  0  0  0
 24 25  1  0  0  0
 25 26  2  0  0  0
 13 14  2  0  0  0
 14 15  1  0  0  0
 15 16  2  0  0  0
 16 19  1  0  0  0
 19 20  1  0  0  0
 16  7  1  0  0  0
 14  9  1  0  0  0
  6  1  1  0  0  0
 26 21  1  0  0  0
 33 28  1  0  0  0
M  END
> <minimizedAffinity>
-7.54853

> <CNNscore>
0.1106835157

> <CNNaffinity>
5.8248696327

> <CNN_VS>
0.6447170377

> <CNNaffinity_variance>
0.9055640101

$$$$
[H]c1nc(N2C([H])([H])C([H])([H])N(c3nc([H])c(C([H])([H])c4c([H])c([H])c([H])c([H])c4[H])c([H])n3)C([H])([H])C2([H])[H])c2c([H])c(OC([H])([H])[H])c(OC([H])([H])[H])c([H])c2n1


 33 37  0  0  0  0  0  0  0  0999 V2000
    3.1433    8.2272   13.9103 N   0  0  0  0  0  0  0  0  0  0  0  0
    2.9730    9.5599   14.3967 C   0  0  0  0  0  0  0  0  0  0  0  0
    4.0610    9.9860   15.3890 C   0  0  0  0  0  0  0  0  0  0  0  0
    4.4148    8.9169   16.2926 N   0  0  0  0  0  0  0  0  0  0  0  0
    4.6310    7.5759   15.7225 C   0  0  0  0  0  0  0  0  0  0  0  0
    3.3589    7.2062   14.9700 C   0  0  0  0  0  0  0  0  0  0  0  0
   -0.2501    6.2671   10.6727 C   0  0  0  0  0  0  0  0  0  0  0  0
    0.9763    6.2686   10.0565 C   0  0  0  0  0  0  0  0  0  0  0  0
    2.1140    6.7456   10.6629 C   0  0  0  0  0  0  0  0  0  0  0  0
    3.2875    6.7481   10.0233 N   0  0  0  0  0  0  0  0  0  0  0  0
    4.3726    7.2336   10.6372 C   0  0  0  0  0  0  0  0  0  0  0  0
    4.3320    7.7203   11.8782 N   0  0  0  0  0  0  0  0  0  0  0  0
    3.1620    7.7494   12.5962 C   0  0  0  0  0  0  0  0  0  0  0  0
    2.0462    7.2584   11.9756 C   0  0  0  0  0  0  0  0  0  0  0  0
    0.7974    7.2351   12.5524 C   0  0  0  0  0  0  0  0  0  0  0  0
   -0.3634    6.7714   11.9861 C   0  0  0  0  0  0  0  0  0  0  0  0
   -1.5245    4.4177    9.8353 C   0  0  0  0  0  0  0  0  0  0  0  0
   -1.4007    5.7839   10.0596 O   0  0  0  0  0  0  0  0  0  0  0  0
   -1.6120    6.7559   12.5834 O   0  0  0  0  0  0  0  0  0  0  0  0
   -1.6954    6.7556   13.9862 C   0  0  0  0  0  0  0  0  0  0  0  0
    4.5493    9.0513   17.7038 C   0  0  0  0  0  0  0  0  0  0  0  0
    4.4875   10.1750   18.3836 N   0  0  0  0  0  0  0  0  0  0  0  0
    4.6355   10.2483   19.7345 C   0  0  0  0  0  0  0  0  0  0  0  0
    4.8677    9.0581   20.4361 C   0  0  0  0  0  0  0  0  0  0  0  0
    4.9320    7.8974   19.7263 C   0  0  0  0  0  0  0  0  0  0  0  0
    4.7786    7.8841   18.3945 N   0  0  0  0  0  0  0  0  0  0  0  0
    5.0329    9.0066   21.9087 C   0  0  0  0  0  0  0  0  0  0  0  0
    6.4395    8.7566   22.3151 C   0  0  0  0  0  0  0  0  0  0  0  0
    7.3543    9.7584   22.2182 C   0  0  0  0  0  0  0  0  0  0  0  0
    8.6914    9.5370   22.5892 C   0  0  0  0  0  0  0  0  0  0  0  0
    9.0314    8.2988   23.0418 C   0  0  0  0  0  0  0  0  0  0  0  0
    8.1174    7.2830   23.1428 C   0  0  0  0  0  0  0  0  0  0  0  0
    6.8008    7.4834   22.7840 C   0  0  0  0  0  0  0  0  0  0  0  0
 17 18  1  0  0  0
 18  7  1  0  0  0
  7  8  2  0  0  0
  8  9  1  0  0  0
  9 10  2  0  0  0
 10 11  1  0  0  0
 11 12  2  0  0  0
 12 13  1  0  0  0
 13  1  1  0  0  0
  1  2  1  0  0  0
  2  3  1  0  0  0
  3  4  1  0  0  0
  4  5  1  0  0  0
  5  6  1  0  0  0
  4 21  1  0  0  0
 21 22  2  0  0  0
 22 23  1  0  0  0
 23 24  2  0  0  0
 24 27  1  0  0  0
 27 28  1  0  0  0
 28 29  2  0  0  0
 29 30  1  0  0  0
 30 31  2  0  0  0
 31 32  1  0  0  0
 32 33  2  0  0  0
 24 25  1  0  0  0
 25 26  2  0  0  0
 13 14  2  0  0  0
 14 15  1  0  0  0
 15 16  2  0  0  0
 16 19  1  0  0  0
 19 20  1  0  0  0
 16  7  1  0  0  0
 14  9  1  0  0  0
  6  1  1  0  0  0
 26 21  1  0  0  0
 33 28  1  0  0  0
M  END
> <minimizedAffinity>
-6.93156

> <CNNscore>
0.1011305973

> <CNNaffinity>
5.1081590652

> <CNN_VS>
0.5165911913

> <CNNaffinity_variance>
0.3716785312

$$$$
[H]c1nc(N2C([H])([H])C([H])([H])N(c3nc([H])c(C([H])([H])c4c([H])c([H])c([H])c([H])c4[H])c([H])n3)C([H])([H])C2([H])[H])c2c([H])c(OC([H])([H])[H])c(OC([H])([H])[H])c([H])c2n1


 33 37  0  0  0  0  0  0  0  0999 V2000
    2.7219    4.8533   12.9549 N   0  0  0  0  0  0  0  0  0  0  0  0
    2.9360    3.4412   12.9126 C   0  0  0  0  0  0  0  0  0  0  0  0
    2.4156    2.7122   14.1567 C   0  0  0  0  0  0  0  0  0  0  0  0
    2.6776    3.4561   15.3660 N   0  0  0  0  0  0  0  0  0  0  0  0
    2.3846    4.8997   15.3644 C   0  0  0  0  0  0  0  0  0  0  0  0
    3.1728    5.5086   14.2116 C   0  0  0  0  0  0  0  0  0  0  0  0
    4.3348    7.6359    9.0186 C   0  0  0  0  0  0  0  0  0  0  0  0
    2.9835    7.8335    9.1558 C   0  0  0  0  0  0  0  0  0  0  0  0
    2.2351    7.2142   10.1283 C   0  0  0  0  0  0  0  0  0  0  0  0
    0.9172    7.4170   10.2185 N   0  0  0  0  0  0  0  0  0  0  0  0
    0.2160    6.7867   11.1677 C   0  0  0  0  0  0  0  0  0  0  0  0
    0.7852    5.9545   12.0407 N   0  0  0  0  0  0  0  0  0  0  0  0
    2.1337    5.6984   12.0086 C   0  0  0  0  0  0  0  0  0  0  0  0
    2.8587    6.3354   11.0393 C   0  0  0  0  0  0  0  0  0  0  0  0
    4.2132    6.1701   10.8636 C   0  0  0  0  0  0  0  0  0  0  0  0
    4.9990    6.7645    9.9084 C   0  0  0  0  0  0  0  0  0  0  0  0
    4.9033    9.6196    7.7990 C   0  0  0  0  0  0  0  0  0  0  0  0
    5.0919    8.2629    8.0353 O   0  0  0  0  0  0  0  0  0  0  0  0
    6.3621    6.5856    9.7477 O   0  0  0  0  0  0  0  0  0  0  0  0
    7.2159    6.8517   10.8317 C   0  0  0  0  0  0  0  0  0  0  0  0
    3.2228    2.9061   16.5611 C   0  0  0  0  0  0  0  0  0  0  0  0
    3.1069    1.6595   16.9624 N   0  0  0  0  0  0  0  0  0  0  0  0
    3.6392    1.1884   18.1230 C   0  0  0  0  0  0  0  0  0  0  0  0
    4.3483    2.0850   18.9329 C   0  0  0  0  0  0  0  0  0  0  0  0
    4.4638    3.3754   18.5126 C   0  0  0  0  0  0  0  0  0  0  0  0
    3.9184    3.7851   17.3584 N   0  0  0  0  0  0  0  0  0  0  0  0
    4.9842    1.6895   20.2127 C   0  0  0  0  0  0  0  0  0  0  0  0
    4.8277    2.7220   21.2688 C   0  0  0  0  0  0  0  0  0  0  0  0
    3.7689    2.6565   22.1200 C   0  0  0  0  0  0  0  0  0  0  0  0
    3.5999    3.6301   23.1190 C   0  0  0  0  0  0  0  0  0  0  0  0
    4.5227    4.6277   23.2004 C   0  0  0  0  0  0  0  0  0  0  0  0
    5.5926    4.7028   22.3476 C   0  0  0  0  0  0  0  0  0  0  0  0
    5.7741    3.7550   21.3622 C   0  0  0  0  0  0  0  0  0  0  0  0
 17 18  1  0  0  0
 18  7  1  0  0  0
  7  8  2  0  0  0
  8  9  1  0  0  0
  9 10  2  0  0  0
 10 11  1  0  0  0
 11 12  2  0  0  0
 12 13  1  0  0  0
 13  1  1  0  0  0
  1  2  1  0  0  0
  2  3  1  0  0  0
  3  4  1  0  0  0
  4  5  1  0  0  0
  5  6  1  0  0  0
  4 21  1  0  0  0
 21 22  2  0  0  0
 22 23  1  0  0  0
 23 24  2  0  0  0
 24 27  1  0  0  0
 27 28  1  0  0  0
 28 29  2  0  0  0
 29 30  1  0  0  0
 30 31  2  0  0  0
 31 32  1  0  0  0
 32 33  2  0  0  0
 24 25  1  0  0  0
 25 26  2  0  0  0
 13 14  2  0  0  0
 14 15  1  0  0  0
 15 16  2  0  0  0
 16 19  1  0  0  0
 19 20  1  0  0  0
 16  7  1  0  0  0
 14  9  1  0  0  0
  6  1  1  0  0  0
 26 21  1  0  0  0
 33 28  1  0  0  0
M  END
> <minimizedAffinity>
-7.63579

> <CNNscore>
0.0977938548

> <CNNaffinity>
5.9210395813

> <CNN_VS>
0.5790413022

> <CNNaffinity_variance>
0.4245809615

$$$$
[H]c1nc(N2C([H])([H])C([H])([H])N(c3nc([H])c(C([H])([H])c4c([H])c([H])c([H])c([H])c4[H])c([H])n3)C([H])([H])C2([H])[H])c2c([H])c(OC([H])([H])[H])c(OC([H])([H])[H])c([H])c2n1


 33 37  0  0  0  0  0  0  0  0999 V2000
    2.8069    4.8269   13.9366 N   0  0  0  0  0  0  0  0  0  0  0  0
    1.6162    5.4506   13.4522 C   0  0  0  0  0  0  0  0  0  0  0  0
    1.4706    5.3760   11.9279 C   0  0  0  0  0  0  0  0  0  0  0  0
    2.7311    5.5840   11.2554 N   0  0  0  0  0  0  0  0  0  0  0  0
    3.9125    4.8697   11.7693 C   0  0  0  0  0  0  0  0  0  0  0  0
    4.0514    5.2468   13.2388 C   0  0  0  0  0  0  0  0  0  0  0  0
    3.7418    4.8856   18.9328 C   0  0  0  0  0  0  0  0  0  0  0  0
    3.6804    3.5764   18.5254 C   0  0  0  0  0  0  0  0  0  0  0  0
    3.4319    3.2123   17.2234 C   0  0  0  0  0  0  0  0  0  0  0  0
    3.3607    1.9259   16.8682 N   0  0  0  0  0  0  0  0  0  0  0  0
    3.1022    1.6061   15.5951 C   0  0  0  0  0  0  0  0  0  0  0  0
    2.9118    2.5300   14.6524 N   0  0  0  0  0  0  0  0  0  0  0  0
    2.9706    3.8704   14.9436 C   0  0  0  0  0  0  0  0  0  0  0  0
    3.2307    4.2074   16.2435 C   0  0  0  0  0  0  0  0  0  0  0  0
    3.3028    5.5038   16.6984 C   0  0  0  0  0  0  0  0  0  0  0  0
    3.5461    5.9134   17.9854 C   0  0  0  0  0  0  0  0  0  0  0  0
    5.1913    4.8696   20.8418 C   0  0  0  0  0  0  0  0  0  0  0  0
    3.9939    5.2538   20.2496 O   0  0  0  0  0  0  0  0  0  0  0  0
    3.6152    7.2244   18.4241 O   0  0  0  0  0  0  0  0  0  0  0  0
    4.2900    8.1714   17.6349 C   0  0  0  0  0  0  0  0  0  0  0  0
    2.9296    6.4489   10.1418 C   0  0  0  0  0  0  0  0  0  0  0  0
    3.6097    6.1652    9.0530 N   0  0  0  0  0  0  0  0  0  0  0  0
    3.7787    7.0361    8.0210 C   0  0  0  0  0  0  0  0  0  0  0  0
    3.1951    8.3051    8.1291 C   0  0  0  0  0  0  0  0  0  0  0  0
    2.4928    8.5937    9.2599 C   0  0  0  0  0  0  0  0  0  0  0  0
    2.3583    7.6959   10.2464 N   0  0  0  0  0  0  0  0  0  0  0  0
    3.2978    9.3355    7.0678 C   0  0  0  0  0  0  0  0  0  0  0  0
    2.0412    9.4773    6.2889 C   0  0  0  0  0  0  0  0  0  0  0  0
    1.8215    8.6703    5.2163 C   0  0  0  0  0  0  0  0  0  0  0  0
    0.6425    8.7970    4.4624 C   0  0  0  0  0  0  0  0  0  0  0  0
   -0.2580    9.7454    4.8405 C   0  0  0  0  0  0  0  0  0  0  0  0
   -0.0460   10.5634    5.9191 C   0  0  0  0  0  0  0  0  0  0  0  0
    1.1052   10.4518    6.6707 C   0  0  0  0  0  0  0  0  0  0  0  0
 17 18  1  0  0  0
 18  7  1  0  0  0
  7  8  2  0  0  0
  8  9  1  0  0  0
  9 10  2  0  0  0
 10 11  1  0  0  0
 11 12  2  0  0  0
 12 13  1  0  0  0
 13  1  1  0  0  0
  1  2  1  0  0  0
  2  3  1  0  0  0
  3  4  1  0  0  0
  4  5  1  0  0  0
  5  6  1  0  0  0
  4 21  1  0  0  0
 21 22  2  0  0  0
 22 23  1  0  0  0
 23 24  2  0  0  0
 24 27  1  0  0  0
 27 28  1  0  0  0
 28 29  2  0  0  0
 29 30  1  0  0  0
 30 31  2  0  0  0
 31 32  1  0  0  0
 32 33  2  0  0  0
 24 25  1  0  0  0
 25 26  2  0  0  0
 13 14  2  0  0  0
 14 15  1  0  0  0
 15 16  2  0  0  0
 16 19  1  0  0  0
 19 20  1  0  0  0
 16  7  1  0  0  0
 14  9  1  0  0  0
  6  1  1  0  0  0
 26 21  1  0  0  0
 33 28  1  0  0  0
M  END
> <minimizedAffinity>
-6.53546

> <CNNscore>
0.0939708129

> <CNNaffinity>
5.5755348206

> <CNN_VS>
0.5239375234

> <CNNaffinity_variance>
0.4164709449

$$$$
[H]c1c([H])c(N([H])C(=O)N([H])c2c([H])c([H])c(-c3c([H])c([H])c([H])c4onc(N([H])[H])c34)c([H])c2[H])c([H])c(C([H])([H])[H])c1[H]


 31 34  0  0  0  0  0  0  0  0999 V2000
    2.4466    5.6042   13.4648 C   0  0  0  0  0  0  0  0  0  0  0  0
    1.7435    5.6049   14.6696 C   0  0  0  0  0  0  0  0  0  0  0  0
    2.1521    4.8402   15.7283 C   0  0  0  0  0  0  0  0  0  0  0  0
    3.2639    4.0292   15.6856 C   0  0  0  0  0  0  0  0  0  0  0  0
    3.9651    4.0226   14.4984 C   0  0  0  0  0  0  0  0  0  0  0  0
    3.5485    4.8024   13.4202 C   0  0  0  0  0  0  0  0  0  0  0  0
    3.7013    3.1963   16.8178 C   0  0  0  0  0  0  0  0  0  0  0  0
    4.5532    3.7254   17.7809 C   0  0  0  0  0  0  0  0  0  0  0  0
    4.9407    2.9806   18.8732 C   0  0  0  0  0  0  0  0  0  0  0  0
    4.5070    1.6937   19.0574 C   0  0  0  0  0  0  0  0  0  0  0  0
    3.6632    1.1713   18.0994 C   0  0  0  0  0  0  0  0  0  0  0  0
    3.1110   -0.0160   18.0266 O   0  0  0  0  0  0  0  0  0  0  0  0
    2.3888   -0.0964   16.9554 N   0  0  0  0  0  0  0  0  0  0  0  0
    2.4541    1.0777   16.2800 C   0  0  0  0  0  0  0  0  0  0  0  0
    1.7874    1.3034   15.0526 N   0  0  0  0  0  0  0  0  0  0  0  0
    3.2648    1.9116   16.9937 C   0  0  0  0  0  0  0  0  0  0  0  0
    2.3025    1.5149   14.1741 H   0  0  0  0  0  0  0  0  0  0  0  0
    0.7404    1.2566   15.0247 H   0  0  0  0  0  0  0  0  0  0  0  0
    0.8765    6.9496   10.3212 N   0  0  0  0  0  0  0  0  0  0  0  0
    1.2619    6.0005   11.2864 C   0  0  0  0  0  0  0  0  0  0  0  0
    0.9333    4.8151   11.0797 O   0  0  0  0  0  0  0  0  0  0  0  0
    1.9843    6.4249   12.4149 N   0  0  0  0  0  0  0  0  0  0  0  0
    1.1700    7.9610   10.5145 H   0  0  0  0  0  0  0  0  0  0  0  0
    2.1832    7.4747   12.4416 H   0  0  0  0  0  0  0  0  0  0  0  0
    0.9197    6.8880    5.3873 C   0  0  0  0  0  0  0  0  0  0  0  0
    0.2015    6.7291    6.6816 C   0  0  0  0  0  0  0  0  0  0  0  0
   -1.1462    6.3822    6.6773 C   0  0  0  0  0  0  0  0  0  0  0  0
   -1.8285    6.2304    7.8587 C   0  0  0  0  0  0  0  0  0  0  0  0
   -1.1729    6.4239    9.0939 C   0  0  0  0  0  0  0  0  0  0  0  0
    0.1508    6.7646    9.1297 C   0  0  0  0  0  0  0  0  0  0  0  0
    0.7844    6.9030    7.8930 C   0  0  0  0  0  0  0  0  0  0  0  0
 25 26  1  0  0  0
 26 27  2  0  0  0
 27 28  1  0  0  0
 28 29  2  0  0  0
 29 30  1  0  0  0
 30 19  1  0  0  0
 19 20  1  0  0  0
 20 21  2  0  0  0
 20 22  1  0  0  0
 22  1  1  0  0  0
  1  2  2  0  0  0
  2  3  1  0  0  0
  3  4  2  0  0  0
  4  5  1  0  0  0
  5  6  2  0  0  0
  4  7  1  0  0  0
  7  8  2  0  0  0
  8  9  1  0  0  0
  9 10  2  0  0  0
 10 11  1  0  0  0
 11 12  1  0  0  0
 12 13  1  0  0  0
 13 14  2  0  0  0
 14 15  1  0  0  0
 14 16  1  0  0  0
 30 31  2  0  0  0
 31 26  1  0  0  0
  6  1  1  0  0  0
 16  7  1  0  0  0
 16 11  2  0  0  0
 19 23  1  0  0  0
 22 24  1  0  0  0
 15 17  1  0  0  0
 15 18  1  0  0  0
M  END
> <minimizedAffinity>
-7.14072

> <CNNscore>
0.6056792736

> <CNNaffinity>
5.6076231003

> <CNN_VS>
3.3964211941

> <CNNaffinity_variance>
0.3428030610

$$$$
[H]c1c([H])c(N([H])C(=O)N([H])c2c([H])c([H])c(-c3c([H])c([H])c([H])c4onc(N([H])[H])c34)c([H])c2[H])c([H])c(C([H])([H])[H])c1[H]


 31 34  0  0  0  0  0  0  0  0999 V2000
    5.0349    4.8727   21.2785 C   0  0  0  0  0  0  0  0  0  0  0  0
    4.0509    5.3554   20.4156 C   0  0  0  0  0  0  0  0  0  0  0  0
    3.6526    4.6352   19.3223 C   0  0  0  0  0  0  0  0  0  0  0  0
    4.1818    3.4063   18.9977 C   0  0  0  0  0  0  0  0  0  0  0  0
    5.1549    2.9214   19.8455 C   0  0  0  0  0  0  0  0  0  0  0  0
    5.5599    3.6555   20.9596 C   0  0  0  0  0  0  0  0  0  0  0  0
    3.7647    2.6327   17.8168 C   0  0  0  0  0  0  0  0  0  0  0  0
    3.8949    3.1812   16.5457 C   0  0  0  0  0  0  0  0  0  0  0  0
    3.5536    2.4604   15.4224 C   0  0  0  0  0  0  0  0  0  0  0  0
    3.0735    1.1797   15.5074 C   0  0  0  0  0  0  0  0  0  0  0  0
    2.9441    0.6390   16.7697 C   0  0  0  0  0  0  0  0  0  0  0  0
    2.5133   -0.5448   17.1343 O   0  0  0  0  0  0  0  0  0  0  0  0
    2.5488   -0.6438   18.4244 N   0  0  0  0  0  0  0  0  0  0  0  0
    3.0206    0.5132   18.9513 C   0  0  0  0  0  0  0  0  0  0  0  0
    3.1608    0.7304   20.3424 N   0  0  0  0  0  0  0  0  0  0  0  0
    3.2848    1.3549   17.9103 C   0  0  0  0  0  0  0  0  0  0  0  0
    2.6331    1.4747   20.8419 H   0  0  0  0  0  0  0  0  0  0  0  0
    3.8170    0.1232   20.8899 H   0  0  0  0  0  0  0  0  0  0  0  0
    6.7326    7.2088   23.6906 N   0  0  0  0  0  0  0  0  0  0  0  0
    6.5135    6.4960   22.4969 C   0  0  0  0  0  0  0  0  0  0  0  0
    7.3436    6.6562   21.5798 O   0  0  0  0  0  0  0  0  0  0  0  0
    5.3923    5.6545   22.3969 N   0  0  0  0  0  0  0  0  0  0  0  0
    6.0115    7.0562   24.4672 H   0  0  0  0  0  0  0  0  0  0  0  0
    4.7792    5.6313   23.2721 H   0  0  0  0  0  0  0  0  0  0  0  0
   10.9371    7.9973   26.1503 C   0  0  0  0  0  0  0  0  0  0  0  0
    9.8591    8.4672   25.2373 C   0  0  0  0  0  0  0  0  0  0  0  0
    9.9173    9.7570   24.7180 C   0  0  0  0  0  0  0  0  0  0  0  0
    8.9343   10.2116   23.8745 C   0  0  0  0  0  0  0  0  0  0  0  0
    7.8513    9.3773   23.5222 C   0  0  0  0  0  0  0  0  0  0  0  0
    7.7675    8.1052   24.0161 C   0  0  0  0  0  0  0  0  0  0  0  0
    8.7997    7.7065   24.8682 C   0  0  0  0  0  0  0  0  0  0  0  0
 25 26  1  0  0  0
 26 27  2  0  0  0
 27 28  1  0  0  0
 28 29  2  0  0  0
 29 30  1  0  0  0
 30 19  1  0  0  0
 19 20  1  0  0  0
 20 21  2  0  0  0
 20 22  1  0  0  0
 22  1  1  0  0  0
  1  2  2  0  0  0
  2  3  1  0  0  0
  3  4  2  0  0  0
  4  5  1  0  0  0
  5  6  2  0  0  0
  4  7  1  0  0  0
  7  8  2  0  0  0
  8  9  1  0  0  0
  9 10  2  0  0  0
 10 11  1  0  0  0
 11 12  1  0  0  0
 12 13  1  0  0  0
 13 14  2  0  0  0
 14 15  1  0  0  0
 14 16  1  0  0  0
 30 31  2  0  0  0
 31 26  1  0  0  0
  6  1  1  0  0  0
 16  7  1  0  0  0
 16 11  2  0  0  0
 19 23  1  0  0  0
 22 24  1  0  0  0
 15 17  1  0  0  0
 15 18  1  0  0  0
M  END
> <minimizedAffinity>
-9.04893

> <CNNscore>
0.3085314333

> <CNNaffinity>
5.8697881699

> <CNN_VS>
1.8110141754

> <CNNaffinity_variance>
0.4754988253

$$$$
[H]c1c([H])c(N([H])C(=O)N([H])c2c([H])c([H])c(-c3c([H])c([H])c([H])c4onc(N([H])[H])c34)c([H])c2[H])c([H])c(C([H])([H])[H])c1[H]


 31 34  0  0  0  0  0  0  0  0999 V2000
    3.3914    4.7133   15.9700 C   0  0  0  0  0  0  0  0  0  0  0  0
    2.7311    5.0388   17.1549 C   0  0  0  0  0  0  0  0  0  0  0  0
    3.1968    4.6059   18.3667 C   0  0  0  0  0  0  0  0  0  0  0  0
    4.3276    3.8328   18.5055 C   0  0  0  0  0  0  0  0  0  0  0  0
    4.9867    3.5067   17.3392 C   0  0  0  0  0  0  0  0  0  0  0  0
    4.5120    3.9484   16.1048 C   0  0  0  0  0  0  0  0  0  0  0  0
    4.8263    3.3555   19.8056 C   0  0  0  0  0  0  0  0  0  0  0  0
    5.5717    4.2034   20.6173 C   0  0  0  0  0  0  0  0  0  0  0  0
    6.0113    3.7949   21.8574 C   0  0  0  0  0  0  0  0  0  0  0  0
    5.7358    2.5432   22.3424 C   0  0  0  0  0  0  0  0  0  0  0  0
    4.9974    1.7040   21.5342 C   0  0  0  0  0  0  0  0  0  0  0  0
    4.6008    0.4719   21.7454 O   0  0  0  0  0  0  0  0  0  0  0  0
    3.9317    0.0474   20.7219 N   0  0  0  0  0  0  0  0  0  0  0  0
    3.8730    1.0265   19.7855 C   0  0  0  0  0  0  0  0  0  0  0  0
    3.2260    0.8669   18.5374 N   0  0  0  0  0  0  0  0  0  0  0  0
    4.5480    2.1035   20.2820 C   0  0  0  0  0  0  0  0  0  0  0  0
    3.7407    0.9294   17.6357 H   0  0  0  0  0  0  0  0  0  0  0  0
    2.1946    0.6796   18.5177 H   0  0  0  0  0  0  0  0  0  0  0  0
    1.6212    5.1239   12.6752 N   0  0  0  0  0  0  0  0  0  0  0  0
    2.0556    4.4915   13.8552 C   0  0  0  0  0  0  0  0  0  0  0  0
    1.6841    3.3150   14.0383 O   0  0  0  0  0  0  0  0  0  0  0  0
    2.8709    5.2015   14.7532 N   0  0  0  0  0  0  0  0  0  0  0  0
    1.9526    6.1322   12.5341 H   0  0  0  0  0  0  0  0  0  0  0  0
    3.0963    6.2008   14.4483 H   0  0  0  0  0  0  0  0  0  0  0  0
    1.3427    2.6888    8.3924 C   0  0  0  0  0  0  0  0  0  0  0  0
    0.6914    3.4019    9.5255 C   0  0  0  0  0  0  0  0  0  0  0  0
   -0.6941    3.5309    9.5459 C   0  0  0  0  0  0  0  0  0  0  0  0
   -1.3160    4.1846   10.5804 C   0  0  0  0  0  0  0  0  0  0  0  0
   -0.5592    4.7348   11.6375 C   0  0  0  0  0  0  0  0  0  0  0  0
    0.8035    4.6233   11.6451 C   0  0  0  0  0  0  0  0  0  0  0  0
    1.3717    3.9471   10.5634 C   0  0  0  0  0  0  0  0  0  0  0  0
 25 26  1  0  0  0
 26 27  2  0  0  0
 27 28  1  0  0  0
 28 29  2  0  0  0
 29 30  1  0  0  0
 30 19  1  0  0  0
 19 20  1  0  0  0
 20 21  2  0  0  0
 20 22  1  0  0  0
 22  1  1  0  0  0
  1  2  2  0  0  0
  2  3  1  0  0  0
  3  4  2  0  0  0
  4  5  1  0  0  0
  5  6  2  0  0  0
  4  7  1  0  0  0
  7  8  2  0  0  0
  8  9  1  0  0  0
  9 10  2  0  0  0
 10 11  1  0  0  0
 11 12  1  0  0  0
 12 13  1  0  0  0
 13 14  2  0  0  0
 14 15  1  0  0  0
 14 16  1  0  0  0
 30 31  2  0  0  0
 31 26  1  0  0  0
  6  1  1  0  0  0
 16  7  1  0  0  0
 16 11  2  0  0  0
 19 23  1  0  0  0
 22 24  1  0  0  0
 15 17  1  0  0  0
 15 18  1  0  0  0
M  END
> <minimizedAffinity>
-7.20660

> <CNNscore>
0.2990430295

> <CNNaffinity>
5.6825819016

> <CNN_VS>
1.6993365288

> <CNNaffinity_variance>
0.8219537735

$$$$
[H]c1c([H])c(N([H])C(=O)N([H])c2c([H])c([H])c(-c3c([H])c([H])c([H])c4onc(N([H])[H])c34)c([H])c2[H])c([H])c(C([H])([H])[H])c1[H]


 31 34  0  0  0  0  0  0  0  0999 V2000
    3.4225    3.3128   16.3199 C   0  0  0  0  0  0  0  0  0  0  0  0
    4.2969    2.3196   16.7615 C   0  0  0  0  0  0  0  0  0  0  0  0
    4.7444    2.2940   18.0544 C   0  0  0  0  0  0  0  0  0  0  0  0
    4.3740    3.2266   18.9972 C   0  0  0  0  0  0  0  0  0  0  0  0
    3.5095    4.2118   18.5692 C   0  0  0  0  0  0  0  0  0  0  0  0
    3.0536    4.2371   17.2518 C   0  0  0  0  0  0  0  0  0  0  0  0
    4.8611    3.2098   20.3861 C   0  0  0  0  0  0  0  0  0  0  0  0
    5.7592    4.1791   20.8189 C   0  0  0  0  0  0  0  0  0  0  0  0
    6.1949    4.2112   22.1255 C   0  0  0  0  0  0  0  0  0  0  0  0
    5.7659    3.2953   23.0501 C   0  0  0  0  0  0  0  0  0  0  0  0
    4.8762    2.3342   22.6172 C   0  0  0  0  0  0  0  0  0  0  0  0
    4.3170    1.3504   23.2801 O   0  0  0  0  0  0  0  0  0  0  0  0
    3.5450    0.6754   22.4904 N   0  0  0  0  0  0  0  0  0  0  0  0
    3.5826    1.2216   21.2498 C   0  0  0  0  0  0  0  0  0  0  0  0
    2.8597    0.6995   20.1512 N   0  0  0  0  0  0  0  0  0  0  0  0
    4.4288    2.2908   21.3029 C   0  0  0  0  0  0  0  0  0  0  0  0
    3.3338    0.3358   19.2999 H   0  0  0  0  0  0  0  0  0  0  0  0
    1.8124    0.6774   20.1939 H   0  0  0  0  0  0  0  0  0  0  0  0
    1.7624    4.0094   13.0159 N   0  0  0  0  0  0  0  0  0  0  0  0
    2.1058    4.1883   14.3690 C   0  0  0  0  0  0  0  0  0  0  0  0
    1.5998    5.1639   14.9587 O   0  0  0  0  0  0  0  0  0  0  0  0
    2.9850    3.2773   14.9794 N   0  0  0  0  0  0  0  0  0  0  0  0
    2.2041    3.1651   12.5275 H   0  0  0  0  0  0  0  0  0  0  0  0
    3.3305    2.4984   14.3340 H   0  0  0  0  0  0  0  0  0  0  0  0
   -2.8377    4.9946   11.5267 C   0  0  0  0  0  0  0  0  0  0  0  0
   -1.3740    5.2638   11.4862 C   0  0  0  0  0  0  0  0  0  0  0  0
   -0.8886    6.2813   10.6704 C   0  0  0  0  0  0  0  0  0  0  0  0
    0.4571    6.5471   10.6171 C   0  0  0  0  0  0  0  0  0  0  0  0
    1.3669    5.7923   11.3888 C   0  0  0  0  0  0  0  0  0  0  0  0
    0.9194    4.7869   12.2002 C   0  0  0  0  0  0  0  0  0  0  0  0
   -0.4601    4.5693   12.2070 C   0  0  0  0  0  0  0  0  0  0  0  0
 25 26  1  0  0  0
 26 27  2  0  0  0
 27 28  1  0  0  0
 28 29  2  0  0  0
 29 30  1  0  0  0
 30 19  1  0  0  0
 19 20  1  0  0  0
 20 21  2  0  0  0
 20 22  1  0  0  0
 22  1  1  0  0  0
  1  2  2  0  0  0
  2  3  1  0  0  0
  3  4  2  0  0  0
  4  5  1  0  0  0
  5  6  2  0  0  0
  4  7  1  0  0  0
  7  8  2  0  0  0
  8  9  1  0  0  0
  9 10  2  0  0  0
 10 11  1  0  0  0
 11 12  1  0  0  0
 12 13  1  0  0  0
 13 14  2  0  0  0
 14 15  1  0  0  0
 14 16  1  0  0  0
 30 31  2  0  0  0
 31 26  1  0  0  0
  6  1  1  0  0  0
 16  7  1  0  0  0
 16 11  2  0  0  0
 19 23  1  0  0  0
 22 24  1  0  0  0
 15 17  1  0  0  0
 15 18  1  0  0  0
M  END
> <minimizedAffinity>
-7.86234

> <CNNscore>
0.2941128016

> <CNNaffinity>
5.7001299858

> <CNN_VS>
1.6764812469

> <CNNaffinity_variance>
0.5175614953

$$$$
[H]c1c([H])c(N([H])C(=O)N([H])c2c([H])c([H])c(-c3c([H])c([H])c([H])c4onc(N([H])[H])c34)c([H])c2[H])c([H])c(C([H])([H])[H])c1[H]


 31 34  0  0  0  0  0  0  0  0999 V2000
    3.0581    7.1570   15.0099 C   0  0  0  0  0  0  0  0  0  0  0  0
    3.5405    5.9270   15.4575 C   0  0  0  0  0  0  0  0  0  0  0  0
    4.4216    5.8496   16.5017 C   0  0  0  0  0  0  0  0  0  0  0  0
    4.8890    6.9558   17.1750 C   0  0  0  0  0  0  0  0  0  0  0  0
    4.4170    8.1758   16.7393 C   0  0  0  0  0  0  0  0  0  0  0  0
    3.5190    8.2540   15.6755 C   0  0  0  0  0  0  0  0  0  0  0  0
    5.8451    6.8786   18.2916 C   0  0  0  0  0  0  0  0  0  0  0  0
    7.1927    7.1409   18.0714 C   0  0  0  0  0  0  0  0  0  0  0  0
    8.0995    7.1189   19.1083 C   0  0  0  0  0  0  0  0  0  0  0  0
    7.7163    6.8391   20.3939 C   0  0  0  0  0  0  0  0  0  0  0  0
    6.3791    6.5780   20.6087 C   0  0  0  0  0  0  0  0  0  0  0  0
    5.7511    6.2820   21.7214 O   0  0  0  0  0  0  0  0  0  0  0  0
    4.4919    6.1067   21.4785 N   0  0  0  0  0  0  0  0  0  0  0  0
    4.2593    6.2910   20.1553 C   0  0  0  0  0  0  0  0  0  0  0  0
    2.9805    6.1500   19.5665 N   0  0  0  0  0  0  0  0  0  0  0  0
    5.4545    6.5971   19.5722 C   0  0  0  0  0  0  0  0  0  0  0  0
    2.7822    5.4326   18.8399 H   0  0  0  0  0  0  0  0  0  0  0  0
    2.2059    6.7878   19.8705 H   0  0  0  0  0  0  0  0  0  0  0  0
   -0.0021    6.8823   12.8380 N   0  0  0  0  0  0  0  0  0  0  0  0
    0.7815    6.8189   14.0054 C   0  0  0  0  0  0  0  0  0  0  0  0
    0.2128    6.4469   15.0512 O   0  0  0  0  0  0  0  0  0  0  0  0
    2.1406    7.1709   13.9386 N   0  0  0  0  0  0  0  0  0  0  0  0
    0.5040    7.2008   11.9499 H   0  0  0  0  0  0  0  0  0  0  0  0
    2.4713    7.4697   12.9671 H   0  0  0  0  0  0  0  0  0  0  0  0
   -3.4285    4.2724   10.4300 C   0  0  0  0  0  0  0  0  0  0  0  0
   -3.0478    5.2748   11.4629 C   0  0  0  0  0  0  0  0  0  0  0  0
   -4.0400    5.8703   12.2359 C   0  0  0  0  0  0  0  0  0  0  0  0
   -3.7122    6.7972   13.1938 C   0  0  0  0  0  0  0  0  0  0  0  0
   -2.3645    7.1590   13.4082 C   0  0  0  0  0  0  0  0  0  0  0  0
   -1.3679    6.5904   12.6647 C   0  0  0  0  0  0  0  0  0  0  0  0
   -1.7703    5.6560   11.7080 C   0  0  0  0  0  0  0  0  0  0  0  0
 25 26  1  0  0  0
 26 27  2  0  0  0
 27 28  1  0  0  0
 28 29  2  0  0  0
 29 30  1  0  0  0
 30 19  1  0  0  0
 19 20  1  0  0  0
 20 21  2  0  0  0
 20 22  1  0  0  0
 22  1  1  0  0  0
  1  2  2  0  0  0
  2  3  1  0  0  0
  3  4  2  0  0  0
  4  5  1  0  0  0
  5  6  2  0  0  0
  4  7  1  0  0  0
  7  8  2  0  0  0
  8  9  1  0  0  0
  9 10  2  0  0  0
 10 11  1  0  0  0
 11 12  1  0  0  0
 12 13  1  0  0  0
 13 14  2  0  0  0
 14 15  1  0  0  0
 14 16  1  0  0  0
 30 31  2  0  0  0
 31 26  1  0  0  0
  6  1  1  0  0  0
 16  7  1  0  0  0
 16 11  2  0  0  0
 19 23  1  0  0  0
 22 24  1  0  0  0
 15 17  1  0  0  0
 15 18  1  0  0  0
M  END
> <minimizedAffinity>
-7.25068

> <CNNscore>
0.2775492668

> <CNNaffinity>
5.2655248642

> <CNN_VS>
1.4614425898

> <CNNaffinity_variance>
0.3865172267

$$$$
[H]c1c([H])c(N([H])C(=O)N([H])c2c([H])c([H])c(-c3c([H])c([H])c([H])c4onc(N([H])[H])c34)c([H])c2[H])c([H])c(C([H])([H])[H])c1[H]


 31 34  0  0  0  0  0  0  0  0999 V2000
    3.7844    3.6257   16.0946 C   0  0  0  0  0  0  0  0  0  0  0  0
    4.9229    4.2257   16.6330 C   0  0  0  0  0  0  0  0  0  0  0  0
    5.2940    4.0026   17.9312 C   0  0  0  0  0  0  0  0  0  0  0  0
    4.5871    3.1870   18.7860 C   0  0  0  0  0  0  0  0  0  0  0  0
    3.4605    2.5896   18.2619 C   0  0  0  0  0  0  0  0  0  0  0  0
    3.0830    2.8170   16.9390 C   0  0  0  0  0  0  0  0  0  0  0  0
    4.9760    2.9525   20.1862 C   0  0  0  0  0  0  0  0  0  0  0  0
    5.7130    1.8223   20.5224 C   0  0  0  0  0  0  0  0  0  0  0  0
    6.1271    1.6037   21.8181 C   0  0  0  0  0  0  0  0  0  0  0  0
    5.8327    2.4840   22.8261 C   0  0  0  0  0  0  0  0  0  0  0  0
    5.1003    3.6033   22.4896 C   0  0  0  0  0  0  0  0  0  0  0  0
    4.6828    4.5903   23.2456 O   0  0  0  0  0  0  0  0  0  0  0  0
    4.0202    5.4396   22.5280 N   0  0  0  0  0  0  0  0  0  0  0  0
    3.9885    5.0129   21.2412 C   0  0  0  0  0  0  0  0  0  0  0  0
    3.3206    5.7131   20.2091 N   0  0  0  0  0  0  0  0  0  0  0  0
    4.6768    3.8358   21.1872 C   0  0  0  0  0  0  0  0  0  0  0  0
    2.5228    5.2986   19.6860 H   0  0  0  0  0  0  0  0  0  0  0  0
    3.6378    6.6812   19.9614 H   0  0  0  0  0  0  0  0  0  0  0  0
    2.9787    3.3445   12.4300 N   0  0  0  0  0  0  0  0  0  0  0  0
    3.2970    2.9213   13.7340 C   0  0  0  0  0  0  0  0  0  0  0  0
    3.4164    1.6936   13.9190 O   0  0  0  0  0  0  0  0  0  0  0  0
    3.4618    3.8829   14.7457 N   0  0  0  0  0  0  0  0  0  0  0  0
    2.8833    4.4017   12.2901 H   0  0  0  0  0  0  0  0  0  0  0  0
    3.3230    4.8919   14.4216 H   0  0  0  0  0  0  0  0  0  0  0  0
    0.0961    0.1178   10.0575 C   0  0  0  0  0  0  0  0  0  0  0  0
    1.3069    0.9824   10.1112 C   0  0  0  0  0  0  0  0  0  0  0  0
    2.1664    1.0237    9.0175 C   0  0  0  0  0  0  0  0  0  0  0  0
    3.2887    1.8136    9.0450 C   0  0  0  0  0  0  0  0  0  0  0  0
    3.5865    2.5947   10.1826 C   0  0  0  0  0  0  0  0  0  0  0  0
    2.7604    2.5752   11.2719 C   0  0  0  0  0  0  0  0  0  0  0  0
    1.6372    1.7507   11.1780 C   0  0  0  0  0  0  0  0  0  0  0  0
 25 26  1  0  0  0
 26 27  2  0  0  0
 27 28  1  0  0  0
 28 29  2  0  0  0
 29 30  1  0  0  0
 30 19  1  0  0  0
 19 20  1  0  0  0
 20 21  2  0  0  0
 20 22  1  0  0  0
 22  1  1  0  0  0
  1  2  2  0  0  0
  2  3  1  0  0  0
  3  4  2  0  0  0
  4  5  1  0  0  0
  5  6  2  0  0  0
  4  7  1  0  0  0
  7  8  2  0  0  0
  8  9  1  0  0  0
  9 10  2  0  0  0
 10 11  1  0  0  0
 11 12  1  0  0  0
 12 13  1  0  0  0
 13 14  2  0  0  0
 14 15  1  0  0  0
 14 16  1  0  0  0
 30 31  2  0  0  0
 31 26  1  0  0  0
  6  1  1  0  0  0
 16  7  1  0  0  0
 16 11  2  0  0  0
 19 23  1  0  0  0
 22 24  1  0  0  0
 15 17  1  0  0  0
 15 18  1  0  0  0
M  END
> <minimizedAffinity>
-8.04852

> <CNNscore>
0.2299371362

> <CNNaffinity>
5.5061354637

> <CNN_VS>
1.2660650015

> <CNNaffinity_variance>
0.2708113790

$$$$
[H]c1c([H])c(N([H])C(=O)N([H])c2c([H])c([H])c(-c3c([H])c([H])c([H])c4onc(N([H])[H])c34)c([H])c2[H])c([H])c(C([H])([H])[H])c1[H]


 31 34  0  0  0  0  0  0  0  0999 V2000
    3.2423    2.6584   15.0659 C   0  0  0  0  0  0  0  0  0  0  0  0
    2.0505    2.2580   14.4616 C   0  0  0  0  0  0  0  0  0  0  0  0
    1.5140    2.9626   13.4184 C   0  0  0  0  0  0  0  0  0  0  0  0
    2.0969    4.0960   12.8975 C   0  0  0  0  0  0  0  0  0  0  0  0
    3.2756    4.4987   13.4886 C   0  0  0  0  0  0  0  0  0  0  0  0
    3.8220    3.7801   14.5513 C   0  0  0  0  0  0  0  0  0  0  0  0
    1.5182    4.8636   11.7828 C   0  0  0  0  0  0  0  0  0  0  0  0
    0.6413    5.9110   12.0422 C   0  0  0  0  0  0  0  0  0  0  0  0
    0.1216    6.6727   11.0186 C   0  0  0  0  0  0  0  0  0  0  0  0
    0.4433    6.4332    9.7083 C   0  0  0  0  0  0  0  0  0  0  0  0
    1.3123    5.3926    9.4542 C   0  0  0  0  0  0  0  0  0  0  0  0
    1.7778    4.9496    8.3109 O   0  0  0  0  0  0  0  0  0  0  0  0
    2.5671    3.9454    8.5209 N   0  0  0  0  0  0  0  0  0  0  0  0
    2.6386    3.7006    9.8527 C   0  0  0  0  0  0  0  0  0  0  0  0
    3.4069    2.6496   10.4069 N   0  0  0  0  0  0  0  0  0  0  0  0
    1.8435    4.6171   10.4769 C   0  0  0  0  0  0  0  0  0  0  0  0
    2.9735    1.8716   10.9444 H   0  0  0  0  0  0  0  0  0  0  0  0
    4.4467    2.6524   10.2731 H   0  0  0  0  0  0  0  0  0  0  0  0
    4.2818    1.3335   18.4306 N   0  0  0  0  0  0  0  0  0  0  0  0
    3.7214    2.2195   17.4915 C   0  0  0  0  0  0  0  0  0  0  0  0
    3.2200    3.2724   17.9336 O   0  0  0  0  0  0  0  0  0  0  0  0
    3.7529    1.8824   16.1274 N   0  0  0  0  0  0  0  0  0  0  0  0
    4.7100    0.4367   18.0321 H   0  0  0  0  0  0  0  0  0  0  0  0
    4.2172    0.9431   15.9161 H   0  0  0  0  0  0  0  0  0  0  0  0
    6.4498    3.4677   22.3158 C   0  0  0  0  0  0  0  0  0  0  0  0
    5.4433    2.5329   21.7417 C   0  0  0  0  0  0  0  0  0  0  0  0
    4.6003    1.8277   22.5954 C   0  0  0  0  0  0  0  0  0  0  0  0
    3.6651    0.9603   22.0883 C   0  0  0  0  0  0  0  0  0  0  0  0
    3.5453    0.7716   20.6944 C   0  0  0  0  0  0  0  0  0  0  0  0
    4.3591    1.4510   19.8309 C   0  0  0  0  0  0  0  0  0  0  0  0
    5.2879    2.3166   20.4126 C   0  0  0  0  0  0  0  0  0  0  0  0
 25 26  1  0  0  0
 26 27  2  0  0  0
 27 28  1  0  0  0
 28 29  2  0  0  0
 29 30  1  0  0  0
 30 19  1  0  0  0
 19 20  1  0  0  0
 20 21  2  0  0  0
 20 22  1  0  0  0
 22  1  1  0  0  0
  1  2  2  0  0  0
  2  3  1  0  0  0
  3  4  2  0  0  0
  4  5  1  0  0  0
  5  6  2  0  0  0
  4  7  1  0  0  0
  7  8  2  0  0  0
  8  9  1  0  0  0
  9 10  2  0  0  0
 10 11  1  0  0  0
 11 12  1  0  0  0
 12 13  1  0  0  0
 13 14  2  0  0  0
 14 15  1  0  0  0
 14 16  1  0  0  0
 30 31  2  0  0  0
 31 26  1  0  0  0
  6  1  1  0  0  0
 16  7  1  0  0  0
 16 11  2  0  0  0
 19 23  1  0  0  0
 22 24  1  0  0  0
 15 17  1  0  0  0
 15 18  1  0  0  0
M  END
> <minimizedAffinity>
-7.41690

> <CNNscore>
0.2101250142

> <CNNaffinity>
5.5572175980

> <CNN_VS>
1.1677104235

> <CNNaffinity_variance>
0.2552919984

$$$$
[H]c1c([H])c(N([H])C(=O)N([H])c2c([H])c([H])c(-c3c([H])c([H])c([H])c4onc(N([H])[H])c34)c([H])c2[H])c([H])c(C([H])([H])[H])c1[H]


 31 34  0  0  0  0  0  0  0  0999 V2000
    4.1809    4.9877   16.2377 C   0  0  0  0  0  0  0  0  0  0  0  0
    3.0960    4.4095   16.8969 C   0  0  0  0  0  0  0  0  0  0  0  0
    3.2526    3.7834   18.1036 C   0  0  0  0  0  0  0  0  0  0  0  0
    4.4666    3.6785   18.7446 C   0  0  0  0  0  0  0  0  0  0  0  0
    5.5444    4.2477   18.1001 C   0  0  0  0  0  0  0  0  0  0  0  0
    5.3841    4.8858   16.8708 C   0  0  0  0  0  0  0  0  0  0  0  0
    4.6423    2.9965   20.0372 C   0  0  0  0  0  0  0  0  0  0  0  0
    5.0547    1.6691   20.0718 C   0  0  0  0  0  0  0  0  0  0  0  0
    5.2693    1.0227   21.2693 C   0  0  0  0  0  0  0  0  0  0  0  0
    5.0866    1.6548   22.4714 C   0  0  0  0  0  0  0  0  0  0  0  0
    4.6761    2.9711   22.4336 C   0  0  0  0  0  0  0  0  0  0  0  0
    4.4257    3.7995   23.4191 O   0  0  0  0  0  0  0  0  0  0  0  0
    4.0588    4.9458   22.9429 N   0  0  0  0  0  0  0  0  0  0  0  0
    4.0616    4.8916   21.5880 C   0  0  0  0  0  0  0  0  0  0  0  0
    3.6872    5.9824   20.7683 N   0  0  0  0  0  0  0  0  0  0  0  0
    4.4564    3.6345   21.2332 C   0  0  0  0  0  0  0  0  0  0  0  0
    2.8732    5.9352   20.1225 H   0  0  0  0  0  0  0  0  0  0  0  0
    4.2466    6.8681   20.8111 H   0  0  0  0  0  0  0  0  0  0  0  0
    3.5941    5.7947   12.6097 N   0  0  0  0  0  0  0  0  0  0  0  0
    3.8134    5.0045   13.7536 C   0  0  0  0  0  0  0  0  0  0  0  0
    3.8716    3.7696   13.5877 O   0  0  0  0  0  0  0  0  0  0  0  0
    3.9535    5.6317   15.0035 N   0  0  0  0  0  0  0  0  0  0  0  0
    3.5503    6.8522   12.7714 H   0  0  0  0  0  0  0  0  0  0  0  0
    3.8758    6.6973   14.9730 H   0  0  0  0  0  0  0  0  0  0  0  0
    0.4451    4.6271    8.9944 C   0  0  0  0  0  0  0  0  0  0  0  0
    1.8336    4.8317    9.4914 C   0  0  0  0  0  0  0  0  0  0  0  0
    2.9046    4.6485    8.6220 C   0  0  0  0  0  0  0  0  0  0  0  0
    4.1931    4.8314    9.0584 C   0  0  0  0  0  0  0  0  0  0  0  0
    4.4496    5.2079   10.3946 C   0  0  0  0  0  0  0  0  0  0  0  0
    3.4177    5.3959   11.2717 C   0  0  0  0  0  0  0  0  0  0  0  0
    2.1329    5.1931   10.7630 C   0  0  0  0  0  0  0  0  0  0  0  0
 25 26  1  0  0  0
 26 27  2  0  0  0
 27 28  1  0  0  0
 28 29  2  0  0  0
 29 30  1  0  0  0
 30 19  1  0  0  0
 19 20  1  0  0  0
 20 21  2  0  0  0
 20 22  1  0  0  0
 22  1  1  0  0  0
  1  2  2  0  0  0
  2  3  1  0  0  0
  3  4  2  0  0  0
  4  5  1  0  0  0
  5  6  2  0  0  0
  4  7  1  0  0  0
  7  8  2  0  0  0
  8  9  1  0  0  0
  9 10  2  0  0  0
 10 11  1  0  0  0
 11 12  1  0  0  0
 12 13  1  0  0  0
 13 14  2  0  0  0
 14 15  1  0  0  0
 14 16  1  0  0  0
 30 31  2  0  0  0
 31 26  1  0  0  0
  6  1  1  0  0  0
 16  7  1  0  0  0
 16 11  2  0  0  0
 19 23  1  0  0  0
 22 24  1  0  0  0
 15 17  1  0  0  0
 15 18  1  0  0  0
M  END
> <minimizedAffinity>
-7.36000

> <CNNscore>
0.1903681457

> <CNNaffinity>
5.5112748146

> <CNN_VS>
1.0491712093

> <CNNaffinity_variance>
0.1652420759

$$$$
[H]c1c([H])c(N([H])C(=O)N([H])c2c([H])c([H])c(-c3c([H])c([H])c([H])c4onc(N([H])[H])c34)c([H])c2[H])c([H])c(C([H])([H])[H])c1[H]


 31 34  0  0  0  0  0  0  0  0999 V2000
    4.2427    4.6521   16.3955 C   0  0  0  0  0  0  0  0  0  0  0  0
    3.1035    4.8670   17.1713 C   0  0  0  0  0  0  0  0  0  0  0  0
    3.1231    4.6753   18.5261 C   0  0  0  0  0  0  0  0  0  0  0  0
    4.2443    4.2644   19.2115 C   0  0  0  0  0  0  0  0  0  0  0  0
    5.3751    4.0499   18.4523 C   0  0  0  0  0  0  0  0  0  0  0  0
    5.3546    4.2458   17.0720 C   0  0  0  0  0  0  0  0  0  0  0  0
    4.2675    4.0463   20.6671 C   0  0  0  0  0  0  0  0  0  0  0  0
    4.4400    5.1242   21.5283 C   0  0  0  0  0  0  0  0  0  0  0  0
    4.4205    4.9519   22.8950 C   0  0  0  0  0  0  0  0  0  0  0  0
    4.2320    3.7189   23.4625 C   0  0  0  0  0  0  0  0  0  0  0  0
    4.0627    2.6515   22.6054 C   0  0  0  0  0  0  0  0  0  0  0  0
    3.8711    1.3824   22.8751 O   0  0  0  0  0  0  0  0  0  0  0  0
    3.7663    0.7130   21.7722 N   0  0  0  0  0  0  0  0  0  0  0  0
    3.8907    1.5586   20.7194 C   0  0  0  0  0  0  0  0  0  0  0  0
    3.8420    1.1302   19.3718 N   0  0  0  0  0  0  0  0  0  0  0  0
    4.0800    2.8115   21.2257 C   0  0  0  0  0  0  0  0  0  0  0  0
    4.6498    1.2428   18.7262 H   0  0  0  0  0  0  0  0  0  0  0  0
    2.9649    0.6847   19.0095 H   0  0  0  0  0  0  0  0  0  0  0  0
    3.8311    4.3123   12.6709 N   0  0  0  0  0  0  0  0  0  0  0  0
    3.8661    3.9217   14.0225 C   0  0  0  0  0  0  0  0  0  0  0  0
    3.6260    2.7237   14.2735 O   0  0  0  0  0  0  0  0  0  0  0  0
    4.1640    4.8808   15.0058 N   0  0  0  0  0  0  0  0  0  0  0  0
    4.0427    5.3435   12.4749 H   0  0  0  0  0  0  0  0  0  0  0  0
    4.3429    5.8628   14.6237 H   0  0  0  0  0  0  0  0  0  0  0  0
    0.8482    1.0515   10.4756 C   0  0  0  0  0  0  0  0  0  0  0  0
    2.0493    1.9310   10.4560 C   0  0  0  0  0  0  0  0  0  0  0  0
    2.8394    1.9835    9.3117 C   0  0  0  0  0  0  0  0  0  0  0  0
    3.9515    2.7871    9.2712 C   0  0  0  0  0  0  0  0  0  0  0  0
    4.3090    3.5713   10.3894 C   0  0  0  0  0  0  0  0  0  0  0  0
    3.5517    3.5411   11.5273 C   0  0  0  0  0  0  0  0  0  0  0  0
    2.4350    2.7028   11.5015 C   0  0  0  0  0  0  0  0  0  0  0  0
 25 26  1  0  0  0
 26 27  2  0  0  0
 27 28  1  0  0  0
 28 29  2  0  0  0
 29 30  1  0  0  0
 30 19  1  0  0  0
 19 20  1  0  0  0
 20 21  2  0  0  0
 20 22  1  0  0  0
 22  1  1  0  0  0
  1  2  2  0  0  0
  2  3  1  0  0  0
  3  4  2  0  0  0
  4  5  1  0  0  0
  5  6  2  0  0  0
  4  7  1  0  0  0
  7  8  2  0  0  0
  8  9  1  0  0  0
  9 10  2  0  0  0
 10 11  1  0  0  0
 11 12  1  0  0  0
 12 13  1  0  0  0
 13 14  2  0  0  0
 14 15  1  0  0  0
 14 16  1  0  0  0
 30 31  2  0  0  0
 31 26  1  0  0  0
  6  1  1  0  0  0
 16  7  1  0  0  0
 16 11  2  0  0  0
 19 23  1  0  0  0
 22 24  1  0  0  0
 15 17  1  0  0  0
 15 18  1  0  0  0
M  END
> <minimizedAffinity>
-8.41031

> <CNNscore>
0.1865968406

> <CNNaffinity>
5.4315185547

> <CNN_VS>
1.0135041475

> <CNNaffinity_variance>
0.2959854603

$$$$
