[H]c1nc(N([H])c2nc([H])c([H])c3c([H])c([N+](=O)[O-])c([H])c([H])c23)c([H])c(N([H])C([H])([H])C2([H])C([H])([H])C2([H])[H])n1


 27 30  0  0  0  0  0  0  0  0999 V2000
    4.4715    1.9304   17.2126 N   0  0  0  0  0  0  0  0  0  0  0  0
    5.5440    1.8806   17.1492 H   0  0  0  0  0  0  0  0  0  0  0  0
    4.3120    2.5103   22.2365 C   0  0  0  0  0  0  0  0  0  0  0  0
    4.9244    3.2024   21.2279 C   0  0  0  0  0  0  0  0  0  0  0  0
    4.7558    2.7586   19.9196 C   0  0  0  0  0  0  0  0  0  0  0  0
    4.0086    1.6621   19.5711 C   0  0  0  0  0  0  0  0  0  0  0  0
    3.8597    1.2423   18.2421 C   0  0  0  0  0  0  0  0  0  0  0  0
    3.1023    0.1612   18.0792 N   0  0  0  0  0  0  0  0  0  0  0  0
    2.4949   -0.5288   19.0573 C   0  0  0  0  0  0  0  0  0  0  0  0
    2.6288   -0.1311   20.3788 C   0  0  0  0  0  0  0  0  0  0  0  0
    3.3970    0.9747   20.6032 C   0  0  0  0  0  0  0  0  0  0  0  0
    3.5537    1.4034   21.9201 C   0  0  0  0  0  0  0  0  0  0  0  0
    5.1349    2.1336   24.4687 O   0  0  0  0  0  0  0  0  0  0  0  0
    4.4545    2.9242   23.5852 N   0  0  0  0  0  0  0  0  0  0  0  0
    3.9719    3.9983   23.9894 O   0  0  0  0  0  0  0  0  0  0  0  0
    3.9029    2.7269   16.1784 C   0  0  0  0  0  0  0  0  0  0  0  0
    3.0099    2.2658   15.2597 C   0  0  0  0  0  0  0  0  0  0  0  0
    2.4764    3.0826   14.2609 C   0  0  0  0  0  0  0  0  0  0  0  0
    2.8932    4.3595   14.2523 N   0  0  0  0  0  0  0  0  0  0  0  0
    3.7710    4.8365   15.1454 C   0  0  0  0  0  0  0  0  0  0  0  0
    4.2575    4.0347   16.0798 N   0  0  0  0  0  0  0  0  0  0  0  0
    1.5465    2.5790   13.3140 N   0  0  0  0  0  0  0  0  0  0  0  0
    1.4894    1.5647   13.1396 H   0  0  0  0  0  0  0  0  0  0  0  0
    0.7084    3.5008   12.6231 C   0  0  0  0  0  0  0  0  0  0  0  0
    1.0300    3.6869   11.1850 C   0  0  0  0  0  0  0  0  0  0  0  0
   -0.1451    3.3965   10.2497 C   0  0  0  0  0  0  0  0  0  0  0  0
    0.4789    4.7400   10.3361 C   0  0  0  0  0  0  0  0  0  0  0  0
 13 14  1  0  0  0
 14 15  2  0  0  0
 14  3  1  0  0  0
  3  4  2  0  0  0
  4  5  1  0  0  0
  5  6  2  0  0  0
  6  7  1  0  0  0
  7  1  1  0  0  0
  1 16  1  0  0  0
 16 17  2  0  0  0
 17 18  1  0  0  0
 18 22  1  0  0  0
 22 24  1  0  0  0
 24 25  1  0  0  0
 25 26  1  0  0  0
 26 27  1  0  0  0
 18 19  2  0  0  0
 19 20  1  0  0  0
 20 21  2  0  0  0
  7  8  2  0  0  0
  8  9  1  0  0  0
  9 10  2  0  0  0
 10 11  1  0  0  0
 11 12  2  0  0  0
 12  3  1  0  0  0
 11  6  1  0  0  0
 21 16  1  0  0  0
 27 25  1  0  0  0
  1  2  1  0  0  0
 22 23  1  0  0  0
M  CHG 1  13  -1
M  CHG 1  14   1
M  END
> <minimizedAffinity>
-7.08010

> <CNNscore>
0.6110152006

> <CNNaffinity>
6.4982323647

> <CNN_VS>
3.9705188274

> <CNNaffinity_variance>
0.2982939780

$$$$
[H]c1nc(N([H])c2nc([H])c([H])c3c([H])c([N+](=O)[O-])c([H])c([H])c23)c([H])c(N([H])C([H])([H])C2([H])C([H])([H])C2([H])[H])n1


 27 30  0  0  0  0  0  0  0  0999 V2000
    3.7399    2.0756   16.2109 N   0  0  0  0  0  0  0  0  0  0  0  0
    4.5180    1.6197   15.6250 H   0  0  0  0  0  0  0  0  0  0  0  0
    1.5000    3.0402   11.7776 C   0  0  0  0  0  0  0  0  0  0  0  0
    2.1327    1.9425   12.2936 C   0  0  0  0  0  0  0  0  0  0  0  0
    2.6497    2.0187   13.5835 C   0  0  0  0  0  0  0  0  0  0  0  0
    2.5660    3.1328   14.3797 C   0  0  0  0  0  0  0  0  0  0  0  0
    3.0983    3.1755   15.6757 C   0  0  0  0  0  0  0  0  0  0  0  0
    2.9305    4.3319   16.3108 N   0  0  0  0  0  0  0  0  0  0  0  0
    2.3127    5.4174   15.8191 C   0  0  0  0  0  0  0  0  0  0  0  0
    1.7789    5.3970   14.5396 C   0  0  0  0  0  0  0  0  0  0  0  0
    1.9233    4.2327   13.8420 C   0  0  0  0  0  0  0  0  0  0  0  0
    1.3987    4.1762   12.5520 C   0  0  0  0  0  0  0  0  0  0  0  0
    0.3389    1.8781   10.0160 O   0  0  0  0  0  0  0  0  0  0  0  0
    0.9571    3.0104   10.4680 N   0  0  0  0  0  0  0  0  0  0  0  0
    1.0293    3.9973    9.7124 O   0  0  0  0  0  0  0  0  0  0  0  0
    3.5399    1.4149   17.4562 C   0  0  0  0  0  0  0  0  0  0  0  0
    4.1144    1.8007   18.6289 C   0  0  0  0  0  0  0  0  0  0  0  0
    3.8906    1.1231   19.8289 C   0  0  0  0  0  0  0  0  0  0  0  0
    3.0713    0.0605   19.7671 N   0  0  0  0  0  0  0  0  0  0  0  0
    2.4943   -0.3385   18.6253 C   0  0  0  0  0  0  0  0  0  0  0  0
    2.7280    0.3268   17.5048 N   0  0  0  0  0  0  0  0  0  0  0  0
    4.5010    1.5443   21.0393 N   0  0  0  0  0  0  0  0  0  0  0  0
    4.9050    0.8460   21.6809 H   0  0  0  0  0  0  0  0  0  0  0  0
    4.5385    2.9370   21.3366 C   0  0  0  0  0  0  0  0  0  0  0  0
    5.0557    3.2780   22.6865 C   0  0  0  0  0  0  0  0  0  0  0  0
    3.9889    3.8346   23.6312 C   0  0  0  0  0  0  0  0  0  0  0  0
    4.7102    2.5696   23.9162 C   0  0  0  0  0  0  0  0  0  0  0  0
 13 14  1  0  0  0
 14 15  2  0  0  0
 14  3  1  0  0  0
  3  4  2  0  0  0
  4  5  1  0  0  0
  5  6  2  0  0  0
  6  7  1  0  0  0
  7  1  1  0  0  0
  1 16  1  0  0  0
 16 17  2  0  0  0
 17 18  1  0  0  0
 18 22  1  0  0  0
 22 24  1  0  0  0
 24 25  1  0  0  0
 25 26  1  0  0  0
 26 27  1  0  0  0
 18 19  2  0  0  0
 19 20  1  0  0  0
 20 21  2  0  0  0
  7  8  2  0  0  0
  8  9  1  0  0  0
  9 10  2  0  0  0
 10 11  1  0  0  0
 11 12  2  0  0  0
 12  3  1  0  0  0
 11  6  1  0  0  0
 21 16  1  0  0  0
 27 25  1  0  0  0
  1  2  1  0  0  0
 22 23  1  0  0  0
M  CHG 1  13  -1
M  CHG 1  14   1
M  END
> <minimizedAffinity>
-6.68694

> <CNNscore>
0.5647861958

> <CNNaffinity>
6.3293776512

> <CNN_VS>
3.5747451782

> <CNNaffinity_variance>
0.2718318105

$$$$
[H]c1nc(N([H])c2nc([H])c([H])c3c([H])c([N+](=O)[O-])c([H])c([H])c23)c([H])c(N([H])C([H])([H])C2([H])C([H])([H])C2([H])[H])n1


 27 30  0  0  0  0  0  0  0  0999 V2000
    4.8708    1.8526   20.0484 N   0  0  0  0  0  0  0  0  0  0  0  0
    5.8838    1.6528   19.7474 H   0  0  0  0  0  0  0  0  0  0  0  0
    4.9867    6.8926   20.4812 C   0  0  0  0  0  0  0  0  0  0  0  0
    5.1814    6.0328   19.4351 C   0  0  0  0  0  0  0  0  0  0  0  0
    5.0724    4.6653   19.6698 C   0  0  0  0  0  0  0  0  0  0  0  0
    4.7795    4.1171   20.8928 C   0  0  0  0  0  0  0  0  0  0  0  0
    4.6771    2.7337   21.0943 C   0  0  0  0  0  0  0  0  0  0  0  0
    4.3869    2.3707   22.3405 N   0  0  0  0  0  0  0  0  0  0  0  0
    4.1930    3.2009   23.3771 C   0  0  0  0  0  0  0  0  0  0  0  0
    4.2895    4.5727   23.2002 C   0  0  0  0  0  0  0  0  0  0  0  0
    4.5859    5.0009   21.9384 C   0  0  0  0  0  0  0  0  0  0  0  0
    4.6908    6.3740   21.7237 C   0  0  0  0  0  0  0  0  0  0  0  0
    5.6489    8.7842   19.1452 O   0  0  0  0  0  0  0  0  0  0  0  0
    5.0874    8.2941   20.2911 N   0  0  0  0  0  0  0  0  0  0  0  0
    4.6741    9.0972   21.1480 O   0  0  0  0  0  0  0  0  0  0  0  0
    3.9208    1.1340   19.2685 C   0  0  0  0  0  0  0  0  0  0  0  0
    3.7264    1.3219   17.9340 C   0  0  0  0  0  0  0  0  0  0  0  0
    2.7825    0.5941   17.2067 C   0  0  0  0  0  0  0  0  0  0  0  0
    2.0688   -0.3100   17.8976 N   0  0  0  0  0  0  0  0  0  0  0  0
    2.2419   -0.5130   19.2108 C   0  0  0  0  0  0  0  0  0  0  0  0
    3.1458    0.1945   19.8705 N   0  0  0  0  0  0  0  0  0  0  0  0
    2.5978    0.8078   15.8156 N   0  0  0  0  0  0  0  0  0  0  0  0
    2.7517    0.0341   15.1523 H   0  0  0  0  0  0  0  0  0  0  0  0
    2.2000    2.1013   15.3703 C   0  0  0  0  0  0  0  0  0  0  0  0
    3.2364    2.8533   14.6176 C   0  0  0  0  0  0  0  0  0  0  0  0
    2.8522    4.3050   14.3258 C   0  0  0  0  0  0  0  0  0  0  0  0
    4.0279    3.9542   15.1603 C   0  0  0  0  0  0  0  0  0  0  0  0
 13 14  1  0  0  0
 14 15  2  0  0  0
 14  3  1  0  0  0
  3  4  2  0  0  0
  4  5  1  0  0  0
  5  6  2  0  0  0
  6  7  1  0  0  0
  7  1  1  0  0  0
  1 16  1  0  0  0
 16 17  2  0  0  0
 17 18  1  0  0  0
 18 22  1  0  0  0
 22 24  1  0  0  0
 24 25  1  0  0  0
 25 26  1  0  0  0
 26 27  1  0  0  0
 18 19  2  0  0  0
 19 20  1  0  0  0
 20 21  2  0  0  0
  7  8  2  0  0  0
  8  9  1  0  0  0
  9 10  2  0  0  0
 10 11  1  0  0  0
 11 12  2  0  0  0
 12  3  1  0  0  0
 11  6  1  0  0  0
 21 16  1  0  0  0
 27 25  1  0  0  0
  1  2  1  0  0  0
 22 23  1  0  0  0
M  CHG 1  13  -1
M  CHG 1  14   1
M  END
> <minimizedAffinity>
-7.95530

> <CNNscore>
0.5322433710

> <CNNaffinity>
6.5240273476

> <CNN_VS>
3.4723703861

> <CNNaffinity_variance>
0.4235750735

$$$$
[H]c1nc(N([H])c2nc([H])c([H])c3c([H])c([N+](=O)[O-])c([H])c([H])c23)c([H])c(N([H])C([H])([H])C2([H])C([H])([H])C2([H])[H])n1


 27 30  0  0  0  0  0  0  0  0999 V2000
    4.8966    2.7947   17.1858 N   0  0  0  0  0  0  0  0  0  0  0  0
    5.9102    2.4661   17.0399 H   0  0  0  0  0  0  0  0  0  0  0  0
    5.2426    6.7275   20.3505 C   0  0  0  0  0  0  0  0  0  0  0  0
    5.5004    5.3902   20.4790 C   0  0  0  0  0  0  0  0  0  0  0  0
    5.2917    4.5644   19.3783 C   0  0  0  0  0  0  0  0  0  0  0  0
    4.8403    5.0072   18.1609 C   0  0  0  0  0  0  0  0  0  0  0  0
    4.6409    4.1473   17.0721 C   0  0  0  0  0  0  0  0  0  0  0  0
    4.1998    4.7395   15.9659 N   0  0  0  0  0  0  0  0  0  0  0  0
    3.9423    6.0491   15.8235 C   0  0  0  0  0  0  0  0  0  0  0  0
    4.1325    6.9176   16.8875 C   0  0  0  0  0  0  0  0  0  0  0  0
    4.5850    6.3616   18.0491 C   0  0  0  0  0  0  0  0  0  0  0  0
    4.7877    7.2050   19.1400 C   0  0  0  0  0  0  0  0  0  0  0  0
    4.7840    8.8072   21.4759 O   0  0  0  0  0  0  0  0  0  0  0  0
    5.4400    7.6084   21.4440 N   0  0  0  0  0  0  0  0  0  0  0  0
    6.2019    7.3159   22.3843 O   0  0  0  0  0  0  0  0  0  0  0  0
    4.0126    1.7168   17.4752 C   0  0  0  0  0  0  0  0  0  0  0  0
    3.8363    1.1826   18.7152 C   0  0  0  0  0  0  0  0  0  0  0  0
    2.9577    0.1243   18.9548 C   0  0  0  0  0  0  0  0  0  0  0  0
    2.2883   -0.3448   17.8889 N   0  0  0  0  0  0  0  0  0  0  0  0
    2.4448    0.1642   16.6592 C   0  0  0  0  0  0  0  0  0  0  0  0
    3.2864    1.1678   16.4668 N   0  0  0  0  0  0  0  0  0  0  0  0
    2.7907   -0.4162   20.2567 N   0  0  0  0  0  0  0  0  0  0  0  0
    2.0256   -1.0813   20.4424 H   0  0  0  0  0  0  0  0  0  0  0  0
    3.6963   -0.0189   21.2822 C   0  0  0  0  0  0  0  0  0  0  0  0
    3.2738    1.1679   22.0690 C   0  0  0  0  0  0  0  0  0  0  0  0
    4.1194    1.4085   23.3209 C   0  0  0  0  0  0  0  0  0  0  0  0
    4.0538    2.3942   22.2137 C   0  0  0  0  0  0  0  0  0  0  0  0
 13 14  1  0  0  0
 14 15  2  0  0  0
 14  3  1  0  0  0
  3  4  2  0  0  0
  4  5  1  0  0  0
  5  6  2  0  0  0
  6  7  1  0  0  0
  7  1  1  0  0  0
  1 16  1  0  0  0
 16 17  2  0  0  0
 17 18  1  0  0  0
 18 22  1  0  0  0
 22 24  1  0  0  0
 24 25  1  0  0  0
 25 26  1  0  0  0
 26 27  1  0  0  0
 18 19  2  0  0  0
 19 20  1  0  0  0
 20 21  2  0  0  0
  7  8  2  0  0  0
  8  9  1  0  0  0
  9 10  2  0  0  0
 10 11  1  0  0  0
 11 12  2  0  0  0
 12  3  1  0  0  0
 11  6  1  0  0  0
 21 16  1  0  0  0
 27 25  1  0  0  0
  1  2  1  0  0  0
 22 23  1  0  0  0
M  CHG 1  13  -1
M  CHG 1  14   1
M  END
> <minimizedAffinity>
-7.45536

> <CNNscore>
0.5302115083

> <CNNaffinity>
6.4044127464

> <CNN_VS>
3.3956933022

> <CNNaffinity_variance>
0.2258690298

$$$$
[H]c1nc(N([H])c2nc([H])c([H])c3c([H])c([N+](=O)[O-])c([H])c([H])c23)c([H])c(N([H])C([H])([H])C2([H])C([H])([H])C2([H])[H])n1


 27 30  0  0  0  0  0  0  0  0999 V2000
    4.6870    1.4273   18.2535 N   0  0  0  0  0  0  0  0  0  0  0  0
    5.2781    0.6074   17.8860 H   0  0  0  0  0  0  0  0  0  0  0  0
    2.2738    2.6433   13.9757 C   0  0  0  0  0  0  0  0  0  0  0  0
    2.3284    1.5070   14.7355 C   0  0  0  0  0  0  0  0  0  0  0  0
    3.1126    1.5134   15.8853 C   0  0  0  0  0  0  0  0  0  0  0  0
    3.8415    2.5946   16.3115 C   0  0  0  0  0  0  0  0  0  0  0  0
    4.6216    2.5669   17.4758 C   0  0  0  0  0  0  0  0  0  0  0  0
    5.2645    3.6997   17.7446 N   0  0  0  0  0  0  0  0  0  0  0  0
    5.2215    4.8223   17.0102 C   0  0  0  0  0  0  0  0  0  0  0  0
    4.4564    4.8717   15.8549 C   0  0  0  0  0  0  0  0  0  0  0  0
    3.7745    3.7343   15.5315 C   0  0  0  0  0  0  0  0  0  0  0  0
    2.9948    3.7479   14.3763 C   0  0  0  0  0  0  0  0  0  0  0  0
    0.4066    3.5175   12.7303 O   0  0  0  0  0  0  0  0  0  0  0  0
    1.4887    2.6848   12.7957 N   0  0  0  0  0  0  0  0  0  0  0  0
    1.7614    1.9764   11.8088 O   0  0  0  0  0  0  0  0  0  0  0  0
    4.0818    1.1400   19.5098 C   0  0  0  0  0  0  0  0  0  0  0  0
    4.3684    1.7986   20.6666 C   0  0  0  0  0  0  0  0  0  0  0  0
    3.7503    1.4841   21.8784 C   0  0  0  0  0  0  0  0  0  0  0  0
    2.8491    0.4886   21.8446 N   0  0  0  0  0  0  0  0  0  0  0  0
    2.5502   -0.1742   20.7189 C   0  0  0  0  0  0  0  0  0  0  0  0
    3.1551    0.1496   19.5866 N   0  0  0  0  0  0  0  0  0  0  0  0
    4.0658    2.1851   23.0717 N   0  0  0  0  0  0  0  0  0  0  0  0
    3.6092    1.9223   23.9577 H   0  0  0  0  0  0  0  0  0  0  0  0
    5.0159    3.2447   23.0103 C   0  0  0  0  0  0  0  0  0  0  0  0
    4.4384    4.6116   23.0762 C   0  0  0  0  0  0  0  0  0  0  0  0
    5.2714    5.6669   22.3465 C   0  0  0  0  0  0  0  0  0  0  0  0
    3.8832    5.3389   21.9377 C   0  0  0  0  0  0  0  0  0  0  0  0
 13 14  1  0  0  0
 14 15  2  0  0  0
 14  3  1  0  0  0
  3  4  2  0  0  0
  4  5  1  0  0  0
  5  6  2  0  0  0
  6  7  1  0  0  0
  7  1  1  0  0  0
  1 16  1  0  0  0
 16 17  2  0  0  0
 17 18  1  0  0  0
 18 22  1  0  0  0
 22 24  1  0  0  0
 24 25  1  0  0  0
 25 26  1  0  0  0
 26 27  1  0  0  0
 18 19  2  0  0  0
 19 20  1  0  0  0
 20 21  2  0  0  0
  7  8  2  0  0  0
  8  9  1  0  0  0
  9 10  2  0  0  0
 10 11  1  0  0  0
 11 12  2  0  0  0
 12  3  1  0  0  0
 11  6  1  0  0  0
 21 16  1  0  0  0
 27 25  1  0  0  0
  1  2  1  0  0  0
 22 23  1  0  0  0
M  CHG 1  13  -1
M  CHG 1  14   1
M  END
> <minimizedAffinity>
-7.42232

> <CNNscore>
0.5279144645

> <CNNaffinity>
6.6031875610

> <CNN_VS>
3.4859182835

> <CNNaffinity_variance>
0.4085218906

$$$$
[H]c1nc(N([H])c2nc([H])c([H])c3c([H])c([N+](=O)[O-])c([H])c([H])c23)c([H])c(N([H])C([H])([H])C2([H])C([H])([H])C2([H])[H])n1


 27 30  0  0  0  0  0  0  0  0999 V2000
    4.9581    3.0260   18.2640 N   0  0  0  0  0  0  0  0  0  0  0  0
    5.9908    3.0039   17.9645 H   0  0  0  0  0  0  0  0  0  0  0  0
    5.0661    2.2147   23.2572 C   0  0  0  0  0  0  0  0  0  0  0  0
    5.3957    1.4500   22.1718 C   0  0  0  0  0  0  0  0  0  0  0  0
    5.2403    1.9971   20.9016 C   0  0  0  0  0  0  0  0  0  0  0  0
    4.7740    3.2652   20.6636 C   0  0  0  0  0  0  0  0  0  0  0  0
    4.6297    3.7854   19.3700 C   0  0  0  0  0  0  0  0  0  0  0  0
    4.1648    5.0303   19.3171 N   0  0  0  0  0  0  0  0  0  0  0  0
    3.8370    5.7935   20.3715 C   0  0  0  0  0  0  0  0  0  0  0  0
    3.9720    5.2989   21.6598 C   0  0  0  0  0  0  0  0  0  0  0  0
    4.4459    4.0237   21.7721 C   0  0  0  0  0  0  0  0  0  0  0  0
    4.5944    3.4938   23.0525 C   0  0  0  0  0  0  0  0  0  0  0  0
    4.1752    1.0116   25.1441 O   0  0  0  0  0  0  0  0  0  0  0  0
    5.2073    1.7007   24.5711 N   0  0  0  0  0  0  0  0  0  0  0  0
    6.2561    1.8620   25.2225 O   0  0  0  0  0  0  0  0  0  0  0  0
    4.1303    2.2348   17.4178 C   0  0  0  0  0  0  0  0  0  0  0  0
    3.8450    2.5408   16.1220 C   0  0  0  0  0  0  0  0  0  0  0  0
    3.0273    1.7356   15.3268 C   0  0  0  0  0  0  0  0  0  0  0  0
    2.5315    0.6324   15.9110 N   0  0  0  0  0  0  0  0  0  0  0  0
    2.7979    0.3101   17.1841 C   0  0  0  0  0  0  0  0  0  0  0  0
    3.5773    1.0959   17.9105 N   0  0  0  0  0  0  0  0  0  0  0  0
    2.7440    2.0755   13.9780 N   0  0  0  0  0  0  0  0  0  0  0  0
    2.9343    1.3964   13.2264 H   0  0  0  0  0  0  0  0  0  0  0  0
    2.1981    3.3612   13.6980 C   0  0  0  0  0  0  0  0  0  0  0  0
    2.8351    4.0818   12.5661 C   0  0  0  0  0  0  0  0  0  0  0  0
    3.4507    5.4254   12.9611 C   0  0  0  0  0  0  0  0  0  0  0  0
    4.2706    4.3110   12.4246 C   0  0  0  0  0  0  0  0  0  0  0  0
 13 14  1  0  0  0
 14 15  2  0  0  0
 14  3  1  0  0  0
  3  4  2  0  0  0
  4  5  1  0  0  0
  5  6  2  0  0  0
  6  7  1  0  0  0
  7  1  1  0  0  0
  1 16  1  0  0  0
 16 17  2  0  0  0
 17 18  1  0  0  0
 18 22  1  0  0  0
 22 24  1  0  0  0
 24 25  1  0  0  0
 25 26  1  0  0  0
 26 27  1  0  0  0
 18 19  2  0  0  0
 19 20  1  0  0  0
 20 21  2  0  0  0
  7  8  2  0  0  0
  8  9  1  0  0  0
  9 10  2  0  0  0
 10 11  1  0  0  0
 11 12  2  0  0  0
 12  3  1  0  0  0
 11  6  1  0  0  0
 21 16  1  0  0  0
 27 25  1  0  0  0
  1  2  1  0  0  0
 22 23  1  0  0  0
M  CHG 1  13  -1
M  CHG 1  14   1
M  END
> <minimizedAffinity>
-7.04587

> <CNNscore>
0.5057778358

> <CNNaffinity>
6.5200881958

> <CNN_VS>
3.2977161407

> <CNNaffinity_variance>
0.4276401401

$$$$
[H]c1nc(N([H])c2nc([H])c([H])c3c([H])c([N+](=O)[O-])c([H])c([H])c23)c([H])c(N([H])C([H])([H])C2([H])C([H])([H])C2([H])[H])n1


 27 30  0  0  0  0  0  0  0  0999 V2000
    4.6733    2.1631   17.3141 N   0  0  0  0  0  0  0  0  0  0  0  0
    5.7476    2.1135   17.3048 H   0  0  0  0  0  0  0  0  0  0  0  0
    4.3528    2.3878   22.3587 C   0  0  0  0  0  0  0  0  0  0  0  0
    5.0183    3.1321   21.4236 C   0  0  0  0  0  0  0  0  0  0  0  0
    4.8841    2.7877   20.0818 C   0  0  0  0  0  0  0  0  0  0  0  0
    4.1210    1.7408   19.6305 C   0  0  0  0  0  0  0  0  0  0  0  0
    4.0078    1.4212   18.2704 C   0  0  0  0  0  0  0  0  0  0  0  0
    3.2283    0.3768   18.0049 N   0  0  0  0  0  0  0  0  0  0  0  0
    2.5690   -0.3634   18.9099 C   0  0  0  0  0  0  0  0  0  0  0  0
    2.6669   -0.0649   20.2604 C   0  0  0  0  0  0  0  0  0  0  0  0
    3.4556    0.9995   20.5894 C   0  0  0  0  0  0  0  0  0  0  0  0
    3.5772    1.3286   21.9383 C   0  0  0  0  0  0  0  0  0  0  0  0
    3.9037    3.8543   24.2160 O   0  0  0  0  0  0  0  0  0  0  0  0
    4.4587    2.7002   23.7378 N   0  0  0  0  0  0  0  0  0  0  0  0
    5.0492    1.9444   24.5316 O   0  0  0  0  0  0  0  0  0  0  0  0
    4.1603    3.0170   16.2968 C   0  0  0  0  0  0  0  0  0  0  0  0
    4.1686    4.3770   16.3622 C   0  0  0  0  0  0  0  0  0  0  0  0
    3.6544    5.1773   15.3402 C   0  0  0  0  0  0  0  0  0  0  0  0
    3.1459    4.5307   14.2783 N   0  0  0  0  0  0  0  0  0  0  0  0
    3.1264    3.1937   14.1910 C   0  0  0  0  0  0  0  0  0  0  0  0
    3.6224    2.4644   15.1783 N   0  0  0  0  0  0  0  0  0  0  0  0
    3.6742    6.5938   15.4311 N   0  0  0  0  0  0  0  0  0  0  0  0
    3.7091    7.0487   16.3553 H   0  0  0  0  0  0  0  0  0  0  0  0
    3.6447    7.3557   14.2277 C   0  0  0  0  0  0  0  0  0  0  0  0
    2.3899    8.1157   13.9953 C   0  0  0  0  0  0  0  0  0  0  0  0
    2.0375    8.2833   12.5162 C   0  0  0  0  0  0  0  0  0  0  0  0
    1.1572    7.5469   13.4567 C   0  0  0  0  0  0  0  0  0  0  0  0
 13 14  1  0  0  0
 14 15  2  0  0  0
 14  3  1  0  0  0
  3  4  2  0  0  0
  4  5  1  0  0  0
  5  6  2  0  0  0
  6  7  1  0  0  0
  7  1  1  0  0  0
  1 16  1  0  0  0
 16 17  2  0  0  0
 17 18  1  0  0  0
 18 22  1  0  0  0
 22 24  1  0  0  0
 24 25  1  0  0  0
 25 26  1  0  0  0
 26 27  1  0  0  0
 18 19  2  0  0  0
 19 20  1  0  0  0
 20 21  2  0  0  0
  7  8  2  0  0  0
  8  9  1  0  0  0
  9 10  2  0  0  0
 10 11  1  0  0  0
 11 12  2  0  0  0
 12  3  1  0  0  0
 11  6  1  0  0  0
 21 16  1  0  0  0
 27 25  1  0  0  0
  1  2  1  0  0  0
 22 23  1  0  0  0
M  CHG 1  13  -1
M  CHG 1  14   1
M  END
> <minimizedAffinity>
-7.51245

> <CNNscore>
0.4402370751

> <CNNaffinity>
6.3669128418

> <CNN_VS>
2.8029510975

> <CNNaffinity_variance>
0.3716843724

$$$$
[H]c1nc(N([H])c2nc([H])c([H])c3c([H])c([N+](=O)[O-])c([H])c([H])c23)c([H])c(N([H])C([H])([H])C2([H])C([H])([H])C2([H])[H])n1


 27 30  0  0  0  0  0  0  0  0999 V2000
    3.8181    2.3487   15.9547 N   0  0  0  0  0  0  0  0  0  0  0  0
    4.8331    2.6565   15.7766 H   0  0  0  0  0  0  0  0  0  0  0  0
    5.0391    2.8319   20.8412 C   0  0  0  0  0  0  0  0  0  0  0  0
    5.2965    3.5838   19.7277 C   0  0  0  0  0  0  0  0  0  0  0  0
    4.7966    3.1505   18.5032 C   0  0  0  0  0  0  0  0  0  0  0  0
    4.0554    2.0081   18.3373 C   0  0  0  0  0  0  0  0  0  0  0  0
    3.5669    1.6005   17.0883 C   0  0  0  0  0  0  0  0  0  0  0  0
    2.8672    0.4696   17.1040 N   0  0  0  0  0  0  0  0  0  0  0  0
    2.6060   -0.2792   18.1869 C   0  0  0  0  0  0  0  0  0  0  0  0
    3.0794    0.1053   19.4321 C   0  0  0  0  0  0  0  0  0  0  0  0
    3.8051    1.2606   19.4733 C   0  0  0  0  0  0  0  0  0  0  0  0
    4.2970    1.6778   20.7089 C   0  0  0  0  0  0  0  0  0  0  0  0
    4.7120    3.1575   23.2053 O   0  0  0  0  0  0  0  0  0  0  0  0
    5.5274    3.2328   22.1107 N   0  0  0  0  0  0  0  0  0  0  0  0
    6.6895    3.6552   22.2558 O   0  0  0  0  0  0  0  0  0  0  0  0
    2.9276    2.8008   14.9400 C   0  0  0  0  0  0  0  0  0  0  0  0
    2.3036    1.9825   14.0483 C   0  0  0  0  0  0  0  0  0  0  0  0
    1.4366    2.4687   13.0678 C   0  0  0  0  0  0  0  0  0  0  0  0
    1.2475    3.7984   13.0488 N   0  0  0  0  0  0  0  0  0  0  0  0
    1.8501    4.6239   13.9154 C   0  0  0  0  0  0  0  0  0  0  0  0
    2.6665    4.1297   14.8329 N   0  0  0  0  0  0  0  0  0  0  0  0
    0.7975    1.5957   12.1490 N   0  0  0  0  0  0  0  0  0  0  0  0
   -0.0659    1.1040   12.4232 H   0  0  0  0  0  0  0  0  0  0  0  0
    1.3745    1.4216   10.8581 C   0  0  0  0  0  0  0  0  0  0  0  0
    0.4708    0.8264    9.8406 C   0  0  0  0  0  0  0  0  0  0  0  0
    1.1778   -0.1203    8.8690 C   0  0  0  0  0  0  0  0  0  0  0  0
    0.1002   -0.5849    9.7770 C   0  0  0  0  0  0  0  0  0  0  0  0
 13 14  1  0  0  0
 14 15  2  0  0  0
 14  3  1  0  0  0
  3  4  2  0  0  0
  4  5  1  0  0  0
  5  6  2  0  0  0
  6  7  1  0  0  0
  7  1  1  0  0  0
  1 16  1  0  0  0
 16 17  2  0  0  0
 17 18  1  0  0  0
 18 22  1  0  0  0
 22 24  1  0  0  0
 24 25  1  0  0  0
 25 26  1  0  0  0
 26 27  1  0  0  0
 18 19  2  0  0  0
 19 20  1  0  0  0
 20 21  2  0  0  0
  7  8  2  0  0  0
  8  9  1  0  0  0
  9 10  2  0  0  0
 10 11  1  0  0  0
 11 12  2  0  0  0
 12  3  1  0  0  0
 11  6  1  0  0  0
 21 16  1  0  0  0
 27 25  1  0  0  0
  1  2  1  0  0  0
 22 23  1  0  0  0
M  CHG 1  13  -1
M  CHG 1  14   1
M  END
> <minimizedAffinity>
-6.85194

> <CNNscore>
0.4352669716

> <CNNaffinity>
6.1530904770

> <CNN_VS>
2.6782369614

> <CNNaffinity_variance>
0.2508528829

$$$$
[H]c1nc(N([H])c2nc([H])c([H])c3c([H])c([N+](=O)[O-])c([H])c([H])c23)c([H])c(N([H])C([H])([H])C2([H])C([H])([H])C2([H])[H])n1


 27 30  0  0  0  0  0  0  0  0999 V2000
    4.9428    1.4540   19.2405 N   0  0  0  0  0  0  0  0  0  0  0  0
    5.9500    1.0891   19.1453 H   0  0  0  0  0  0  0  0  0  0  0  0
    3.9073    4.7364   15.5317 C   0  0  0  0  0  0  0  0  0  0  0  0
    4.7066    4.7902   16.6406 C   0  0  0  0  0  0  0  0  0  0  0  0
    4.7620    3.6774   17.4745 C   0  0  0  0  0  0  0  0  0  0  0  0
    4.0613    2.5184   17.2558 C   0  0  0  0  0  0  0  0  0  0  0  0
    4.1403    1.4152   18.1170 C   0  0  0  0  0  0  0  0  0  0  0  0
    3.3969    0.3723   17.7585 N   0  0  0  0  0  0  0  0  0  0  0  0
    2.6081    0.3035   16.6747 C   0  0  0  0  0  0  0  0  0  0  0  0
    2.5150    1.3830   15.8095 C   0  0  0  0  0  0  0  0  0  0  0  0
    3.2587    2.4817   16.1305 C   0  0  0  0  0  0  0  0  0  0  0  0
    3.1896    3.5860   15.2829 C   0  0  0  0  0  0  0  0  0  0  0  0
    3.3997    5.6574   13.3647 O   0  0  0  0  0  0  0  0  0  0  0  0
    3.8182    5.8452   14.6524 N   0  0  0  0  0  0  0  0  0  0  0  0
    4.1138    6.9956   15.0256 O   0  0  0  0  0  0  0  0  0  0  0  0
    4.6537    1.9130   20.5569 C   0  0  0  0  0  0  0  0  0  0  0  0
    5.2363    3.0000   21.1342 C   0  0  0  0  0  0  0  0  0  0  0  0
    4.9229    3.4158   22.4297 C   0  0  0  0  0  0  0  0  0  0  0  0
    4.0082    2.6815   23.0842 N   0  0  0  0  0  0  0  0  0  0  0  0
    3.4213    1.6081   22.5375 C   0  0  0  0  0  0  0  0  0  0  0  0
    3.7415    1.2410   21.3065 N   0  0  0  0  0  0  0  0  0  0  0  0
    5.5437    4.5526   23.0105 N   0  0  0  0  0  0  0  0  0  0  0  0
    5.7422    4.5689   24.0217 H   0  0  0  0  0  0  0  0  0  0  0  0
    5.8788    5.6521   22.1689 C   0  0  0  0  0  0  0  0  0  0  0  0
    4.7190    6.3761   21.5886 C   0  0  0  0  0  0  0  0  0  0  0  0
    5.0408    7.8084   21.1585 C   0  0  0  0  0  0  0  0  0  0  0  0
    4.5998    6.7755   20.1888 C   0  0  0  0  0  0  0  0  0  0  0  0
 13 14  1  0  0  0
 14 15  2  0  0  0
 14  3  1  0  0  0
  3  4  2  0  0  0
  4  5  1  0  0  0
  5  6  2  0  0  0
  6  7  1  0  0  0
  7  1  1  0  0  0
  1 16  1  0  0  0
 16 17  2  0  0  0
 17 18  1  0  0  0
 18 22  1  0  0  0
 22 24  1  0  0  0
 24 25  1  0  0  0
 25 26  1  0  0  0
 26 27  1  0  0  0
 18 19  2  0  0  0
 19 20  1  0  0  0
 20 21  2  0  0  0
  7  8  2  0  0  0
  8  9  1  0  0  0
  9 10  2  0  0  0
 10 11  1  0  0  0
 11 12  2  0  0  0
 12  3  1  0  0  0
 11  6  1  0  0  0
 21 16  1  0  0  0
 27 25  1  0  0  0
  1  2  1  0  0  0
 22 23  1  0  0  0
M  CHG 1  13  -1
M  CHG 1  14   1
M  END
> <minimizedAffinity>
-7.35265

> <CNNscore>
0.4337499142

> <CNNaffinity>
6.4887437820

> <CNN_VS>
2.8144919872

> <CNNaffinity_variance>
0.4427342415

$$$$
[H]c1c([H])c(N([H])C(=O)N([H])c2c([H])c([H])c(-c3c([H])c([H])c([H])c4onc(N([H])[H])c34)c([H])c2[H])c([H])c(C([H])([H])[H])c1[H]


 31 34  0  0  0  0  0  0  0  0999 V2000
    2.4466    5.6042   13.4648 C   0  0  0  0  0  0  0  0  0  0  0  0
    1.7435    5.6049   14.6696 C   0  0  0  0  0  0  0  0  0  0  0  0
    2.1521    4.8402   15.7283 C   0  0  0  0  0  0  0  0  0  0  0  0
    3.2639    4.0292   15.6856 C   0  0  0  0  0  0  0  0  0  0  0  0
    3.9651    4.0226   14.4984 C   0  0  0  0  0  0  0  0  0  0  0  0
    3.5485    4.8024   13.4202 C   0  0  0  0  0  0  0  0  0  0  0  0
    3.7013    3.1963   16.8178 C   0  0  0  0  0  0  0  0  0  0  0  0
    4.5532    3.7254   17.7809 C   0  0  0  0  0  0  0  0  0  0  0  0
    4.9407    2.9806   18.8732 C   0  0  0  0  0  0  0  0  0  0  0  0
    4.5070    1.6937   19.0574 C   0  0  0  0  0  0  0  0  0  0  0  0
    3.6632    1.1713   18.0994 C   0  0  0  0  0  0  0  0  0  0  0  0
    3.1110   -0.0160   18.0266 O   0  0  0  0  0  0  0  0  0  0  0  0
    2.3888   -0.0964   16.9554 N   0  0  0  0  0  0  0  0  0  0  0  0
    2.4541    1.0777   16.2800 C   0  0  0  0  0  0  0  0  0  0  0  0
    1.7874    1.3034   15.0526 N   0  0  0  0  0  0  0  0  0  0  0  0
    3.2648    1.9116   16.9937 C   0  0  0  0  0  0  0  0  0  0  0  0
    2.3025    1.5149   14.1741 H   0  0  0  0  0  0  0  0  0  0  0  0
    0.7404    1.2566   15.0247 H   0  0  0  0  0  0  0  0  0  0  0  0
    0.8765    6.9496   10.3212 N   0  0  0  0  0  0  0  0  0  0  0  0
    1.2619    6.0005   11.2864 C   0  0  0  0  0  0  0  0  0  0  0  0
    0.9333    4.8151   11.0797 O   0  0  0  0  0  0  0  0  0  0  0  0
    1.9843    6.4249   12.4149 N   0  0  0  0  0  0  0  0  0  0  0  0
    1.1700    7.9610   10.5145 H   0  0  0  0  0  0  0  0  0  0  0  0
    2.1832    7.4747   12.4416 H   0  0  0  0  0  0  0  0  0  0  0  0
    0.9197    6.8880    5.3873 C   0  0  0  0  0  0  0  0  0  0  0  0
    0.2015    6.7291    6.6816 C   0  0  0  0  0  0  0  0  0  0  0  0
   -1.1462    6.3822    6.6773 C   0  0  0  0  0  0  0  0  0  0  0  0
   -1.8285    6.2304    7.8587 C   0  0  0  0  0  0  0  0  0  0  0  0
   -1.1729    6.4239    9.0939 C   0  0  0  0  0  0  0  0  0  0  0  0
    0.1508    6.7646    9.1297 C   0  0  0  0  0  0  0  0  0  0  0  0
    0.7844    6.9030    7.8930 C   0  0  0  0  0  0  0  0  0  0  0  0
 25 26  1  0  0  0
 26 27  2  0  0  0
 27 28  1  0  0  0
 28 29  2  0  0  0
 29 30  1  0  0  0
 30 19  1  0  0  0
 19 20  1  0  0  0
 20 21  2  0  0  0
 20 22  1  0  0  0
 22  1  1  0  0  0
  1  2  2  0  0  0
  2  3  1  0  0  0
  3  4  2  0  0  0
  4  5  1  0  0  0
  5  6  2  0  0  0
  4  7  1  0  0  0
  7  8  2  0  0  0
  8  9  1  0  0  0
  9 10  2  0  0  0
 10 11  1  0  0  0
 11 12  1  0  0  0
 12 13  1  0  0  0
 13 14  2  0  0  0
 14 15  1  0  0  0
 14 16  1  0  0  0
 30 31  2  0  0  0
 31 26  1  0  0  0
  6  1  1  0  0  0
 16  7  1  0  0  0
 16 11  2  0  0  0
 19 23  1  0  0  0
 22 24  1  0  0  0
 15 17  1  0  0  0
 15 18  1  0  0  0
M  END
> <minimizedAffinity>
-7.14072

> <CNNscore>
0.6056792736

> <CNNaffinity>
5.6076231003

> <CNN_VS>
3.3964211941

> <CNNaffinity_variance>
0.3428030610

$$$$
[H]c1c([H])c(N([H])C(=O)N([H])c2c([H])c([H])c(-c3c([H])c([H])c([H])c4onc(N([H])[H])c34)c([H])c2[H])c([H])c(C([H])([H])[H])c1[H]


 31 34  0  0  0  0  0  0  0  0999 V2000
    5.0349    4.8727   21.2785 C   0  0  0  0  0  0  0  0  0  0  0  0
    4.0509    5.3554   20.4156 C   0  0  0  0  0  0  0  0  0  0  0  0
    3.6526    4.6352   19.3223 C   0  0  0  0  0  0  0  0  0  0  0  0
    4.1818    3.4063   18.9977 C   0  0  0  0  0  0  0  0  0  0  0  0
    5.1549    2.9214   19.8455 C   0  0  0  0  0  0  0  0  0  0  0  0
    5.5599    3.6555   20.9596 C   0  0  0  0  0  0  0  0  0  0  0  0
    3.7647    2.6327   17.8168 C   0  0  0  0  0  0  0  0  0  0  0  0
    3.8949    3.1812   16.5457 C   0  0  0  0  0  0  0  0  0  0  0  0
    3.5536    2.4604   15.4224 C   0  0  0  0  0  0  0  0  0  0  0  0
    3.0735    1.1797   15.5074 C   0  0  0  0  0  0  0  0  0  0  0  0
    2.9441    0.6390   16.7697 C   0  0  0  0  0  0  0  0  0  0  0  0
    2.5133   -0.5448   17.1343 O   0  0  0  0  0  0  0  0  0  0  0  0
    2.5488   -0.6438   18.4244 N   0  0  0  0  0  0  0  0  0  0  0  0
    3.0206    0.5132   18.9513 C   0  0  0  0  0  0  0  0  0  0  0  0
    3.1608    0.7304   20.3424 N   0  0  0  0  0  0  0  0  0  0  0  0
    3.2848    1.3549   17.9103 C   0  0  0  0  0  0  0  0  0  0  0  0
    2.6331    1.4747   20.8419 H   0  0  0  0  0  0  0  0  0  0  0  0
    3.8170    0.1232   20.8899 H   0  0  0  0  0  0  0  0  0  0  0  0
    6.7326    7.2088   23.6906 N   0  0  0  0  0  0  0  0  0  0  0  0
    6.5135    6.4960   22.4969 C   0  0  0  0  0  0  0  0  0  0  0  0
    7.3436    6.6562   21.5798 O   0  0  0  0  0  0  0  0  0  0  0  0
    5.3923    5.6545   22.3969 N   0  0  0  0  0  0  0  0  0  0  0  0
    6.0115    7.0562   24.4672 H   0  0  0  0  0  0  0  0  0  0  0  0
    4.7792    5.6313   23.2721 H   0  0  0  0  0  0  0  0  0  0  0  0
   10.9371    7.9973   26.1503 C   0  0  0  0  0  0  0  0  0  0  0  0
    9.8591    8.4672   25.2373 C   0  0  0  0  0  0  0  0  0  0  0  0
    9.9173    9.7570   24.7180 C   0  0  0  0  0  0  0  0  0  0  0  0
    8.9343   10.2116   23.8745 C   0  0  0  0  0  0  0  0  0  0  0  0
    7.8513    9.3773   23.5222 C   0  0  0  0  0  0  0  0  0  0  0  0
    7.7675    8.1052   24.0161 C   0  0  0  0  0  0  0  0  0  0  0  0
    8.7997    7.7065   24.8682 C   0  0  0  0  0  0  0  0  0  0  0  0
 25 26  1  0  0  0
 26 27  2  0  0  0
 27 28  1  0  0  0
 28 29  2  0  0  0
 29 30  1  0  0  0
 30 19  1  0  0  0
 19 20  1  0  0  0
 20 21  2  0  0  0
 20 22  1  0  0  0
 22  1  1  0  0  0
  1  2  2  0  0  0
  2  3  1  0  0  0
  3  4  2  0  0  0
  4  5  1  0  0  0
  5  6  2  0  0  0
  4  7  1  0  0  0
  7  8  2  0  0  0
  8  9  1  0  0  0
  9 10  2  0  0  0
 10 11  1  0  0  0
 11 12  1  0  0  0
 12 13  1  0  0  0
 13 14  2  0  0  0
 14 15  1  0  0  0
 14 16  1  0  0  0
 30 31  2  0  0  0
 31 26  1  0  0  0
  6  1  1  0  0  0
 16  7  1  0  0  0
 16 11  2  0  0  0
 19 23  1  0  0  0
 22 24  1  0  0  0
 15 17  1  0  0  0
 15 18  1  0  0  0
M  END
> <minimizedAffinity>
-9.04893

> <CNNscore>
0.3085314333

> <CNNaffinity>
5.8697881699

> <CNN_VS>
1.8110141754

> <CNNaffinity_variance>
0.4754988253

$$$$
[H]c1c([H])c(N([H])C(=O)N([H])c2c([H])c([H])c(-c3c([H])c([H])c([H])c4onc(N([H])[H])c34)c([H])c2[H])c([H])c(C([H])([H])[H])c1[H]


 31 34  0  0  0  0  0  0  0  0999 V2000
    3.3914    4.7133   15.9700 C   0  0  0  0  0  0  0  0  0  0  0  0
    2.7311    5.0388   17.1549 C   0  0  0  0  0  0  0  0  0  0  0  0
    3.1968    4.6059   18.3667 C   0  0  0  0  0  0  0  0  0  0  0  0
    4.3276    3.8328   18.5055 C   0  0  0  0  0  0  0  0  0  0  0  0
    4.9867    3.5067   17.3392 C   0  0  0  0  0  0  0  0  0  0  0  0
    4.5120    3.9484   16.1048 C   0  0  0  0  0  0  0  0  0  0  0  0
    4.8263    3.3555   19.8056 C   0  0  0  0  0  0  0  0  0  0  0  0
    5.5717    4.2034   20.6173 C   0  0  0  0  0  0  0  0  0  0  0  0
    6.0113    3.7949   21.8574 C   0  0  0  0  0  0  0  0  0  0  0  0
    5.7358    2.5432   22.3424 C   0  0  0  0  0  0  0  0  0  0  0  0
    4.9974    1.7040   21.5342 C   0  0  0  0  0  0  0  0  0  0  0  0
    4.6008    0.4719   21.7454 O   0  0  0  0  0  0  0  0  0  0  0  0
    3.9317    0.0474   20.7219 N   0  0  0  0  0  0  0  0  0  0  0  0
    3.8730    1.0265   19.7855 C   0  0  0  0  0  0  0  0  0  0  0  0
    3.2260    0.8669   18.5374 N   0  0  0  0  0  0  0  0  0  0  0  0
    4.5480    2.1035   20.2820 C   0  0  0  0  0  0  0  0  0  0  0  0
    3.7407    0.9294   17.6357 H   0  0  0  0  0  0  0  0  0  0  0  0
    2.1946    0.6796   18.5177 H   0  0  0  0  0  0  0  0  0  0  0  0
    1.6212    5.1239   12.6752 N   0  0  0  0  0  0  0  0  0  0  0  0
    2.0556    4.4915   13.8552 C   0  0  0  0  0  0  0  0  0  0  0  0
    1.6841    3.3150   14.0383 O   0  0  0  0  0  0  0  0  0  0  0  0
    2.8709    5.2015   14.7532 N   0  0  0  0  0  0  0  0  0  0  0  0
    1.9526    6.1322   12.5341 H   0  0  0  0  0  0  0  0  0  0  0  0
    3.0963    6.2008   14.4483 H   0  0  0  0  0  0  0  0  0  0  0  0
    1.3427    2.6888    8.3924 C   0  0  0  0  0  0  0  0  0  0  0  0
    0.6914    3.4019    9.5255 C   0  0  0  0  0  0  0  0  0  0  0  0
   -0.6941    3.5309    9.5459 C   0  0  0  0  0  0  0  0  0  0  0  0
   -1.3160    4.1846   10.5804 C   0  0  0  0  0  0  0  0  0  0  0  0
   -0.5592    4.7348   11.6375 C   0  0  0  0  0  0  0  0  0  0  0  0
    0.8035    4.6233   11.6451 C   0  0  0  0  0  0  0  0  0  0  0  0
    1.3717    3.9471   10.5634 C   0  0  0  0  0  0  0  0  0  0  0  0
 25 26  1  0  0  0
 26 27  2  0  0  0
 27 28  1  0  0  0
 28 29  2  0  0  0
 29 30  1  0  0  0
 30 19  1  0  0  0
 19 20  1  0  0  0
 20 21  2  0  0  0
 20 22  1  0  0  0
 22  1  1  0  0  0
  1  2  2  0  0  0
  2  3  1  0  0  0
  3  4  2  0  0  0
  4  5  1  0  0  0
  5  6  2  0  0  0
  4  7  1  0  0  0
  7  8  2  0  0  0
  8  9  1  0  0  0
  9 10  2  0  0  0
 10 11  1  0  0  0
 11 12  1  0  0  0
 12 13  1  0  0  0
 13 14  2  0  0  0
 14 15  1  0  0  0
 14 16  1  0  0  0
 30 31  2  0  0  0
 31 26  1  0  0  0
  6  1  1  0  0  0
 16  7  1  0  0  0
 16 11  2  0  0  0
 19 23  1  0  0  0
 22 24  1  0  0  0
 15 17  1  0  0  0
 15 18  1  0  0  0
M  END
> <minimizedAffinity>
-7.20660

> <CNNscore>
0.2990430295

> <CNNaffinity>
5.6825819016

> <CNN_VS>
1.6993365288

> <CNNaffinity_variance>
0.8219537735

$$$$
[H]c1c([H])c(N([H])C(=O)N([H])c2c([H])c([H])c(-c3c([H])c([H])c([H])c4onc(N([H])[H])c34)c([H])c2[H])c([H])c(C([H])([H])[H])c1[H]


 31 34  0  0  0  0  0  0  0  0999 V2000
    3.4225    3.3128   16.3199 C   0  0  0  0  0  0  0  0  0  0  0  0
    4.2969    2.3196   16.7615 C   0  0  0  0  0  0  0  0  0  0  0  0
    4.7444    2.2940   18.0544 C   0  0  0  0  0  0  0  0  0  0  0  0
    4.3740    3.2266   18.9972 C   0  0  0  0  0  0  0  0  0  0  0  0
    3.5095    4.2118   18.5692 C   0  0  0  0  0  0  0  0  0  0  0  0
    3.0536    4.2371   17.2518 C   0  0  0  0  0  0  0  0  0  0  0  0
    4.8611    3.2098   20.3861 C   0  0  0  0  0  0  0  0  0  0  0  0
    5.7592    4.1791   20.8189 C   0  0  0  0  0  0  0  0  0  0  0  0
    6.1949    4.2112   22.1255 C   0  0  0  0  0  0  0  0  0  0  0  0
    5.7659    3.2953   23.0501 C   0  0  0  0  0  0  0  0  0  0  0  0
    4.8762    2.3342   22.6172 C   0  0  0  0  0  0  0  0  0  0  0  0
    4.3170    1.3504   23.2801 O   0  0  0  0  0  0  0  0  0  0  0  0
    3.5450    0.6754   22.4904 N   0  0  0  0  0  0  0  0  0  0  0  0
    3.5826    1.2216   21.2498 C   0  0  0  0  0  0  0  0  0  0  0  0
    2.8597    0.6995   20.1512 N   0  0  0  0  0  0  0  0  0  0  0  0
    4.4288    2.2908   21.3029 C   0  0  0  0  0  0  0  0  0  0  0  0
    3.3338    0.3358   19.2999 H   0  0  0  0  0  0  0  0  0  0  0  0
    1.8124    0.6774   20.1939 H   0  0  0  0  0  0  0  0  0  0  0  0
    1.7624    4.0094   13.0159 N   0  0  0  0  0  0  0  0  0  0  0  0
    2.1058    4.1883   14.3690 C   0  0  0  0  0  0  0  0  0  0  0  0
    1.5998    5.1639   14.9587 O   0  0  0  0  0  0  0  0  0  0  0  0
    2.9850    3.2773   14.9794 N   0  0  0  0  0  0  0  0  0  0  0  0
    2.2041    3.1651   12.5275 H   0  0  0  0  0  0  0  0  0  0  0  0
    3.3305    2.4984   14.3340 H   0  0  0  0  0  0  0  0  0  0  0  0
   -2.8377    4.9946   11.5267 C   0  0  0  0  0  0  0  0  0  0  0  0
   -1.3740    5.2638   11.4862 C   0  0  0  0  0  0  0  0  0  0  0  0
   -0.8886    6.2813   10.6704 C   0  0  0  0  0  0  0  0  0  0  0  0
    0.4571    6.5471   10.6171 C   0  0  0  0  0  0  0  0  0  0  0  0
    1.3669    5.7923   11.3888 C   0  0  0  0  0  0  0  0  0  0  0  0
    0.9194    4.7869   12.2002 C   0  0  0  0  0  0  0  0  0  0  0  0
   -0.4601    4.5693   12.2070 C   0  0  0  0  0  0  0  0  0  0  0  0
 25 26  1  0  0  0
 26 27  2  0  0  0
 27 28  1  0  0  0
 28 29  2  0  0  0
 29 30  1  0  0  0
 30 19  1  0  0  0
 19 20  1  0  0  0
 20 21  2  0  0  0
 20 22  1  0  0  0
 22  1  1  0  0  0
  1  2  2  0  0  0
  2  3  1  0  0  0
  3  4  2  0  0  0
  4  5  1  0  0  0
  5  6  2  0  0  0
  4  7  1  0  0  0
  7  8  2  0  0  0
  8  9  1  0  0  0
  9 10  2  0  0  0
 10 11  1  0  0  0
 11 12  1  0  0  0
 12 13  1  0  0  0
 13 14  2  0  0  0
 14 15  1  0  0  0
 14 16  1  0  0  0
 30 31  2  0  0  0
 31 26  1  0  0  0
  6  1  1  0  0  0
 16  7  1  0  0  0
 16 11  2  0  0  0
 19 23  1  0  0  0
 22 24  1  0  0  0
 15 17  1  0  0  0
 15 18  1  0  0  0
M  END
> <minimizedAffinity>
-7.86234

> <CNNscore>
0.2941128016

> <CNNaffinity>
5.7001299858

> <CNN_VS>
1.6764812469

> <CNNaffinity_variance>
0.5175614953

$$$$
[H]c1c([H])c(N([H])C(=O)N([H])c2c([H])c([H])c(-c3c([H])c([H])c([H])c4onc(N([H])[H])c34)c([H])c2[H])c([H])c(C([H])([H])[H])c1[H]


 31 34  0  0  0  0  0  0  0  0999 V2000
    3.0581    7.1570   15.0099 C   0  0  0  0  0  0  0  0  0  0  0  0
    3.5405    5.9270   15.4575 C   0  0  0  0  0  0  0  0  0  0  0  0
    4.4216    5.8496   16.5017 C   0  0  0  0  0  0  0  0  0  0  0  0
    4.8890    6.9558   17.1750 C   0  0  0  0  0  0  0  0  0  0  0  0
    4.4170    8.1758   16.7393 C   0  0  0  0  0  0  0  0  0  0  0  0
    3.5190    8.2540   15.6755 C   0  0  0  0  0  0  0  0  0  0  0  0
    5.8451    6.8786   18.2916 C   0  0  0  0  0  0  0  0  0  0  0  0
    7.1927    7.1409   18.0714 C   0  0  0  0  0  0  0  0  0  0  0  0
    8.0995    7.1189   19.1083 C   0  0  0  0  0  0  0  0  0  0  0  0
    7.7163    6.8391   20.3939 C   0  0  0  0  0  0  0  0  0  0  0  0
    6.3791    6.5780   20.6087 C   0  0  0  0  0  0  0  0  0  0  0  0
    5.7511    6.2820   21.7214 O   0  0  0  0  0  0  0  0  0  0  0  0
    4.4919    6.1067   21.4785 N   0  0  0  0  0  0  0  0  0  0  0  0
    4.2593    6.2910   20.1553 C   0  0  0  0  0  0  0  0  0  0  0  0
    2.9805    6.1500   19.5665 N   0  0  0  0  0  0  0  0  0  0  0  0
    5.4545    6.5971   19.5722 C   0  0  0  0  0  0  0  0  0  0  0  0
    2.7822    5.4326   18.8399 H   0  0  0  0  0  0  0  0  0  0  0  0
    2.2059    6.7878   19.8705 H   0  0  0  0  0  0  0  0  0  0  0  0
   -0.0021    6.8823   12.8380 N   0  0  0  0  0  0  0  0  0  0  0  0
    0.7815    6.8189   14.0054 C   0  0  0  0  0  0  0  0  0  0  0  0
    0.2128    6.4469   15.0512 O   0  0  0  0  0  0  0  0  0  0  0  0
    2.1406    7.1709   13.9386 N   0  0  0  0  0  0  0  0  0  0  0  0
    0.5040    7.2008   11.9499 H   0  0  0  0  0  0  0  0  0  0  0  0
    2.4713    7.4697   12.9671 H   0  0  0  0  0  0  0  0  0  0  0  0
   -3.4285    4.2724   10.4300 C   0  0  0  0  0  0  0  0  0  0  0  0
   -3.0478    5.2748   11.4629 C   0  0  0  0  0  0  0  0  0  0  0  0
   -4.0400    5.8703   12.2359 C   0  0  0  0  0  0  0  0  0  0  0  0
   -3.7122    6.7972   13.1938 C   0  0  0  0  0  0  0  0  0  0  0  0
   -2.3645    7.1590   13.4082 C   0  0  0  0  0  0  0  0  0  0  0  0
   -1.3679    6.5904   12.6647 C   0  0  0  0  0  0  0  0  0  0  0  0
   -1.7703    5.6560   11.7080 C   0  0  0  0  0  0  0  0  0  0  0  0
 25 26  1  0  0  0
 26 27  2  0  0  0
 27 28  1  0  0  0
 28 29  2  0  0  0
 29 30  1  0  0  0
 30 19  1  0  0  0
 19 20  1  0  0  0
 20 21  2  0  0  0
 20 22  1  0  0  0
 22  1  1  0  0  0
  1  2  2  0  0  0
  2  3  1  0  0  0
  3  4  2  0  0  0
  4  5  1  0  0  0
  5  6  2  0  0  0
  4  7  1  0  0  0
  7  8  2  0  0  0
  8  9  1  0  0  0
  9 10  2  0  0  0
 10 11  1  0  0  0
 11 12  1  0  0  0
 12 13  1  0  0  0
 13 14  2  0  0  0
 14 15  1  0  0  0
 14 16  1  0  0  0
 30 31  2  0  0  0
 31 26  1  0  0  0
  6  1  1  0  0  0
 16  7  1  0  0  0
 16 11  2  0  0  0
 19 23  1  0  0  0
 22 24  1  0  0  0
 15 17  1  0  0  0
 15 18  1  0  0  0
M  END
> <minimizedAffinity>
-7.25068

> <CNNscore>
0.2775492668

> <CNNaffinity>
5.2655248642

> <CNN_VS>
1.4614425898

> <CNNaffinity_variance>
0.3865172267

$$$$
[H]c1c([H])c(N([H])C(=O)N([H])c2c([H])c([H])c(-c3c([H])c([H])c([H])c4onc(N([H])[H])c34)c([H])c2[H])c([H])c(C([H])([H])[H])c1[H]


 31 34  0  0  0  0  0  0  0  0999 V2000
    3.7844    3.6257   16.0946 C   0  0  0  0  0  0  0  0  0  0  0  0
    4.9229    4.2257   16.6330 C   0  0  0  0  0  0  0  0  0  0  0  0
    5.2940    4.0026   17.9312 C   0  0  0  0  0  0  0  0  0  0  0  0
    4.5871    3.1870   18.7860 C   0  0  0  0  0  0  0  0  0  0  0  0
    3.4605    2.5896   18.2619 C   0  0  0  0  0  0  0  0  0  0  0  0
    3.0830    2.8170   16.9390 C   0  0  0  0  0  0  0  0  0  0  0  0
    4.9760    2.9525   20.1862 C   0  0  0  0  0  0  0  0  0  0  0  0
    5.7130    1.8223   20.5224 C   0  0  0  0  0  0  0  0  0  0  0  0
    6.1271    1.6037   21.8181 C   0  0  0  0  0  0  0  0  0  0  0  0
    5.8327    2.4840   22.8261 C   0  0  0  0  0  0  0  0  0  0  0  0
    5.1003    3.6033   22.4896 C   0  0  0  0  0  0  0  0  0  0  0  0
    4.6828    4.5903   23.2456 O   0  0  0  0  0  0  0  0  0  0  0  0
    4.0202    5.4396   22.5280 N   0  0  0  0  0  0  0  0  0  0  0  0
    3.9885    5.0129   21.2412 C   0  0  0  0  0  0  0  0  0  0  0  0
    3.3206    5.7131   20.2091 N   0  0  0  0  0  0  0  0  0  0  0  0
    4.6768    3.8358   21.1872 C   0  0  0  0  0  0  0  0  0  0  0  0
    2.5228    5.2986   19.6860 H   0  0  0  0  0  0  0  0  0  0  0  0
    3.6378    6.6812   19.9614 H   0  0  0  0  0  0  0  0  0  0  0  0
    2.9787    3.3445   12.4300 N   0  0  0  0  0  0  0  0  0  0  0  0
    3.2970    2.9213   13.7340 C   0  0  0  0  0  0  0  0  0  0  0  0
    3.4164    1.6936   13.9190 O   0  0  0  0  0  0  0  0  0  0  0  0
    3.4618    3.8829   14.7457 N   0  0  0  0  0  0  0  0  0  0  0  0
    2.8833    4.4017   12.2901 H   0  0  0  0  0  0  0  0  0  0  0  0
    3.3230    4.8919   14.4216 H   0  0  0  0  0  0  0  0  0  0  0  0
    0.0961    0.1178   10.0575 C   0  0  0  0  0  0  0  0  0  0  0  0
    1.3069    0.9824   10.1112 C   0  0  0  0  0  0  0  0  0  0  0  0
    2.1664    1.0237    9.0175 C   0  0  0  0  0  0  0  0  0  0  0  0
    3.2887    1.8136    9.0450 C   0  0  0  0  0  0  0  0  0  0  0  0
    3.5865    2.5947   10.1826 C   0  0  0  0  0  0  0  0  0  0  0  0
    2.7604    2.5752   11.2719 C   0  0  0  0  0  0  0  0  0  0  0  0
    1.6372    1.7507   11.1780 C   0  0  0  0  0  0  0  0  0  0  0  0
 25 26  1  0  0  0
 26 27  2  0  0  0
 27 28  1  0  0  0
 28 29  2  0  0  0
 29 30  1  0  0  0
 30 19  1  0  0  0
 19 20  1  0  0  0
 20 21  2  0  0  0
 20 22  1  0  0  0
 22  1  1  0  0  0
  1  2  2  0  0  0
  2  3  1  0  0  0
  3  4  2  0  0  0
  4  5  1  0  0  0
  5  6  2  0  0  0
  4  7  1  0  0  0
  7  8  2  0  0  0
  8  9  1  0  0  0
  9 10  2  0  0  0
 10 11  1  0  0  0
 11 12  1  0  0  0
 12 13  1  0  0  0
 13 14  2  0  0  0
 14 15  1  0  0  0
 14 16  1  0  0  0
 30 31  2  0  0  0
 31 26  1  0  0  0
  6  1  1  0  0  0
 16  7  1  0  0  0
 16 11  2  0  0  0
 19 23  1  0  0  0
 22 24  1  0  0  0
 15 17  1  0  0  0
 15 18  1  0  0  0
M  END
> <minimizedAffinity>
-8.04852

> <CNNscore>
0.2299371362

> <CNNaffinity>
5.5061354637

> <CNN_VS>
1.2660650015

> <CNNaffinity_variance>
0.2708113790

$$$$
[H]c1c([H])c(N([H])C(=O)N([H])c2c([H])c([H])c(-c3c([H])c([H])c([H])c4onc(N([H])[H])c34)c([H])c2[H])c([H])c(C([H])([H])[H])c1[H]


 31 34  0  0  0  0  0  0  0  0999 V2000
    3.2423    2.6584   15.0659 C   0  0  0  0  0  0  0  0  0  0  0  0
    2.0505    2.2580   14.4616 C   0  0  0  0  0  0  0  0  0  0  0  0
    1.5140    2.9626   13.4184 C   0  0  0  0  0  0  0  0  0  0  0  0
    2.0969    4.0960   12.8975 C   0  0  0  0  0  0  0  0  0  0  0  0
    3.2756    4.4987   13.4886 C   0  0  0  0  0  0  0  0  0  0  0  0
    3.8220    3.7801   14.5513 C   0  0  0  0  0  0  0  0  0  0  0  0
    1.5182    4.8636   11.7828 C   0  0  0  0  0  0  0  0  0  0  0  0
    0.6413    5.9110   12.0422 C   0  0  0  0  0  0  0  0  0  0  0  0
    0.1216    6.6727   11.0186 C   0  0  0  0  0  0  0  0  0  0  0  0
    0.4433    6.4332    9.7083 C   0  0  0  0  0  0  0  0  0  0  0  0
    1.3123    5.3926    9.4542 C   0  0  0  0  0  0  0  0  0  0  0  0
    1.7778    4.9496    8.3109 O   0  0  0  0  0  0  0  0  0  0  0  0
    2.5671    3.9454    8.5209 N   0  0  0  0  0  0  0  0  0  0  0  0
    2.6386    3.7006    9.8527 C   0  0  0  0  0  0  0  0  0  0  0  0
    3.4069    2.6496   10.4069 N   0  0  0  0  0  0  0  0  0  0  0  0
    1.8435    4.6171   10.4769 C   0  0  0  0  0  0  0  0  0  0  0  0
    2.9735    1.8716   10.9444 H   0  0  0  0  0  0  0  0  0  0  0  0
    4.4467    2.6524   10.2731 H   0  0  0  0  0  0  0  0  0  0  0  0
    4.2818    1.3335   18.4306 N   0  0  0  0  0  0  0  0  0  0  0  0
    3.7214    2.2195   17.4915 C   0  0  0  0  0  0  0  0  0  0  0  0
    3.2200    3.2724   17.9336 O   0  0  0  0  0  0  0  0  0  0  0  0
    3.7529    1.8824   16.1274 N   0  0  0  0  0  0  0  0  0  0  0  0
    4.7100    0.4367   18.0321 H   0  0  0  0  0  0  0  0  0  0  0  0
    4.2172    0.9431   15.9161 H   0  0  0  0  0  0  0  0  0  0  0  0
    6.4498    3.4677   22.3158 C   0  0  0  0  0  0  0  0  0  0  0  0
    5.4433    2.5329   21.7417 C   0  0  0  0  0  0  0  0  0  0  0  0
    4.6003    1.8277   22.5954 C   0  0  0  0  0  0  0  0  0  0  0  0
    3.6651    0.9603   22.0883 C   0  0  0  0  0  0  0  0  0  0  0  0
    3.5453    0.7716   20.6944 C   0  0  0  0  0  0  0  0  0  0  0  0
    4.3591    1.4510   19.8309 C   0  0  0  0  0  0  0  0  0  0  0  0
    5.2879    2.3166   20.4126 C   0  0  0  0  0  0  0  0  0  0  0  0
 25 26  1  0  0  0
 26 27  2  0  0  0
 27 28  1  0  0  0
 28 29  2  0  0  0
 29 30  1  0  0  0
 30 19  1  0  0  0
 19 20  1  0  0  0
 20 21  2  0  0  0
 20 22  1  0  0  0
 22  1  1  0  0  0
  1  2  2  0  0  0
  2  3  1  0  0  0
  3  4  2  0  0  0
  4  5  1  0  0  0
  5  6  2  0  0  0
  4  7  1  0  0  0
  7  8  2  0  0  0
  8  9  1  0  0  0
  9 10  2  0  0  0
 10 11  1  0  0  0
 11 12  1  0  0  0
 12 13  1  0  0  0
 13 14  2  0  0  0
 14 15  1  0  0  0
 14 16  1  0  0  0
 30 31  2  0  0  0
 31 26  1  0  0  0
  6  1  1  0  0  0
 16  7  1  0  0  0
 16 11  2  0  0  0
 19 23  1  0  0  0
 22 24  1  0  0  0
 15 17  1  0  0  0
 15 18  1  0  0  0
M  END
> <minimizedAffinity>
-7.41690

> <CNNscore>
0.2101250142

> <CNNaffinity>
5.5572175980

> <CNN_VS>
1.1677104235

> <CNNaffinity_variance>
0.2552919984

$$$$
[H]c1c([H])c(N([H])C(=O)N([H])c2c([H])c([H])c(-c3c([H])c([H])c([H])c4onc(N([H])[H])c34)c([H])c2[H])c([H])c(C([H])([H])[H])c1[H]


 31 34  0  0  0  0  0  0  0  0999 V2000
    4.1809    4.9877   16.2377 C   0  0  0  0  0  0  0  0  0  0  0  0
    3.0960    4.4095   16.8969 C   0  0  0  0  0  0  0  0  0  0  0  0
    3.2526    3.7834   18.1036 C   0  0  0  0  0  0  0  0  0  0  0  0
    4.4666    3.6785   18.7446 C   0  0  0  0  0  0  0  0  0  0  0  0
    5.5444    4.2477   18.1001 C   0  0  0  0  0  0  0  0  0  0  0  0
    5.3841    4.8858   16.8708 C   0  0  0  0  0  0  0  0  0  0  0  0
    4.6423    2.9965   20.0372 C   0  0  0  0  0  0  0  0  0  0  0  0
    5.0547    1.6691   20.0718 C   0  0  0  0  0  0  0  0  0  0  0  0
    5.2693    1.0227   21.2693 C   0  0  0  0  0  0  0  0  0  0  0  0
    5.0866    1.6548   22.4714 C   0  0  0  0  0  0  0  0  0  0  0  0
    4.6761    2.9711   22.4336 C   0  0  0  0  0  0  0  0  0  0  0  0
    4.4257    3.7995   23.4191 O   0  0  0  0  0  0  0  0  0  0  0  0
    4.0588    4.9458   22.9429 N   0  0  0  0  0  0  0  0  0  0  0  0
    4.0616    4.8916   21.5880 C   0  0  0  0  0  0  0  0  0  0  0  0
    3.6872    5.9824   20.7683 N   0  0  0  0  0  0  0  0  0  0  0  0
    4.4564    3.6345   21.2332 C   0  0  0  0  0  0  0  0  0  0  0  0
    2.8732    5.9352   20.1225 H   0  0  0  0  0  0  0  0  0  0  0  0
    4.2466    6.8681   20.8111 H   0  0  0  0  0  0  0  0  0  0  0  0
    3.5941    5.7947   12.6097 N   0  0  0  0  0  0  0  0  0  0  0  0
    3.8134    5.0045   13.7536 C   0  0  0  0  0  0  0  0  0  0  0  0
    3.8716    3.7696   13.5877 O   0  0  0  0  0  0  0  0  0  0  0  0
    3.9535    5.6317   15.0035 N   0  0  0  0  0  0  0  0  0  0  0  0
    3.5503    6.8522   12.7714 H   0  0  0  0  0  0  0  0  0  0  0  0
    3.8758    6.6973   14.9730 H   0  0  0  0  0  0  0  0  0  0  0  0
    0.4451    4.6271    8.9944 C   0  0  0  0  0  0  0  0  0  0  0  0
    1.8336    4.8317    9.4914 C   0  0  0  0  0  0  0  0  0  0  0  0
    2.9046    4.6485    8.6220 C   0  0  0  0  0  0  0  0  0  0  0  0
    4.1931    4.8314    9.0584 C   0  0  0  0  0  0  0  0  0  0  0  0
    4.4496    5.2079   10.3946 C   0  0  0  0  0  0  0  0  0  0  0  0
    3.4177    5.3959   11.2717 C   0  0  0  0  0  0  0  0  0  0  0  0
    2.1329    5.1931   10.7630 C   0  0  0  0  0  0  0  0  0  0  0  0
 25 26  1  0  0  0
 26 27  2  0  0  0
 27 28  1  0  0  0
 28 29  2  0  0  0
 29 30  1  0  0  0
 30 19  1  0  0  0
 19 20  1  0  0  0
 20 21  2  0  0  0
 20 22  1  0  0  0
 22  1  1  0  0  0
  1  2  2  0  0  0
  2  3  1  0  0  0
  3  4  2  0  0  0
  4  5  1  0  0  0
  5  6  2  0  0  0
  4  7  1  0  0  0
  7  8  2  0  0  0
  8  9  1  0  0  0
  9 10  2  0  0  0
 10 11  1  0  0  0
 11 12  1  0  0  0
 12 13  1  0  0  0
 13 14  2  0  0  0
 14 15  1  0  0  0
 14 16  1  0  0  0
 30 31  2  0  0  0
 31 26  1  0  0  0
  6  1  1  0  0  0
 16  7  1  0  0  0
 16 11  2  0  0  0
 19 23  1  0  0  0
 22 24  1  0  0  0
 15 17  1  0  0  0
 15 18  1  0  0  0
M  END
> <minimizedAffinity>
-7.36000

> <CNNscore>
0.1903681457

> <CNNaffinity>
5.5112748146

> <CNN_VS>
1.0491712093

> <CNNaffinity_variance>
0.1652420759

$$$$
[H]c1c([H])c(N([H])C(=O)N([H])c2c([H])c([H])c(-c3c([H])c([H])c([H])c4onc(N([H])[H])c34)c([H])c2[H])c([H])c(C([H])([H])[H])c1[H]


 31 34  0  0  0  0  0  0  0  0999 V2000
    4.2427    4.6521   16.3955 C   0  0  0  0  0  0  0  0  0  0  0  0
    3.1035    4.8670   17.1713 C   0  0  0  0  0  0  0  0  0  0  0  0
    3.1231    4.6753   18.5261 C   0  0  0  0  0  0  0  0  0  0  0  0
    4.2443    4.2644   19.2115 C   0  0  0  0  0  0  0  0  0  0  0  0
    5.3751    4.0499   18.4523 C   0  0  0  0  0  0  0  0  0  0  0  0
    5.3546    4.2458   17.0720 C   0  0  0  0  0  0  0  0  0  0  0  0
    4.2675    4.0463   20.6671 C   0  0  0  0  0  0  0  0  0  0  0  0
    4.4400    5.1242   21.5283 C   0  0  0  0  0  0  0  0  0  0  0  0
    4.4205    4.9519   22.8950 C   0  0  0  0  0  0  0  0  0  0  0  0
    4.2320    3.7189   23.4625 C   0  0  0  0  0  0  0  0  0  0  0  0
    4.0627    2.6515   22.6054 C   0  0  0  0  0  0  0  0  0  0  0  0
    3.8711    1.3824   22.8751 O   0  0  0  0  0  0  0  0  0  0  0  0
    3.7663    0.7130   21.7722 N   0  0  0  0  0  0  0  0  0  0  0  0
    3.8907    1.5586   20.7194 C   0  0  0  0  0  0  0  0  0  0  0  0
    3.8420    1.1302   19.3718 N   0  0  0  0  0  0  0  0  0  0  0  0
    4.0800    2.8115   21.2257 C   0  0  0  0  0  0  0  0  0  0  0  0
    4.6498    1.2428   18.7262 H   0  0  0  0  0  0  0  0  0  0  0  0
    2.9649    0.6847   19.0095 H   0  0  0  0  0  0  0  0  0  0  0  0
    3.8311    4.3123   12.6709 N   0  0  0  0  0  0  0  0  0  0  0  0
    3.8661    3.9217   14.0225 C   0  0  0  0  0  0  0  0  0  0  0  0
    3.6260    2.7237   14.2735 O   0  0  0  0  0  0  0  0  0  0  0  0
    4.1640    4.8808   15.0058 N   0  0  0  0  0  0  0  0  0  0  0  0
    4.0427    5.3435   12.4749 H   0  0  0  0  0  0  0  0  0  0  0  0
    4.3429    5.8628   14.6237 H   0  0  0  0  0  0  0  0  0  0  0  0
    0.8482    1.0515   10.4756 C   0  0  0  0  0  0  0  0  0  0  0  0
    2.0493    1.9310   10.4560 C   0  0  0  0  0  0  0  0  0  0  0  0
    2.8394    1.9835    9.3117 C   0  0  0  0  0  0  0  0  0  0  0  0
    3.9515    2.7871    9.2712 C   0  0  0  0  0  0  0  0  0  0  0  0
    4.3090    3.5713   10.3894 C   0  0  0  0  0  0  0  0  0  0  0  0
    3.5517    3.5411   11.5273 C   0  0  0  0  0  0  0  0  0  0  0  0
    2.4350    2.7028   11.5015 C   0  0  0  0  0  0  0  0  0  0  0  0
 25 26  1  0  0  0
 26 27  2  0  0  0
 27 28  1  0  0  0
 28 29  2  0  0  0
 29 30  1  0  0  0
 30 19  1  0  0  0
 19 20  1  0  0  0
 20 21  2  0  0  0
 20 22  1  0  0  0
 22  1  1  0  0  0
  1  2  2  0  0  0
  2  3  1  0  0  0
  3  4  2  0  0  0
  4  5  1  0  0  0
  5  6  2  0  0  0
  4  7  1  0  0  0
  7  8  2  0  0  0
  8  9  1  0  0  0
  9 10  2  0  0  0
 10 11  1  0  0  0
 11 12  1  0  0  0
 12 13  1  0  0  0
 13 14  2  0  0  0
 14 15  1  0  0  0
 14 16  1  0  0  0
 30 31  2  0  0  0
 31 26  1  0  0  0
  6  1  1  0  0  0
 16  7  1  0  0  0
 16 11  2  0  0  0
 19 23  1  0  0  0
 22 24  1  0  0  0
 15 17  1  0  0  0
 15 18  1  0  0  0
M  END
> <minimizedAffinity>
-8.41031

> <CNNscore>
0.1865968406

> <CNNaffinity>
5.4315185547

> <CNN_VS>
1.0135041475

> <CNNaffinity_variance>
0.2959854603

$$$$
[H]c1nc2c([H])c(OC([H])([H])C([H])([H])N3C([H])([H])C([H])([H])C([H])([H])C([H])([H])C3([H])[H])c(OC([H])([H])[H])c([H])c2c(N([H])c2c([H])c(N3C([H])([H])C([H])([H])OC([H])([H])C3([H])[H])c([H])c(C(F)(F)F)c2[H])c1C(=O)N([H])[H]


 44 48  0  0  0  0  0  0  0  0999 V2000
    3.5084    4.1317   14.9054 C   0  0  0  0  0  0  0  0  0  0  0  0
    3.9843    3.6274   16.1148 C   0  0  0  0  0  0  0  0  0  0  0  0
    3.6419    2.3758   16.5629 C   0  0  0  0  0  0  0  0  0  0  0  0
    4.0109    1.8765   17.8456 C   0  0  0  0  0  0  0  0  0  0  0  0
    3.5630    0.6656   18.2942 C   0  0  0  0  0  0  0  0  0  0  0  0
    2.7123   -0.0962   17.4117 C   0  0  0  0  0  0  0  0  0  0  0  0
    2.3816    0.3871   16.2354 N   0  0  0  0  0  0  0  0  0  0  0  0
    2.8112    1.5838   15.8064 C   0  0  0  0  0  0  0  0  0  0  0  0
    2.3297    2.0909   14.5821 C   0  0  0  0  0  0  0  0  0  0  0  0
    2.6599    3.3391   14.1367 C   0  0  0  0  0  0  0  0  0  0  0  0
    3.5057    0.2003   19.6761 C   0  0  0  0  0  0  0  0  0  0  0  0
    2.3411   -0.5760   20.0215 N   0  0  0  0  0  0  0  0  0  0  0  0
    4.3057    0.3548   20.6016 O   0  0  0  0  0  0  0  0  0  0  0  0
    1.4606   -0.0753   20.1785 H   0  0  0  0  0  0  0  0  0  0  0  0
    2.3947   -1.6078   20.1015 H   0  0  0  0  0  0  0  0  0  0  0  0
    3.7379    6.5796   15.0737 C   0  0  0  0  0  0  0  0  0  0  0  0
    3.8088    5.3617   14.3893 O   0  0  0  0  0  0  0  0  0  0  0  0
    4.8872    2.6685   18.5901 N   0  0  0  0  0  0  0  0  0  0  0  0
    5.9502    2.4858   18.3873 H   0  0  0  0  0  0  0  0  0  0  0  0
    4.7495    3.6821   19.5548 C   0  0  0  0  0  0  0  0  0  0  0  0
    5.0338    5.0074   19.4289 C   0  0  0  0  0  0  0  0  0  0  0  0
    4.9821    5.8491   20.5311 C   0  0  0  0  0  0  0  0  0  0  0  0
    4.6406    5.3893   21.7876 C   0  0  0  0  0  0  0  0  0  0  0  0
    4.3488    4.0559   21.9149 C   0  0  0  0  0  0  0  0  0  0  0  0
    4.3986    3.2245   20.8430 C   0  0  0  0  0  0  0  0  0  0  0  0
    5.4010    7.1940   20.3931 N   0  0  0  0  0  0  0  0  0  0  0  0
    5.9860    7.9161   21.5324 C   0  0  0  0  0  0  0  0  0  0  0  0
    5.1108    9.0995   21.8123 C   0  0  0  0  0  0  0  0  0  0  0  0
    4.7111    9.7240   20.6459 O   0  0  0  0  0  0  0  0  0  0  0  0
    5.4892    9.3926   19.5571 C   0  0  0  0  0  0  0  0  0  0  0  0
    5.2986    7.8991   19.1680 C   0  0  0  0  0  0  0  0  0  0  0  0
    3.9800    3.5127   23.2694 C   0  0  0  0  0  0  0  0  0  0  0  0
    3.1607    2.4373   23.0518 F   0  0  0  0  0  0  0  0  0  0  0  0
    3.2536    4.4969   23.8921 F   0  0  0  0  0  0  0  0  0  0  0  0
    5.1178    3.1689   23.9719 F   0  0  0  0  0  0  0  0  0  0  0  0
    2.1059    3.7911   12.9238 O   0  0  0  0  0  0  0  0  0  0  0  0
    0.7853    3.3817   12.5800 C   0  0  0  0  0  0  0  0  0  0  0  0
    0.0760    4.2985   11.6649 C   0  0  0  0  0  0  0  0  0  0  0  0
   -0.5060    5.4927   11.9771 N   0  0  0  0  0  0  0  0  0  0  0  0
   -1.8752    5.6240   12.2647 C   0  0  0  0  0  0  0  0  0  0  0  0
   -2.1331    6.7596   13.2601 C   0  0  0  0  0  0  0  0  0  0  0  0
   -0.9973    6.7887   14.2494 C   0  0  0  0  0  0  0  0  0  0  0  0
    0.3175    7.1373   13.5862 C   0  0  0  0  0  0  0  0  0  0  0  0
    0.3186    6.6625   12.1455 C   0  0  0  0  0  0  0  0  0  0  0  0
 16 17  1  0  0  0
 17  1  1  0  0  0
  1  2  2  0  0  0
  2  3  1  0  0  0
  3  4  2  0  0  0
  4 18  1  0  0  0
 18 20  1  0  0  0
 20 21  2  0  0  0
 21 22  1  0  0  0
 22 23  2  0  0  0
 23 24  1  0  0  0
 24 25  2  0  0  0
 24 32  1  0  0  0
 32 33  1  0  0  0
 32 34  1  0  0  0
 32 35  1  0  0  0
 22 26  1  0  0  0
 26 27  1  0  0  0
 27 28  1  0  0  0
 28 29  1  0  0  0
 29 30  1  0  0  0
 30 31  1  0  0  0
  4  5  1  0  0  0
  5  6  2  0  0  0
  6  7  1  0  0  0
  7  8  2  0  0  0
  8  9  1  0  0  0
  9 10  2  0  0  0
 10 36  1  0  0  0
 36 37  1  0  0  0
 37 38  1  0  0  0
 38 39  1  0  0  0
 39 40  1  0  0  0
 40 41  1  0  0  0
 41 42  1  0  0  0
 42 43  1  0  0  0
 43 44  1  0  0  0
  5 11  1  0  0  0
 11 12  1  0  0  0
 11 13  2  0  0  0
 10  1  1  0  0  0
 44 39  1  0  0  0
  8  3  1  0  0  0
 25 20  1  0  0  0
 31 26  1  0  0  0
 18 19  1  0  0  0
 12 14  1  0  0  0
 12 15  1  0  0  0
M  END
> <minimizedAffinity>
-9.55387

> <CNNscore>
0.7068142891

> <CNNaffinity>
7.7033395767

> <CNN_VS>
5.4448304176

> <CNNaffinity_variance>
0.3841152787

$$$$
[H]c1nc2c([H])c(OC([H])([H])C([H])([H])N3C([H])([H])C([H])([H])C([H])([H])C([H])([H])C3([H])[H])c(OC([H])([H])[H])c([H])c2c(N([H])c2c([H])c(N3C([H])([H])C([H])([H])OC([H])([H])C3([H])[H])c([H])c(C(F)(F)F)c2[H])c1C(=O)N([H])[H]


 44 48  0  0  0  0  0  0  0  0999 V2000
    3.5455    3.5066   14.4274 C   0  0  0  0  0  0  0  0  0  0  0  0
    4.0994    3.2392   15.6785 C   0  0  0  0  0  0  0  0  0  0  0  0
    3.7193    2.1490   16.4212 C   0  0  0  0  0  0  0  0  0  0  0  0
    4.1743    1.9116   17.7506 C   0  0  0  0  0  0  0  0  0  0  0  0
    3.6922    0.8700   18.4928 C   0  0  0  0  0  0  0  0  0  0  0  0
    2.7137    0.0094   17.8725 C   0  0  0  0  0  0  0  0  0  0  0  0
    2.3058    0.2512   16.6470 N   0  0  0  0  0  0  0  0  0  0  0  0
    2.7707    1.2849   15.9284 C   0  0  0  0  0  0  0  0  0  0  0  0
    2.2100    1.5522   14.6626 C   0  0  0  0  0  0  0  0  0  0  0  0
    2.5779    2.6408   13.9243 C   0  0  0  0  0  0  0  0  0  0  0  0
    3.7352    0.7234   19.9440 C   0  0  0  0  0  0  0  0  0  0  0  0
    2.5778    0.1039   20.5396 N   0  0  0  0  0  0  0  0  0  0  0  0
    4.6151    1.0355   20.7496 O   0  0  0  0  0  0  0  0  0  0  0  0
    1.7313    0.6722   20.6459 H   0  0  0  0  0  0  0  0  0  0  0  0
    2.6023   -0.8864   20.8437 H   0  0  0  0  0  0  0  0  0  0  0  0
    3.4810    5.8931   13.8161 C   0  0  0  0  0  0  0  0  0  0  0  0
    3.8759    4.5646   13.6268 O   0  0  0  0  0  0  0  0  0  0  0  0
    5.1671    2.7693   18.2281 N   0  0  0  0  0  0  0  0  0  0  0  0
    6.1889    2.3796   18.1352 H   0  0  0  0  0  0  0  0  0  0  0  0
    5.1926    4.0516   18.8043 C   0  0  0  0  0  0  0  0  0  0  0  0
    5.4393    5.2432   18.1940 C   0  0  0  0  0  0  0  0  0  0  0  0
    5.5751    6.4049   18.9409 C   0  0  0  0  0  0  0  0  0  0  0  0
    5.4635    6.4073   20.3173 C   0  0  0  0  0  0  0  0  0  0  0  0
    5.2096    5.2090   20.9328 C   0  0  0  0  0  0  0  0  0  0  0  0
    5.0773    4.0670   20.2108 C   0  0  0  0  0  0  0  0  0  0  0  0
    5.9520    7.6040   18.2902 N   0  0  0  0  0  0  0  0  0  0  0  0
    4.9377    8.4710   17.6727 C   0  0  0  0  0  0  0  0  0  0  0  0
    5.2573    8.5674   16.2121 C   0  0  0  0  0  0  0  0  0  0  0  0
    6.6142    8.7191   15.9970 O   0  0  0  0  0  0  0  0  0  0  0  0
    7.2993    9.1373   17.1178 C   0  0  0  0  0  0  0  0  0  0  0  0
    7.2998    8.0359   18.2157 C   0  0  0  0  0  0  0  0  0  0  0  0
    5.0891    5.1668   22.4325 C   0  0  0  0  0  0  0  0  0  0  0  0
    3.7706    5.3897   22.7273 F   0  0  0  0  0  0  0  0  0  0  0  0
    5.8275    6.2224   22.9062 F   0  0  0  0  0  0  0  0  0  0  0  0
    5.5335    3.9512   22.9133 F   0  0  0  0  0  0  0  0  0  0  0  0
    1.9427    2.8631   12.6877 O   0  0  0  0  0  0  0  0  0  0  0  0
    0.6820    3.5267   12.6753 C   0  0  0  0  0  0  0  0  0  0  0  0
    0.5745    4.6244   11.6932 C   0  0  0  0  0  0  0  0  0  0  0  0
    1.2310    4.7362   10.5020 N   0  0  0  0  0  0  0  0  0  0  0  0
    2.4057    5.4910   10.3443 C   0  0  0  0  0  0  0  0  0  0  0  0
    3.3142    4.8961    9.2638 C   0  0  0  0  0  0  0  0  0  0  0  0
    3.2099    3.3948    9.3319 C   0  0  0  0  0  0  0  0  0  0  0  0
    1.8181    2.9115    8.9862 C   0  0  0  0  0  0  0  0  0  0  0  0
    0.7901    3.9581    9.3720 C   0  0  0  0  0  0  0  0  0  0  0  0
 16 17  1  0  0  0
 17  1  1  0  0  0
  1  2  2  0  0  0
  2  3  1  0  0  0
  3  4  2  0  0  0
  4 18  1  0  0  0
 18 20  1  0  0  0
 20 21  2  0  0  0
 21 22  1  0  0  0
 22 23  2  0  0  0
 23 24  1  0  0  0
 24 25  2  0  0  0
 24 32  1  0  0  0
 32 33  1  0  0  0
 32 34  1  0  0  0
 32 35  1  0  0  0
 22 26  1  0  0  0
 26 27  1  0  0  0
 27 28  1  0  0  0
 28 29  1  0  0  0
 29 30  1  0  0  0
 30 31  1  0  0  0
  4  5  1  0  0  0
  5  6  2  0  0  0
  6  7  1  0  0  0
  7  8  2  0  0  0
  8  9  1  0  0  0
  9 10  2  0  0  0
 10 36  1  0  0  0
 36 37  1  0  0  0
 37 38  1  0  0  0
 38 39  1  0  0  0
 39 40  1  0  0  0
 40 41  1  0  0  0
 41 42  1  0  0  0
 42 43  1  0  0  0
 43 44  1  0  0  0
  5 11  1  0  0  0
 11 12  1  0  0  0
 11 13  2  0  0  0
 10  1  1  0  0  0
 44 39  1  0  0  0
  8  3  1  0  0  0
 25 20  1  0  0  0
 31 26  1  0  0  0
 18 19  1  0  0  0
 12 14  1  0  0  0
 12 15  1  0  0  0
M  END
> <minimizedAffinity>
-8.18749

> <CNNscore>
0.5361787677

> <CNNaffinity>
7.2380132675

> <CNN_VS>
3.8808691502

> <CNNaffinity_variance>
0.3199300766

$$$$
[H]c1nc2c([H])c(OC([H])([H])C([H])([H])N3C([H])([H])C([H])([H])C([H])([H])C([H])([H])C3([H])[H])c(OC([H])([H])[H])c([H])c2c(N([H])c2c([H])c(N3C([H])([H])C([H])([H])OC([H])([H])C3([H])[H])c([H])c(C(F)(F)F)c2[H])c1C(=O)N([H])[H]


 44 48  0  0  0  0  0  0  0  0999 V2000
    3.6660    5.0923   15.1028 C   0  0  0  0  0  0  0  0  0  0  0  0
    4.0856    4.3634   16.2146 C   0  0  0  0  0  0  0  0  0  0  0  0
    3.7090    3.0578   16.4093 C   0  0  0  0  0  0  0  0  0  0  0  0
    4.0188    2.3225   17.5900 C   0  0  0  0  0  0  0  0  0  0  0  0
    3.5373    1.0588   17.7888 C   0  0  0  0  0  0  0  0  0  0  0  0
    2.7136    0.4908   16.7487 C   0  0  0  0  0  0  0  0  0  0  0  0
    2.4375    1.1900   15.6710 N   0  0  0  0  0  0  0  0  0  0  0  0
    2.8997    2.4365   15.4881 C   0  0  0  0  0  0  0  0  0  0  0  0
    2.4752    3.1710   14.3619 C   0  0  0  0  0  0  0  0  0  0  0  0
    2.8394    4.4731   14.1688 C   0  0  0  0  0  0  0  0  0  0  0  0
    3.4176    0.3472   19.0571 C   0  0  0  0  0  0  0  0  0  0  0  0
    2.3501   -0.6192   19.1279 N   0  0  0  0  0  0  0  0  0  0  0  0
    4.0958    0.4305   20.0835 O   0  0  0  0  0  0  0  0  0  0  0  0
    1.3956   -0.2700   19.2609 H   0  0  0  0  0  0  0  0  0  0  0  0
    2.5445   -1.6333   19.0405 H   0  0  0  0  0  0  0  0  0  0  0  0
    4.1109    7.4211   15.7751 C   0  0  0  0  0  0  0  0  0  0  0  0
    4.0032    6.3903   14.8357 O   0  0  0  0  0  0  0  0  0  0  0  0
    4.8741    2.9451   18.5011 N   0  0  0  0  0  0  0  0  0  0  0  0
    5.9337    2.6848   18.3822 H   0  0  0  0  0  0  0  0  0  0  0  0
    4.7198    3.8600   19.5577 C   0  0  0  0  0  0  0  0  0  0  0  0
    5.0325    5.1847   19.5755 C   0  0  0  0  0  0  0  0  0  0  0  0
    4.9561    5.9130   20.7544 C   0  0  0  0  0  0  0  0  0  0  0  0
    4.5609    5.3375   21.9459 C   0  0  0  0  0  0  0  0  0  0  0  0
    4.2404    4.0047   21.9282 C   0  0  0  0  0  0  0  0  0  0  0  0
    4.3141    3.2836   20.7804 C   0  0  0  0  0  0  0  0  0  0  0  0
    5.4040    7.2555   20.7670 N   0  0  0  0  0  0  0  0  0  0  0  0
    6.7200    7.6001   21.3248 C   0  0  0  0  0  0  0  0  0  0  0  0
    6.4923    8.5491   22.4616 C   0  0  0  0  0  0  0  0  0  0  0  0
    5.5317    9.4932   22.1516 O   0  0  0  0  0  0  0  0  0  0  0  0
    5.2973    9.6068   20.7978 C   0  0  0  0  0  0  0  0  0  0  0  0
    4.6316    8.3185   20.2360 C   0  0  0  0  0  0  0  0  0  0  0  0
    3.8128    3.3370   23.2077 C   0  0  0  0  0  0  0  0  0  0  0  0
    2.9074    4.1735   23.8039 F   0  0  0  0  0  0  0  0  0  0  0  0
    4.9330    3.2703   23.9980 F   0  0  0  0  0  0  0  0  0  0  0  0
    3.2776    2.0925   22.9411 F   0  0  0  0  0  0  0  0  0  0  0  0
    2.3414    5.1528   13.0409 O   0  0  0  0  0  0  0  0  0  0  0  0
    2.8724    4.8315   11.7586 C   0  0  0  0  0  0  0  0  0  0  0  0
    4.1670    5.4723   11.4510 C   0  0  0  0  0  0  0  0  0  0  0  0
    4.3700    6.6903   10.8698 N   0  0  0  0  0  0  0  0  0  0  0  0
    5.5563    7.0282   10.1968 C   0  0  0  0  0  0  0  0  0  0  0  0
    5.2935    8.0218    9.0608 C   0  0  0  0  0  0  0  0  0  0  0  0
    3.9664    7.6829    8.4334 C   0  0  0  0  0  0  0  0  0  0  0  0
    2.8201    7.8794    9.4016 C   0  0  0  0  0  0  0  0  0  0  0  0
    3.2909    7.6445   10.8243 C   0  0  0  0  0  0  0  0  0  0  0  0
 16 17  1  0  0  0
 17  1  1  0  0  0
  1  2  2  0  0  0
  2  3  1  0  0  0
  3  4  2  0  0  0
  4 18  1  0  0  0
 18 20  1  0  0  0
 20 21  2  0  0  0
 21 22  1  0  0  0
 22 23  2  0  0  0
 23 24  1  0  0  0
 24 25  2  0  0  0
 24 32  1  0  0  0
 32 33  1  0  0  0
 32 34  1  0  0  0
 32 35  1  0  0  0
 22 26  1  0  0  0
 26 27  1  0  0  0
 27 28  1  0  0  0
 28 29  1  0  0  0
 29 30  1  0  0  0
 30 31  1  0  0  0
  4  5  1  0  0  0
  5  6  2  0  0  0
  6  7  1  0  0  0
  7  8  2  0  0  0
  8  9  1  0  0  0
  9 10  2  0  0  0
 10 36  1  0  0  0
 36 37  1  0  0  0
 37 38  1  0  0  0
 38 39  1  0  0  0
 39 40  1  0  0  0
 40 41  1  0  0  0
 41 42  1  0  0  0
 42 43  1  0  0  0
 43 44  1  0  0  0
  5 11  1  0  0  0
 11 12  1  0  0  0
 11 13  2  0  0  0
 10  1  1  0  0  0
 44 39  1  0  0  0
  8  3  1  0  0  0
 25 20  1  0  0  0
 31 26  1  0  0  0
 18 19  1  0  0  0
 12 14  1  0  0  0
 12 15  1  0  0  0
M  END
> <minimizedAffinity>
-8.82339

> <CNNscore>
0.5056695342

> <CNNaffinity>
7.2356414795

> <CNN_VS>
3.6588435173

> <CNNaffinity_variance>
0.2149567902

$$$$
[H]c1nc2c([H])c(OC([H])([H])C([H])([H])N3C([H])([H])C([H])([H])C([H])([H])C([H])([H])C3([H])[H])c(OC([H])([H])[H])c([H])c2c(N([H])c2c([H])c(N3C([H])([H])C([H])([H])OC([H])([H])C3([H])[H])c([H])c(C(F)(F)F)c2[H])c1C(=O)N([H])[H]


 44 48  0  0  0  0  0  0  0  0999 V2000
    3.6336    3.1329   14.6966 C   0  0  0  0  0  0  0  0  0  0  0  0
    4.1657    2.9803   15.9760 C   0  0  0  0  0  0  0  0  0  0  0  0
    3.7570    1.9739   16.8155 C   0  0  0  0  0  0  0  0  0  0  0  0
    4.1897    1.8602   18.1685 C   0  0  0  0  0  0  0  0  0  0  0  0
    3.6798    0.9037   19.0011 C   0  0  0  0  0  0  0  0  0  0  0  0
    2.6954    0.0021   18.4527 C   0  0  0  0  0  0  0  0  0  0  0  0
    2.3085    0.1295   17.2034 N   0  0  0  0  0  0  0  0  0  0  0  0
    2.8006    1.0806   16.3948 C   0  0  0  0  0  0  0  0  0  0  0  0
    2.2619    1.2319   15.1006 C   0  0  0  0  0  0  0  0  0  0  0  0
    2.6584    2.2373   14.2655 C   0  0  0  0  0  0  0  0  0  0  0  0
    3.7005    0.8988   20.4602 C   0  0  0  0  0  0  0  0  0  0  0  0
    2.5924    0.2291   21.0942 N   0  0  0  0  0  0  0  0  0  0  0  0
    4.5266    1.3686   21.2459 O   0  0  0  0  0  0  0  0  0  0  0  0
    1.6936    0.7205   21.1322 H   0  0  0  0  0  0  0  0  0  0  0  0
    2.7030   -0.7213   21.4921 H   0  0  0  0  0  0  0  0  0  0  0  0
    3.4918    5.4078   13.7594 C   0  0  0  0  0  0  0  0  0  0  0  0
    3.9929    4.1025   13.8019 O   0  0  0  0  0  0  0  0  0  0  0  0
    5.1903    2.7448   18.5753 N   0  0  0  0  0  0  0  0  0  0  0  0
    6.2028    2.3212   18.5690 H   0  0  0  0  0  0  0  0  0  0  0  0
    5.2338    4.0871   18.9920 C   0  0  0  0  0  0  0  0  0  0  0  0
    5.1828    5.2087   18.2223 C   0  0  0  0  0  0  0  0  0  0  0  0
    5.3900    6.4609   18.7837 C   0  0  0  0  0  0  0  0  0  0  0  0
    5.6492    6.6256   20.1300 C   0  0  0  0  0  0  0  0  0  0  0  0
    5.6954    5.4973   20.9073 C   0  0  0  0  0  0  0  0  0  0  0  0
    5.4960    4.2680   20.3669 C   0  0  0  0  0  0  0  0  0  0  0  0
    5.4524    7.5947   17.9387 N   0  0  0  0  0  0  0  0  0  0  0  0
    4.2260    8.3058   17.5491 C   0  0  0  0  0  0  0  0  0  0  0  0
    4.1257    8.2446   16.0554 C   0  0  0  0  0  0  0  0  0  0  0  0
    5.3506    8.4638   15.4538 O   0  0  0  0  0  0  0  0  0  0  0  0
    6.2679    9.0635   16.2901 C   0  0  0  0  0  0  0  0  0  0  0  0
    6.6782    8.1079   17.4464 C   0  0  0  0  0  0  0  0  0  0  0  0
    5.9835    5.6325   22.3785 C   0  0  0  0  0  0  0  0  0  0  0  0
    4.8638    5.2027   23.0393 F   0  0  0  0  0  0  0  0  0  0  0  0
    6.1432    6.9749   22.6159 F   0  0  0  0  0  0  0  0  0  0  0  0
    7.1030    4.8979   22.7153 F   0  0  0  0  0  0  0  0  0  0  0  0
    2.0440    2.3478   13.0035 O   0  0  0  0  0  0  0  0  0  0  0  0
    0.7476    2.9330   12.9223 C   0  0  0  0  0  0  0  0  0  0  0  0
    0.5770    3.8989   11.8182 C   0  0  0  0  0  0  0  0  0  0  0  0
   -0.2231    5.0044   11.8022 N   0  0  0  0  0  0  0  0  0  0  0  0
   -1.6248    4.9348   11.8715 C   0  0  0  0  0  0  0  0  0  0  0  0
   -2.2136    6.1626   12.5735 C   0  0  0  0  0  0  0  0  0  0  0  0
   -1.2755    6.5704   13.6795 C   0  0  0  0  0  0  0  0  0  0  0  0
    0.0628    7.0283   13.1416 C   0  0  0  0  0  0  0  0  0  0  0  0
    0.3750    6.3150   11.8398 C   0  0  0  0  0  0  0  0  0  0  0  0
 16 17  1  0  0  0
 17  1  1  0  0  0
  1  2  2  0  0  0
  2  3  1  0  0  0
  3  4  2  0  0  0
  4 18  1  0  0  0
 18 20  1  0  0  0
 20 21  2  0  0  0
 21 22  1  0  0  0
 22 23  2  0  0  0
 23 24  1  0  0  0
 24 25  2  0  0  0
 24 32  1  0  0  0
 32 33  1  0  0  0
 32 34  1  0  0  0
 32 35  1  0  0  0
 22 26  1  0  0  0
 26 27  1  0  0  0
 27 28  1  0  0  0
 28 29  1  0  0  0
 29 30  1  0  0  0
 30 31  1  0  0  0
  4  5  1  0  0  0
  5  6  2  0  0  0
  6  7  1  0  0  0
  7  8  2  0  0  0
  8  9  1  0  0  0
  9 10  2  0  0  0
 10 36  1  0  0  0
 36 37  1  0  0  0
 37 38  1  0  0  0
 38 39  1  0  0  0
 39 40  1  0  0  0
 40 41  1  0  0  0
 41 42  1  0  0  0
 42 43  1  0  0  0
 43 44  1  0  0  0
  5 11  1  0  0  0
 11 12  1  0  0  0
 11 13  2  0  0  0
 10  1  1  0  0  0
 44 39  1  0  0  0
  8  3  1  0  0  0
 25 20  1  0  0  0
 31 26  1  0  0  0
 18 19  1  0  0  0
 12 14  1  0  0  0
 12 15  1  0  0  0
M  END
> <minimizedAffinity>
-9.04353

> <CNNscore>
0.4919563532

> <CNNaffinity>
6.9862899780

> <CNN_VS>
3.4369497299

> <CNNaffinity_variance>
0.3667588234

$$$$
[H]c1nc2c([H])c(OC([H])([H])C([H])([H])N3C([H])([H])C([H])([H])C([H])([H])C([H])([H])C3([H])[H])c(OC([H])([H])[H])c([H])c2c(N([H])c2c([H])c(N3C([H])([H])C([H])([H])OC([H])([H])C3([H])[H])c([H])c(C(F)(F)F)c2[H])c1C(=O)N([H])[H]


 44 48  0  0  0  0  0  0  0  0999 V2000
    2.7430    4.2836   14.4191 C   0  0  0  0  0  0  0  0  0  0  0  0
    3.5134    4.0627   15.5598 C   0  0  0  0  0  0  0  0  0  0  0  0
    3.5010    2.8596   16.2208 C   0  0  0  0  0  0  0  0  0  0  0  0
    4.1803    2.6378   17.4537 C   0  0  0  0  0  0  0  0  0  0  0  0
    4.0584    1.4572   18.1315 C   0  0  0  0  0  0  0  0  0  0  0  0
    3.2256    0.4362   17.5425 C   0  0  0  0  0  0  0  0  0  0  0  0
    2.6053    0.6656   16.4070 N   0  0  0  0  0  0  0  0  0  0  0  0
    2.7157    1.8326   15.7538 C   0  0  0  0  0  0  0  0  0  0  0  0
    1.9367    2.0529   14.5994 C   0  0  0  0  0  0  0  0  0  0  0  0
    1.9383    3.2512   13.9440 C   0  0  0  0  0  0  0  0  0  0  0  0
    4.3372    1.2148   19.5432 C   0  0  0  0  0  0  0  0  0  0  0  0
    3.3279    0.4727   20.2564 N   0  0  0  0  0  0  0  0  0  0  0  0
    5.3114    1.5345   20.2283 O   0  0  0  0  0  0  0  0  0  0  0  0
    2.4750    0.9687   20.5344 H   0  0  0  0  0  0  0  0  0  0  0  0
    3.4609   -0.5317   20.4739 H   0  0  0  0  0  0  0  0  0  0  0  0
    3.6939    5.9020   12.8223 C   0  0  0  0  0  0  0  0  0  0  0  0
    2.7068    5.4481   13.7033 O   0  0  0  0  0  0  0  0  0  0  0  0
    5.0075    3.6704   17.8997 N   0  0  0  0  0  0  0  0  0  0  0  0
    6.0649    3.5563   17.6285 H   0  0  0  0  0  0  0  0  0  0  0  0
    4.8224    4.8638   18.6198 C   0  0  0  0  0  0  0  0  0  0  0  0
    4.3801    6.0652   18.1573 C   0  0  0  0  0  0  0  0  0  0  0  0
    4.3985    7.1871   18.9741 C   0  0  0  0  0  0  0  0  0  0  0  0
    4.8553    7.1369   20.2763 C   0  0  0  0  0  0  0  0  0  0  0  0
    5.2959    5.9263   20.7452 C   0  0  0  0  0  0  0  0  0  0  0  0
    5.2837    4.8239   19.9531 C   0  0  0  0  0  0  0  0  0  0  0  0
    4.0481    8.4448   18.4277 N   0  0  0  0  0  0  0  0  0  0  0  0
    4.3814    8.7743   17.0341 C   0  0  0  0  0  0  0  0  0  0  0  0
    5.2750    9.9767   17.0575 C   0  0  0  0  0  0  0  0  0  0  0  0
    4.8404   10.9160   17.9735 O   0  0  0  0  0  0  0  0  0  0  0  0
    3.5267   10.7390   18.3526 C   0  0  0  0  0  0  0  0  0  0  0  0
    3.3538    9.4297   19.1737 C   0  0  0  0  0  0  0  0  0  0  0  0
    5.8098    5.8305   22.1567 C   0  0  0  0  0  0  0  0  0  0  0  0
    6.7929    4.8773   22.1531 F   0  0  0  0  0  0  0  0  0  0  0  0
    4.7613    5.3745   22.9160 F   0  0  0  0  0  0  0  0  0  0  0  0
    6.2754    7.0595   22.5798 F   0  0  0  0  0  0  0  0  0  0  0  0
    1.1019    3.4078   12.8223 O   0  0  0  0  0  0  0  0  0  0  0  0
    1.6360    3.1440   11.5282 C   0  0  0  0  0  0  0  0  0  0  0  0
    1.2036    4.0902   10.4799 C   0  0  0  0  0  0  0  0  0  0  0  0
    0.1608    4.9687   10.5372 N   0  0  0  0  0  0  0  0  0  0  0  0
   -1.1836    4.5645   10.4783 C   0  0  0  0  0  0  0  0  0  0  0  0
   -2.0885    5.5065   11.2787 C   0  0  0  0  0  0  0  0  0  0  0  0
   -1.3359    5.9584   12.5031 C   0  0  0  0  0  0  0  0  0  0  0  0
   -0.1230    6.7887   12.1431 C   0  0  0  0  0  0  0  0  0  0  0  0
    0.4199    6.3632   10.7922 C   0  0  0  0  0  0  0  0  0  0  0  0
 16 17  1  0  0  0
 17  1  1  0  0  0
  1  2  2  0  0  0
  2  3  1  0  0  0
  3  4  2  0  0  0
  4 18  1  0  0  0
 18 20  1  0  0  0
 20 21  2  0  0  0
 21 22  1  0  0  0
 22 23  2  0  0  0
 23 24  1  0  0  0
 24 25  2  0  0  0
 24 32  1  0  0  0
 32 33  1  0  0  0
 32 34  1  0  0  0
 32 35  1  0  0  0
 22 26  1  0  0  0
 26 27  1  0  0  0
 27 28  1  0  0  0
 28 29  1  0  0  0
 29 30  1  0  0  0
 30 31  1  0  0  0
  4  5  1  0  0  0
  5  6  2  0  0  0
  6  7  1  0  0  0
  7  8  2  0  0  0
  8  9  1  0  0  0
  9 10  2  0  0  0
 10 36  1  0  0  0
 36 37  1  0  0  0
 37 38  1  0  0  0
 38 39  1  0  0  0
 39 40  1  0  0  0
 40 41  1  0  0  0
 41 42  1  0  0  0
 42 43  1  0  0  0
 43 44  1  0  0  0
  5 11  1  0  0  0
 11 12  1  0  0  0
 11 13  2  0  0  0
 10  1  1  0  0  0
 44 39  1  0  0  0
  8  3  1  0  0  0
 25 20  1  0  0  0
 31 26  1  0  0  0
 18 19  1  0  0  0
 12 14  1  0  0  0
 12 15  1  0  0  0
M  END
> <minimizedAffinity>
-8.62922

> <CNNscore>
0.4191883206

> <CNNaffinity>
7.1173477173

> <CNN_VS>
2.9835090637

> <CNNaffinity_variance>
0.4160344005

$$$$
[H]c1nc2c([H])c(OC([H])([H])C([H])([H])N3C([H])([H])C([H])([H])C([H])([H])C([H])([H])C3([H])[H])c(OC([H])([H])[H])c([H])c2c(N([H])c2c([H])c(N3C([H])([H])C([H])([H])OC([H])([H])C3([H])[H])c([H])c(C(F)(F)F)c2[H])c1C(=O)N([H])[H]


 44 48  0  0  0  0  0  0  0  0999 V2000
    4.5080    2.6107   17.4401 C   0  0  0  0  0  0  0  0  0  0  0  0
    4.9986    2.9706   18.6944 C   0  0  0  0  0  0  0  0  0  0  0  0
    4.6597    2.2792   19.8308 C   0  0  0  0  0  0  0  0  0  0  0  0
    5.0444    2.6901   21.1400 C   0  0  0  0  0  0  0  0  0  0  0  0
    4.6000    2.0316   22.2523 C   0  0  0  0  0  0  0  0  0  0  0  0
    3.7364    0.8932   22.0494 C   0  0  0  0  0  0  0  0  0  0  0  0
    3.3914    0.5362   20.8328 N   0  0  0  0  0  0  0  0  0  0  0  0
    3.8177    1.1960   19.7448 C   0  0  0  0  0  0  0  0  0  0  0  0
    3.3213    0.8289   18.4772 C   0  0  0  0  0  0  0  0  0  0  0  0
    3.6480    1.5196   17.3452 C   0  0  0  0  0  0  0  0  0  0  0  0
    4.5597    2.5352   23.6213 C   0  0  0  0  0  0  0  0  0  0  0  0
    3.7581    3.7160   23.8247 N   0  0  0  0  0  0  0  0  0  0  0  0
    5.0956    2.1029   24.6443 O   0  0  0  0  0  0  0  0  0  0  0  0
    4.1483    4.6169   23.5300 H   0  0  0  0  0  0  0  0  0  0  0  0
    2.8152    3.6516   24.2498 H   0  0  0  0  0  0  0  0  0  0  0  0
    4.4913    4.5681   15.9430 C   0  0  0  0  0  0  0  0  0  0  0  0
    4.8040    3.2432   16.2646 O   0  0  0  0  0  0  0  0  0  0  0  0
    5.9317    3.7653   21.2162 N   0  0  0  0  0  0  0  0  0  0  0  0
    6.9918    3.4852   21.1674 H   0  0  0  0  0  0  0  0  0  0  0  0
    5.8085    5.1613   21.3302 C   0  0  0  0  0  0  0  0  0  0  0  0
    5.0563    6.0040   20.5706 C   0  0  0  0  0  0  0  0  0  0  0  0
    5.1655    7.3793   20.7218 C   0  0  0  0  0  0  0  0  0  0  0  0
    6.0262    7.9485   21.6394 C   0  0  0  0  0  0  0  0  0  0  0  0
    6.7804    7.1009   22.4089 C   0  0  0  0  0  0  0  0  0  0  0  0
    6.6819    5.7544   22.2668 C   0  0  0  0  0  0  0  0  0  0  0  0
    4.4625    8.2294   19.8351 N   0  0  0  0  0  0  0  0  0  0  0  0
    3.7290    7.6730   18.6888 C   0  0  0  0  0  0  0  0  0  0  0  0
    4.3224    8.2627   17.4458 C   0  0  0  0  0  0  0  0  0  0  0  0
    4.5801    9.6123   17.5958 O   0  0  0  0  0  0  0  0  0  0  0  0
    3.8978   10.1827   18.6492 C   0  0  0  0  0  0  0  0  0  0  0  0
    4.4126    9.6349   20.0105 C   0  0  0  0  0  0  0  0  0  0  0  0
    7.7373    7.6812   23.4154 C   0  0  0  0  0  0  0  0  0  0  0  0
    8.6150    6.6829   23.7442 F   0  0  0  0  0  0  0  0  0  0  0  0
    6.9882    7.9875   24.5240 F   0  0  0  0  0  0  0  0  0  0  0  0
    8.3760    8.7849   22.8859 F   0  0  0  0  0  0  0  0  0  0  0  0
    3.0792    1.1174   16.1217 O   0  0  0  0  0  0  0  0  0  0  0  0
    2.0473    1.9169   15.5510 C   0  0  0  0  0  0  0  0  0  0  0  0
    1.9700    1.8611   14.0773 C   0  0  0  0  0  0  0  0  0  0  0  0
    1.8756    2.9133   13.2132 N   0  0  0  0  0  0  0  0  0  0  0  0
    1.5789    4.2216   13.6312 C   0  0  0  0  0  0  0  0  0  0  0  0
    2.2417    5.2640   12.7251 C   0  0  0  0  0  0  0  0  0  0  0  0
    3.5880    4.7362   12.3028 C   0  0  0  0  0  0  0  0  0  0  0  0
    3.4620    3.4941   11.4475 C   0  0  0  0  0  0  0  0  0  0  0  0
    2.2105    2.7243   11.8244 C   0  0  0  0  0  0  0  0  0  0  0  0
 16 17  1  0  0  0
 17  1  1  0  0  0
  1  2  2  0  0  0
  2  3  1  0  0  0
  3  4  2  0  0  0
  4 18  1  0  0  0
 18 20  1  0  0  0
 20 21  2  0  0  0
 21 22  1  0  0  0
 22 23  2  0  0  0
 23 24  1  0  0  0
 24 25  2  0  0  0
 24 32  1  0  0  0
 32 33  1  0  0  0
 32 34  1  0  0  0
 32 35  1  0  0  0
 22 26  1  0  0  0
 26 27  1  0  0  0
 27 28  1  0  0  0
 28 29  1  0  0  0
 29 30  1  0  0  0
 30 31  1  0  0  0
  4  5  1  0  0  0
  5  6  2  0  0  0
  6  7  1  0  0  0
  7  8  2  0  0  0
  8  9  1  0  0  0
  9 10  2  0  0  0
 10 36  1  0  0  0
 36 37  1  0  0  0
 37 38  1  0  0  0
 38 39  1  0  0  0
 39 40  1  0  0  0
 40 41  1  0  0  0
 41 42  1  0  0  0
 42 43  1  0  0  0
 43 44  1  0  0  0
  5 11  1  0  0  0
 11 12  1  0  0  0
 11 13  2  0  0  0
 10  1  1  0  0  0
 44 39  1  0  0  0
  8  3  1  0  0  0
 25 20  1  0  0  0
 31 26  1  0  0  0
 18 19  1  0  0  0
 12 14  1  0  0  0
 12 15  1  0  0  0
M  END
> <minimizedAffinity>
-9.09559

> <CNNscore>
0.4143800139

> <CNNaffinity>
7.1783194542

> <CNN_VS>
2.9745521545

> <CNNaffinity_variance>
0.1909844428

$$$$
[H]c1nc2c([H])c(OC([H])([H])C([H])([H])N3C([H])([H])C([H])([H])C([H])([H])C([H])([H])C3([H])[H])c(OC([H])([H])[H])c([H])c2c(N([H])c2c([H])c(N3C([H])([H])C([H])([H])OC([H])([H])C3([H])[H])c([H])c(C(F)(F)F)c2[H])c1C(=O)N([H])[H]


 44 48  0  0  0  0  0  0  0  0999 V2000
    3.7087    3.9062   14.2891 C   0  0  0  0  0  0  0  0  0  0  0  0
    4.2559    3.8608   15.5705 C   0  0  0  0  0  0  0  0  0  0  0  0
    4.0438    2.7968   16.4117 C   0  0  0  0  0  0  0  0  0  0  0  0
    4.4856    2.7709   17.7662 C   0  0  0  0  0  0  0  0  0  0  0  0
    4.1646    1.7366   18.6002 C   0  0  0  0  0  0  0  0  0  0  0  0
    3.3719    0.6626   18.0515 C   0  0  0  0  0  0  0  0  0  0  0  0
    2.9720    0.7111   16.8008 N   0  0  0  0  0  0  0  0  0  0  0  0
    3.2765    1.7367   15.9908 C   0  0  0  0  0  0  0  0  0  0  0  0
    2.7232    1.7795   14.6947 C   0  0  0  0  0  0  0  0  0  0  0  0
    2.9235    2.8402   13.8578 C   0  0  0  0  0  0  0  0  0  0  0  0
    4.1810    1.7391   20.0593 C   0  0  0  0  0  0  0  0  0  0  0  0
    4.7097    0.5481   20.6759 N   0  0  0  0  0  0  0  0  0  0  0  0
    3.8239    2.6083   20.8577 O   0  0  0  0  0  0  0  0  0  0  0  0
    4.1092   -0.2821   20.7076 H   0  0  0  0  0  0  0  0  0  0  0  0
    5.6689    0.5333   21.0678 H   0  0  0  0  0  0  0  0  0  0  0  0
    3.2730    6.1834   13.4536 C   0  0  0  0  0  0  0  0  0  0  0  0
    3.8796    4.9244   13.3926 O   0  0  0  0  0  0  0  0  0  0  0  0
    5.2979    3.8309   18.1733 N   0  0  0  0  0  0  0  0  0  0  0  0
    6.3670    3.6899   17.9692 H   0  0  0  0  0  0  0  0  0  0  0  0
    5.0865    5.0786   18.7862 C   0  0  0  0  0  0  0  0  0  0  0  0
    4.5232    6.1951   18.2484 C   0  0  0  0  0  0  0  0  0  0  0  0
    4.5269    7.3947   18.9463 C   0  0  0  0  0  0  0  0  0  0  0  0
    5.0898    7.5090   20.2021 C   0  0  0  0  0  0  0  0  0  0  0  0
    5.6525    6.3840   20.7472 C   0  0  0  0  0  0  0  0  0  0  0  0
    5.6555    5.2067   20.0714 C   0  0  0  0  0  0  0  0  0  0  0  0
    4.0443    8.5642   18.3119 N   0  0  0  0  0  0  0  0  0  0  0  0
    4.2351    8.7652   16.8680 C   0  0  0  0  0  0  0  0  0  0  0  0
    5.0408   10.0158   16.6905 C   0  0  0  0  0  0  0  0  0  0  0  0
    4.6198   11.0178   17.5443 O   0  0  0  0  0  0  0  0  0  0  0  0
    3.3585   10.8015   18.0570 C   0  0  0  0  0  0  0  0  0  0  0  0
    3.3477    9.5776   19.0164 C   0  0  0  0  0  0  0  0  0  0  0  0
    6.2842    6.4680   22.1108 C   0  0  0  0  0  0  0  0  0  0  0  0
    7.4637    5.7760   22.0409 F   0  0  0  0  0  0  0  0  0  0  0  0
    5.4390    5.8062   22.9661 F   0  0  0  0  0  0  0  0  0  0  0  0
    6.4735    7.7880   22.4689 F   0  0  0  0  0  0  0  0  0  0  0  0
    2.3036    2.8287   12.5938 O   0  0  0  0  0  0  0  0  0  0  0  0
    2.5802    1.7496   11.7056 C   0  0  0  0  0  0  0  0  0  0  0  0
    2.9572    2.1600   10.3380 C   0  0  0  0  0  0  0  0  0  0  0  0
    3.6222    1.4183    9.4052 N   0  0  0  0  0  0  0  0  0  0  0  0
    4.9500    1.6786    9.0262 C   0  0  0  0  0  0  0  0  0  0  0  0
    5.6796    0.3943    8.6195 C   0  0  0  0  0  0  0  0  0  0  0  0
    5.1981   -0.7243    9.5062 C   0  0  0  0  0  0  0  0  0  0  0  0
    3.7297   -1.0204    9.2908 C   0  0  0  0  0  0  0  0  0  0  0  0
    3.0000    0.2380    8.8607 C   0  0  0  0  0  0  0  0  0  0  0  0
 16 17  1  0  0  0
 17  1  1  0  0  0
  1  2  2  0  0  0
  2  3  1  0  0  0
  3  4  2  0  0  0
  4 18  1  0  0  0
 18 20  1  0  0  0
 20 21  2  0  0  0
 21 22  1  0  0  0
 22 23  2  0  0  0
 23 24  1  0  0  0
 24 25  2  0  0  0
 24 32  1  0  0  0
 32 33  1  0  0  0
 32 34  1  0  0  0
 32 35  1  0  0  0
 22 26  1  0  0  0
 26 27  1  0  0  0
 27 28  1  0  0  0
 28 29  1  0  0  0
 29 30  1  0  0  0
 30 31  1  0  0  0
  4  5  1  0  0  0
  5  6  2  0  0  0
  6  7  1  0  0  0
  7  8  2  0  0  0
  8  9  1  0  0  0
  9 10  2  0  0  0
 10 36  1  0  0  0
 36 37  1  0  0  0
 37 38  1  0  0  0
 38 39  1  0  0  0
 39 40  1  0  0  0
 40 41  1  0  0  0
 41 42  1  0  0  0
 42 43  1  0  0  0
 43 44  1  0  0  0
  5 11  1  0  0  0
 11 12  1  0  0  0
 11 13  2  0  0  0
 10  1  1  0  0  0
 44 39  1  0  0  0
  8  3  1  0  0  0
 25 20  1  0  0  0
 31 26  1  0  0  0
 18 19  1  0  0  0
 12 14  1  0  0  0
 12 15  1  0  0  0
M  END
> <minimizedAffinity>
-8.71363

> <CNNscore>
0.2740957141

> <CNNaffinity>
6.8268690109

> <CNN_VS>
1.8712155819

> <CNNaffinity_variance>
0.4737655520

$$$$
[H]c1nc2c([H])c(OC([H])([H])C([H])([H])N3C([H])([H])C([H])([H])C([H])([H])C([H])([H])C3([H])[H])c(OC([H])([H])[H])c([H])c2c(N([H])c2c([H])c(N3C([H])([H])C([H])([H])OC([H])([H])C3([H])[H])c([H])c(C(F)(F)F)c2[H])c1C(=O)N([H])[H]


 44 48  0  0  0  0  0  0  0  0999 V2000
    4.2180    8.8644   19.7840 C   0  0  0  0  0  0  0  0  0  0  0  0
    3.7807    7.5810   19.4597 C   0  0  0  0  0  0  0  0  0  0  0  0
    4.1194    6.4871   20.2169 C   0  0  0  0  0  0  0  0  0  0  0  0
    3.7918    5.1499   19.8491 C   0  0  0  0  0  0  0  0  0  0  0  0
    4.2366    4.0820   20.5770 C   0  0  0  0  0  0  0  0  0  0  0  0
    5.0400    4.3613   21.7429 C   0  0  0  0  0  0  0  0  0  0  0  0
    5.3331    5.6025   22.0594 N   0  0  0  0  0  0  0  0  0  0  0  0
    4.9072    6.6467   21.3320 C   0  0  0  0  0  0  0  0  0  0  0  0
    5.3495    7.9439   21.6631 C   0  0  0  0  0  0  0  0  0  0  0  0
    5.0231    9.0338   20.9074 C   0  0  0  0  0  0  0  0  0  0  0  0
    4.3393    2.6939   20.1387 C   0  0  0  0  0  0  0  0  0  0  0  0
    3.7984    1.7146   21.0478 N   0  0  0  0  0  0  0  0  0  0  0  0
    4.8074    2.2196   19.1012 O   0  0  0  0  0  0  0  0  0  0  0  0
    4.3531    1.4698   21.8743 H   0  0  0  0  0  0  0  0  0  0  0  0
    2.8749    1.2786   20.8715 H   0  0  0  0  0  0  0  0  0  0  0  0
    2.6660   10.3368   18.5606 C   0  0  0  0  0  0  0  0  0  0  0  0
    3.9183   10.0012   19.0858 O   0  0  0  0  0  0  0  0  0  0  0  0
    2.9581    4.9991   18.7394 N   0  0  0  0  0  0  0  0  0  0  0  0
    1.8915    4.9045   18.9806 H   0  0  0  0  0  0  0  0  0  0  0  0
    3.1418    4.9491   17.3463 C   0  0  0  0  0  0  0  0  0  0  0  0
    3.2878    5.9883   16.4793 C   0  0  0  0  0  0  0  0  0  0  0  0
    3.3093    5.7680   15.1093 C   0  0  0  0  0  0  0  0  0  0  0  0
    3.1898    4.5025   14.5696 C   0  0  0  0  0  0  0  0  0  0  0  0
    3.0482    3.4544   15.4417 C   0  0  0  0  0  0  0  0  0  0  0  0
    3.0240    3.6602   16.7833 C   0  0  0  0  0  0  0  0  0  0  0  0
    3.3390    6.8781   14.2317 N   0  0  0  0  0  0  0  0  0  0  0  0
    4.1835    8.0444   14.5288 C   0  0  0  0  0  0  0  0  0  0  0  0
    3.2809    9.2339   14.6511 C   0  0  0  0  0  0  0  0  0  0  0  0
    2.3062    9.2360   13.6711 O   0  0  0  0  0  0  0  0  0  0  0  0
    2.6042    8.4133   12.6058 C   0  0  0  0  0  0  0  0  0  0  0  0
    2.5852    6.9179   13.0322 C   0  0  0  0  0  0  0  0  0  0  0  0
    2.9065    2.0596   14.8939 C   0  0  0  0  0  0  0  0  0  0  0  0
    3.5512    1.2264   15.7687 F   0  0  0  0  0  0  0  0  0  0  0  0
    3.5820    2.0467   13.6992 F   0  0  0  0  0  0  0  0  0  0  0  0
    1.5718    1.7358   14.7516 F   0  0  0  0  0  0  0  0  0  0  0  0
    5.5374   10.2907   21.2788 O   0  0  0  0  0  0  0  0  0  0  0  0
    6.5874   10.8577   20.5005 C   0  0  0  0  0  0  0  0  0  0  0  0
    7.8858   10.1646   20.6217 C   0  0  0  0  0  0  0  0  0  0  0  0
    8.3716    9.1716   19.8215 N   0  0  0  0  0  0  0  0  0  0  0  0
    8.9897    8.0155   20.3274 C   0  0  0  0  0  0  0  0  0  0  0  0
    8.7568    6.8087   19.4129 C   0  0  0  0  0  0  0  0  0  0  0  0
    7.3672    6.9106   18.8398 C   0  0  0  0  0  0  0  0  0  0  0  0
    7.2163    8.1197   17.9424 C   0  0  0  0  0  0  0  0  0  0  0  0
    8.1438    9.2295   18.3996 C   0  0  0  0  0  0  0  0  0  0  0  0
 16 17  1  0  0  0
 17  1  1  0  0  0
  1  2  2  0  0  0
  2  3  1  0  0  0
  3  4  2  0  0  0
  4 18  1  0  0  0
 18 20  1  0  0  0
 20 21  2  0  0  0
 21 22  1  0  0  0
 22 23  2  0  0  0
 23 24  1  0  0  0
 24 25  2  0  0  0
 24 32  1  0  0  0
 32 33  1  0  0  0
 32 34  1  0  0  0
 32 35  1  0  0  0
 22 26  1  0  0  0
 26 27  1  0  0  0
 27 28  1  0  0  0
 28 29  1  0  0  0
 29 30  1  0  0  0
 30 31  1  0  0  0
  4  5  1  0  0  0
  5  6  2  0  0  0
  6  7  1  0  0  0
  7  8  2  0  0  0
  8  9  1  0  0  0
  9 10  2  0  0  0
 10 36  1  0  0  0
 36 37  1  0  0  0
 37 38  1  0  0  0
 38 39  1  0  0  0
 39 40  1  0  0  0
 40 41  1  0  0  0
 41 42  1  0  0  0
 42 43  1  0  0  0
 43 44  1  0  0  0
  5 11  1  0  0  0
 11 12  1  0  0  0
 11 13  2  0  0  0
 10  1  1  0  0  0
 44 39  1  0  0  0
  8  3  1  0  0  0
 25 20  1  0  0  0
 31 26  1  0  0  0
 18 19  1  0  0  0
 12 14  1  0  0  0
 12 15  1  0  0  0
M  END
> <minimizedAffinity>
-8.18891

> <CNNscore>
0.1632760763

> <CNNaffinity>
6.1357893944

> <CNN_VS>
1.0018275976

> <CNNaffinity_variance>
0.2999861240

$$$$
[H]c1nc2c([H])c(OC([H])([H])C([H])([H])N3C([H])([H])C([H])([H])C([H])([H])C([H])([H])C3([H])[H])c(OC([H])([H])[H])c([H])c2c(N([H])c2c([H])c(N3C([H])([H])C([H])([H])OC([H])([H])C3([H])[H])c([H])c(C(F)(F)F)c2[H])c1C(=O)N([H])[H]


 44 48  0  0  0  0  0  0  0  0999 V2000
    7.5238    7.8121   23.5780 C   0  0  0  0  0  0  0  0  0  0  0  0
    7.0713    7.1273   22.4511 C   0  0  0  0  0  0  0  0  0  0  0  0
    6.1997    7.6984   21.5575 C   0  0  0  0  0  0  0  0  0  0  0  0
    5.6243    6.9887   20.4639 C   0  0  0  0  0  0  0  0  0  0  0  0
    4.6819    7.5641   19.6584 C   0  0  0  0  0  0  0  0  0  0  0  0
    4.3016    8.9256   19.9492 C   0  0  0  0  0  0  0  0  0  0  0  0
    4.8424    9.5582   20.9661 N   0  0  0  0  0  0  0  0  0  0  0  0
    5.7556    8.9829   21.7636 C   0  0  0  0  0  0  0  0  0  0  0  0
    6.2129    9.6783   22.9017 C   0  0  0  0  0  0  0  0  0  0  0  0
    7.0726    9.1108   23.7986 C   0  0  0  0  0  0  0  0  0  0  0  0
    3.7290    6.8846   18.7869 C   0  0  0  0  0  0  0  0  0  0  0  0
    3.6938    7.3507   17.4232 N   0  0  0  0  0  0  0  0  0  0  0  0
    2.9504    5.9592   19.0274 O   0  0  0  0  0  0  0  0  0  0  0  0
    3.2062    8.2314   17.2301 H   0  0  0  0  0  0  0  0  0  0  0  0
    4.1533    6.8132   16.6657 H   0  0  0  0  0  0  0  0  0  0  0  0
    9.4946    6.4916   24.2454 C   0  0  0  0  0  0  0  0  0  0  0  0
    8.3949    7.3154   24.5075 O   0  0  0  0  0  0  0  0  0  0  0  0
    6.1105    5.6997   20.2374 N   0  0  0  0  0  0  0  0  0  0  0  0
    7.1262    5.6623   19.8231 H   0  0  0  0  0  0  0  0  0  0  0  0
    5.6193    4.3953   20.4231 C   0  0  0  0  0  0  0  0  0  0  0  0
    5.2158    3.5057   19.4750 C   0  0  0  0  0  0  0  0  0  0  0  0
    4.6137    2.3095   19.8392 C   0  0  0  0  0  0  0  0  0  0  0  0
    4.4029    1.9688   21.1607 C   0  0  0  0  0  0  0  0  0  0  0  0
    4.8138    2.8614   22.1167 C   0  0  0  0  0  0  0  0  0  0  0  0
    5.4018    4.0348   21.7701 C   0  0  0  0  0  0  0  0  0  0  0  0
    4.0953    1.4624   18.8308 N   0  0  0  0  0  0  0  0  0  0  0  0
    4.4370    1.6846   17.4182 C   0  0  0  0  0  0  0  0  0  0  0  0
    3.1583    1.9436   16.6814 C   0  0  0  0  0  0  0  0  0  0  0  0
    2.1529    1.0881   17.0907 O   0  0  0  0  0  0  0  0  0  0  0  0
    2.6226   -0.0253   17.7543 C   0  0  0  0  0  0  0  0  0  0  0  0
    3.2496    0.3634   19.1234 C   0  0  0  0  0  0  0  0  0  0  0  0
    4.5950    2.5318   23.5689 C   0  0  0  0  0  0  0  0  0  0  0  0
    3.8055    1.4136   23.6036 F   0  0  0  0  0  0  0  0  0  0  0  0
    3.8881    3.5827   24.0980 F   0  0  0  0  0  0  0  0  0  0  0  0
    5.8063    2.3359   24.2019 F   0  0  0  0  0  0  0  0  0  0  0  0
    7.4516    9.8538   24.9328 O   0  0  0  0  0  0  0  0  0  0  0  0
    8.7930   10.3245   25.0258 C   0  0  0  0  0  0  0  0  0  0  0  0
    9.2128   11.2079   23.9192 C   0  0  0  0  0  0  0  0  0  0  0  0
   10.1301   10.9363   22.9460 N   0  0  0  0  0  0  0  0  0  0  0  0
   11.5160   11.0486   23.1487 C   0  0  0  0  0  0  0  0  0  0  0  0
   12.2916   10.0414   22.2939 C   0  0  0  0  0  0  0  0  0  0  0  0
   11.4916    8.7669   22.2218 C   0  0  0  0  0  0  0  0  0  0  0  0
   10.1776    8.9679   21.4985 C   0  0  0  0  0  0  0  0  0  0  0  0
    9.6895   10.3917   21.6865 C   0  0  0  0  0  0  0  0  0  0  0  0
 16 17  1  0  0  0
 17  1  1  0  0  0
  1  2  2  0  0  0
  2  3  1  0  0  0
  3  4  2  0  0  0
  4 18  1  0  0  0
 18 20  1  0  0  0
 20 21  2  0  0  0
 21 22  1  0  0  0
 22 23  2  0  0  0
 23 24  1  0  0  0
 24 25  2  0  0  0
 24 32  1  0  0  0
 32 33  1  0  0  0
 32 34  1  0  0  0
 32 35  1  0  0  0
 22 26  1  0  0  0
 26 27  1  0  0  0
 27 28  1  0  0  0
 28 29  1  0  0  0
 29 30  1  0  0  0
 30 31  1  0  0  0
  4  5  1  0  0  0
  5  6  2  0  0  0
  6  7  1  0  0  0
  7  8  2  0  0  0
  8  9  1  0  0  0
  9 10  2  0  0  0
 10 36  1  0  0  0
 36 37  1  0  0  0
 37 38  1  0  0  0
 38 39  1  0  0  0
 39 40  1  0  0  0
 40 41  1  0  0  0
 41 42  1  0  0  0
 42 43  1  0  0  0
 43 44  1  0  0  0
  5 11  1  0  0  0
 11 12  1  0  0  0
 11 13  2  0  0  0
 10  1  1  0  0  0
 44 39  1  0  0  0
  8  3  1  0  0  0
 25 20  1  0  0  0
 31 26  1  0  0  0
 18 19  1  0  0  0
 12 14  1  0  0  0
 12 15  1  0  0  0
M  END
> <minimizedAffinity>
-8.99628

> <CNNscore>
0.1068926007

> <CNNaffinity>
6.5417838097

> <CNN_VS>
0.6992682815

> <CNNaffinity_variance>
0.1686619371

$$$$
[H]c1nc(N([H])c2c([H])c(C([H])([H])N3C([H])([H])C([H])([H])OC([H])([H])C3([H])[H])c([H])c([H])c2SC([H])([H])[H])nc(N([H])c2c([H])c([H])c([H])c([H])c2S(=O)(=O)C([H])(C([H])([H])[H])C([H])([H])[H])c1Cl


 38 41  0  0  0  0  0  0  0  0999 V2000
    2.3472    4.7567   15.5021 C   0  0  0  0  0  0  0  0  0  0  0  0
    2.0793    3.7132   14.7160 N   0  0  0  0  0  0  0  0  0  0  0  0
    2.3549    2.4505   15.0585 C   0  0  0  0  0  0  0  0  0  0  0  0
    2.9424    2.1934   16.2742 C   0  0  0  0  0  0  0  0  0  0  0  0
    3.2952    0.5626   16.7097 Cl  0  0  0  0  0  0  0  0  0  0  0  0
    3.2563    3.2591   17.1640 C   0  0  0  0  0  0  0  0  0  0  0  0
    2.9268    4.4461   16.6901 N   0  0  0  0  0  0  0  0  0  0  0  0
    2.0775    6.1108   15.1878 N   0  0  0  0  0  0  0  0  0  0  0  0
    1.7888    6.7213   16.0228 H   0  0  0  0  0  0  0  0  0  0  0  0
    0.9136    7.0327   13.3229 C   0  0  0  0  0  0  0  0  0  0  0  0
    0.9071    7.6475   12.1012 C   0  0  0  0  0  0  0  0  0  0  0  0
    2.0744    7.9915   11.4484 C   0  0  0  0  0  0  0  0  0  0  0  0
    3.2880    7.7171   12.0254 C   0  0  0  0  0  0  0  0  0  0  0  0
    3.3050    7.0923   13.2673 C   0  0  0  0  0  0  0  0  0  0  0  0
    2.1412    6.7367   13.9431 C   0  0  0  0  0  0  0  0  0  0  0  0
   -1.8647    6.3560   12.8260 C   0  0  0  0  0  0  0  0  0  0  0  0
   -0.6145    6.6107   14.1192 S   0  0  0  0  0  0  0  0  0  0  0  0
    4.5694    8.0721   11.3544 C   0  0  0  0  0  0  0  0  0  0  0  0
    5.4774    6.9204   11.2799 N   0  0  0  0  0  0  0  0  0  0  0  0
    6.7901    7.4993   10.9537 C   0  0  0  0  0  0  0  0  0  0  0  0
    7.7479    6.3476   10.8278 C   0  0  0  0  0  0  0  0  0  0  0  0
    7.4051    5.6736    9.6366 O   0  0  0  0  0  0  0  0  0  0  0  0
    6.1449    5.1366    9.7174 C   0  0  0  0  0  0  0  0  0  0  0  0
    5.0812    6.1029   10.1491 C   0  0  0  0  0  0  0  0  0  0  0  0
    3.8704    2.9589   18.3925 N   0  0  0  0  0  0  0  0  0  0  0  0
    4.1919    1.9472   18.4852 H   0  0  0  0  0  0  0  0  0  0  0  0
    4.0859    3.8031   19.4883 C   0  0  0  0  0  0  0  0  0  0  0  0
    3.7307    5.1299   19.4963 C   0  0  0  0  0  0  0  0  0  0  0  0
    3.9358    5.8911   20.6310 C   0  0  0  0  0  0  0  0  0  0  0  0
    4.4930    5.3325   21.7551 C   0  0  0  0  0  0  0  0  0  0  0  0
    4.8495    3.9963   21.7436 C   0  0  0  0  0  0  0  0  0  0  0  0
    4.6628    3.2139   20.6417 C   0  0  0  0  0  0  0  0  0  0  0  0
    5.1726    1.5608   20.7038 S   0  0  0  0  0  0  0  0  0  0  0  0
    6.4896    1.3487   21.3908 O   0  0  0  0  0  0  0  0  0  0  0  0
    5.2791    1.0628   19.2568 O   0  0  0  0  0  0  0  0  0  0  0  0
    3.9927    0.4766   21.4620 C   0  0  0  0  0  0  0  0  0  0  0  0
    3.1920    1.2141   22.5286 C   0  0  0  0  0  0  0  0  0  0  0  0
    2.9995    0.0891   20.3610 C   0  0  0  0  0  0  0  0  0  0  0  0
 16 17  1  0  0  0
 17 10  1  0  0  0
 10 11  2  0  0  0
 11 12  1  0  0  0
 12 13  2  0  0  0
 13 18  1  0  0  0
 18 19  1  0  0  0
 19 20  1  0  0  0
 20 21  1  0  0  0
 21 22  1  0  0  0
 22 23  1  0  0  0
 23 24  1  0  0  0
 13 14  1  0  0  0
 14 15  2  0  0  0
 15  8  1  0  0  0
  8  1  1  0  0  0
  1  2  2  0  0  0
  2  3  1  0  0  0
  3  4  2  0  0  0
  4  5  1  0  0  0
  4  6  1  0  0  0
  6 25  1  0  0  0
 25 27  1  0  0  0
 27 28  2  0  0  0
 28 29  1  0  0  0
 29 30  2  0  0  0
 30 31  1  0  0  0
 31 32  2  0  0  0
 32 33  1  0  0  0
 33 34  2  0  0  0
 33 35  2  0  0  0
 33 36  1  0  0  0
 36 37  1  0  0  0
 36 38  1  0  0  0
  6  7  2  0  0  0
 15 10  1  0  0  0
  7  1  1  0  0  0
 24 19  1  0  0  0
 32 27  1  0  0  0
  8  9  1  0  0  0
 25 26  1  0  0  0
M  END
> <minimizedAffinity>
-7.57557

> <CNNscore>
0.3923584819

> <CNNaffinity>
6.8989400864

> <CNN_VS>
2.7068576813

> <CNNaffinity_variance>
0.0405209176

$$$$
[H]c1nc(N([H])c2c([H])c(C([H])([H])N3C([H])([H])C([H])([H])OC([H])([H])C3([H])[H])c([H])c([H])c2SC([H])([H])[H])nc(N([H])c2c([H])c([H])c([H])c([H])c2S(=O)(=O)C([H])(C([H])([H])[H])C([H])([H])[H])c1Cl


 38 41  0  0  0  0  0  0  0  0999 V2000
    3.8415    5.4114   16.5706 C   0  0  0  0  0  0  0  0  0  0  0  0
    4.5495    6.5231   16.3663 N   0  0  0  0  0  0  0  0  0  0  0  0
    5.5622    6.8996   17.1539 C   0  0  0  0  0  0  0  0  0  0  0  0
    5.9066    6.1182   18.2309 C   0  0  0  0  0  0  0  0  0  0  0  0
    7.2138    6.6096   19.2426 Cl  0  0  0  0  0  0  0  0  0  0  0  0
    5.1941    4.9178   18.5092 C   0  0  0  0  0  0  0  0  0  0  0  0
    4.2238    4.6777   17.6473 N   0  0  0  0  0  0  0  0  0  0  0  0
    2.7612    4.9683   15.7696 N   0  0  0  0  0  0  0  0  0  0  0  0
    1.7886    5.2621   16.1173 H   0  0  0  0  0  0  0  0  0  0  0  0
    2.5318    2.8349   14.7311 C   0  0  0  0  0  0  0  0  0  0  0  0
    2.5606    2.0341   13.6227 C   0  0  0  0  0  0  0  0  0  0  0  0
    2.8547    2.5307   12.3681 C   0  0  0  0  0  0  0  0  0  0  0  0
    3.1292    3.8648   12.2068 C   0  0  0  0  0  0  0  0  0  0  0  0
    3.1022    4.6869   13.3276 C   0  0  0  0  0  0  0  0  0  0  0  0
    2.8085    4.2081   14.6013 C   0  0  0  0  0  0  0  0  0  0  0  0
    2.8382    0.4671   16.3814 C   0  0  0  0  0  0  0  0  0  0  0  0
    2.1492    2.1469   16.3210 S   0  0  0  0  0  0  0  0  0  0  0  0
    3.4505    4.4396   10.8710 C   0  0  0  0  0  0  0  0  0  0  0  0
    4.4710    5.4913   10.9666 N   0  0  0  0  0  0  0  0  0  0  0  0
    4.3024    6.2887    9.7417 C   0  0  0  0  0  0  0  0  0  0  0  0
    5.3575    7.3588    9.7775 C   0  0  0  0  0  0  0  0  0  0  0  0
    6.5901    6.7096    9.5541 O   0  0  0  0  0  0  0  0  0  0  0  0
    6.8781    5.8324   10.5692 C   0  0  0  0  0  0  0  0  0  0  0  0
    5.7767    4.8647   10.8889 C   0  0  0  0  0  0  0  0  0  0  0  0
    5.5653    4.1522   19.6282 N   0  0  0  0  0  0  0  0  0  0  0  0
    6.3510    3.4569   19.4416 H   0  0  0  0  0  0  0  0  0  0  0  0
    5.0262    4.1788   20.9200 C   0  0  0  0  0  0  0  0  0  0  0  0
    4.8113    5.3403   21.6210 C   0  0  0  0  0  0  0  0  0  0  0  0
    4.2352    5.2909   22.8759 C   0  0  0  0  0  0  0  0  0  0  0  0
    3.8736    4.0880   23.4312 C   0  0  0  0  0  0  0  0  0  0  0  0
    4.0915    2.9205   22.7227 C   0  0  0  0  0  0  0  0  0  0  0  0
    4.6585    2.9301   21.4819 C   0  0  0  0  0  0  0  0  0  0  0  0
    4.9279    1.4183   20.6829 S   0  0  0  0  0  0  0  0  0  0  0  0
    6.3403    0.9195   20.7702 O   0  0  0  0  0  0  0  0  0  0  0  0
    4.5576    1.6115   19.2068 O   0  0  0  0  0  0  0  0  0  0  0  0
    3.8645    0.1146   21.2416 C   0  0  0  0  0  0  0  0  0  0  0  0
    3.0387    0.5699   22.4390 C   0  0  0  0  0  0  0  0  0  0  0  0
    2.8734   -0.1463   20.1020 C   0  0  0  0  0  0  0  0  0  0  0  0
 16 17  1  0  0  0
 17 10  1  0  0  0
 10 11  2  0  0  0
 11 12  1  0  0  0
 12 13  2  0  0  0
 13 18  1  0  0  0
 18 19  1  0  0  0
 19 20  1  0  0  0
 20 21  1  0  0  0
 21 22  1  0  0  0
 22 23  1  0  0  0
 23 24  1  0  0  0
 13 14  1  0  0  0
 14 15  2  0  0  0
 15  8  1  0  0  0
  8  1  1  0  0  0
  1  2  2  0  0  0
  2  3  1  0  0  0
  3  4  2  0  0  0
  4  5  1  0  0  0
  4  6  1  0  0  0
  6 25  1  0  0  0
 25 27  1  0  0  0
 27 28  2  0  0  0
 28 29  1  0  0  0
 29 30  2  0  0  0
 30 31  1  0  0  0
 31 32  2  0  0  0
 32 33  1  0  0  0
 33 34  2  0  0  0
 33 35  2  0  0  0
 33 36  1  0  0  0
 36 37  1  0  0  0
 36 38  1  0  0  0
  6  7  2  0  0  0
 15 10  1  0  0  0
  7  1  1  0  0  0
 24 19  1  0  0  0
 32 27  1  0  0  0
  8  9  1  0  0  0
 25 26  1  0  0  0
M  END
> <minimizedAffinity>
-7.59766

> <CNNscore>
0.3256446123

> <CNNaffinity>
6.9861221313

> <CNN_VS>
2.2749929428

> <CNNaffinity_variance>
0.2450178564

$$$$
[H]c1nc(N([H])c2c([H])c(C([H])([H])N3C([H])([H])C([H])([H])OC([H])([H])C3([H])[H])c([H])c([H])c2SC([H])([H])[H])nc(N([H])c2c([H])c([H])c([H])c([H])c2S(=O)(=O)C([H])(C([H])([H])[H])C([H])([H])[H])c1Cl


 38 41  0  0  0  0  0  0  0  0999 V2000
    3.9739    2.7657   17.0061 C   0  0  0  0  0  0  0  0  0  0  0  0
    3.3172    1.6270   16.7803 N   0  0  0  0  0  0  0  0  0  0  0  0
    2.4968    1.4507   15.7394 C   0  0  0  0  0  0  0  0  0  0  0  0
    2.3068    2.4791   14.8475 C   0  0  0  0  0  0  0  0  0  0  0  0
    1.2474    2.2449   13.5072 Cl  0  0  0  0  0  0  0  0  0  0  0  0
    2.9757    3.7227   15.0264 C   0  0  0  0  0  0  0  0  0  0  0  0
    3.7500    3.7473   16.0950 N   0  0  0  0  0  0  0  0  0  0  0  0
    4.8517    3.0049   18.0911 N   0  0  0  0  0  0  0  0  0  0  0  0
    5.7658    2.4419   18.0674 H   0  0  0  0  0  0  0  0  0  0  0  0
    4.3217    3.2829   20.3986 C   0  0  0  0  0  0  0  0  0  0  0  0
    4.1338    4.0771   21.4961 C   0  0  0  0  0  0  0  0  0  0  0  0
    4.2790    5.4493   21.4404 C   0  0  0  0  0  0  0  0  0  0  0  0
    4.6216    6.0541   20.2581 C   0  0  0  0  0  0  0  0  0  0  0  0
    4.8148    5.2552   19.1368 C   0  0  0  0  0  0  0  0  0  0  0  0
    4.6738    3.8707   19.1700 C   0  0  0  0  0  0  0  0  0  0  0  0
    5.7202    0.8158   21.0164 C   0  0  0  0  0  0  0  0  0  0  0  0
    4.1219    1.5245   20.5232 S   0  0  0  0  0  0  0  0  0  0  0  0
    4.7882    7.5306   20.1563 C   0  0  0  0  0  0  0  0  0  0  0  0
    5.8052    8.0254   21.0929 N   0  0  0  0  0  0  0  0  0  0  0  0
    5.3541    9.3783   21.4547 C   0  0  0  0  0  0  0  0  0  0  0  0
    6.3907    9.9417   22.3861 C   0  0  0  0  0  0  0  0  0  0  0  0
    7.5339   10.1992   21.6001 O   0  0  0  0  0  0  0  0  0  0  0  0
    8.0511    9.0375   21.0844 C   0  0  0  0  0  0  0  0  0  0  0  0
    7.0539    8.1734   20.3699 C   0  0  0  0  0  0  0  0  0  0  0  0
    2.7452    4.7564   14.1020 N   0  0  0  0  0  0  0  0  0  0  0  0
    2.4703    4.4200   13.1290 H   0  0  0  0  0  0  0  0  0  0  0  0
    2.8509    6.1388   14.2962 C   0  0  0  0  0  0  0  0  0  0  0  0
    3.7363    6.7084   15.1784 C   0  0  0  0  0  0  0  0  0  0  0  0
    3.8139    8.0837   15.2851 C   0  0  0  0  0  0  0  0  0  0  0  0
    3.0119    8.8901   14.5151 C   0  0  0  0  0  0  0  0  0  0  0  0
    2.1215    8.3132   13.6280 C   0  0  0  0  0  0  0  0  0  0  0  0
    2.0165    6.9595   13.4959 C   0  0  0  0  0  0  0  0  0  0  0  0
    0.8486    6.3237   12.3876 S   0  0  0  0  0  0  0  0  0  0  0  0
    1.3835    5.2620   11.4722 O   0  0  0  0  0  0  0  0  0  0  0  0
    0.3360    7.4978   11.5436 O   0  0  0  0  0  0  0  0  0  0  0  0
   -0.6018    5.6730   13.1721 C   0  0  0  0  0  0  0  0  0  0  0  0
   -1.2974    6.7505   13.9955 C   0  0  0  0  0  0  0  0  0  0  0  0
   -1.5664    5.2967   12.0422 C   0  0  0  0  0  0  0  0  0  0  0  0
 16 17  1  0  0  0
 17 10  1  0  0  0
 10 11  2  0  0  0
 11 12  1  0  0  0
 12 13  2  0  0  0
 13 18  1  0  0  0
 18 19  1  0  0  0
 19 20  1  0  0  0
 20 21  1  0  0  0
 21 22  1  0  0  0
 22 23  1  0  0  0
 23 24  1  0  0  0
 13 14  1  0  0  0
 14 15  2  0  0  0
 15  8  1  0  0  0
  8  1  1  0  0  0
  1  2  2  0  0  0
  2  3  1  0  0  0
  3  4  2  0  0  0
  4  5  1  0  0  0
  4  6  1  0  0  0
  6 25  1  0  0  0
 25 27  1  0  0  0
 27 28  2  0  0  0
 28 29  1  0  0  0
 29 30  2  0  0  0
 30 31  1  0  0  0
 31 32  2  0  0  0
 32 33  1  0  0  0
 33 34  2  0  0  0
 33 35  2  0  0  0
 33 36  1  0  0  0
 36 37  1  0  0  0
 36 38  1  0  0  0
  6  7  2  0  0  0
 15 10  1  0  0  0
  7  1  1  0  0  0
 24 19  1  0  0  0
 32 27  1  0  0  0
  8  9  1  0  0  0
 25 26  1  0  0  0
M  END
> <minimizedAffinity>
-7.87542

> <CNNscore>
0.2518531680

> <CNNaffinity>
6.8741712570

> <CNN_VS>
1.7312817574

> <CNNaffinity_variance>
0.2510007024

$$$$
[H]c1nc(N([H])c2c([H])c(C([H])([H])N3C([H])([H])C([H])([H])OC([H])([H])C3([H])[H])c([H])c([H])c2SC([H])([H])[H])nc(N([H])c2c([H])c([H])c([H])c([H])c2S(=O)(=O)C([H])(C([H])([H])[H])C([H])([H])[H])c1Cl


 38 41  0  0  0  0  0  0  0  0999 V2000
    4.4165    1.9958   18.0519 C   0  0  0  0  0  0  0  0  0  0  0  0
    3.6861    1.0044   17.5396 N   0  0  0  0  0  0  0  0  0  0  0  0
    3.1120    1.0674   16.3338 C   0  0  0  0  0  0  0  0  0  0  0  0
    3.2694    2.1987   15.5692 C   0  0  0  0  0  0  0  0  0  0  0  0
    2.5263    2.2733   14.0149 Cl  0  0  0  0  0  0  0  0  0  0  0  0
    4.0361    3.2960   16.0529 C   0  0  0  0  0  0  0  0  0  0  0  0
    4.5394    3.0885   17.2553 N   0  0  0  0  0  0  0  0  0  0  0  0
    5.0438    1.9809   19.3213 N   0  0  0  0  0  0  0  0  0  0  0  0
    5.9051    1.3436   19.3939 H   0  0  0  0  0  0  0  0  0  0  0  0
    4.2039    1.9217   21.5514 C   0  0  0  0  0  0  0  0  0  0  0  0
    3.8341    2.5511   22.7080 C   0  0  0  0  0  0  0  0  0  0  0  0
    3.9150    3.9220   22.8538 C   0  0  0  0  0  0  0  0  0  0  0  0
    4.3776    4.6944   21.8191 C   0  0  0  0  0  0  0  0  0  0  0  0
    4.7560    4.0638   20.6393 C   0  0  0  0  0  0  0  0  0  0  0  0
    4.6828    2.6840   20.4703 C   0  0  0  0  0  0  0  0  0  0  0  0
    2.4882   -0.2299   20.6290 C   0  0  0  0  0  0  0  0  0  0  0  0
    4.0796    0.1573   21.4149 S   0  0  0  0  0  0  0  0  0  0  0  0
    4.4804    6.1756   21.9363 C   0  0  0  0  0  0  0  0  0  0  0  0
    5.6312    6.6981   21.1885 N   0  0  0  0  0  0  0  0  0  0  0  0
    6.6874    6.8690   22.1985 C   0  0  0  0  0  0  0  0  0  0  0  0
    7.8780    7.4421   21.4819 C   0  0  0  0  0  0  0  0  0  0  0  0
    7.5441    8.7743   21.1583 O   0  0  0  0  0  0  0  0  0  0  0  0
    6.4906    8.8207   20.2804 C   0  0  0  0  0  0  0  0  0  0  0  0
    5.2922    8.0213   20.7007 C   0  0  0  0  0  0  0  0  0  0  0  0
    4.1626    4.4423   15.2490 N   0  0  0  0  0  0  0  0  0  0  0  0
    4.2797    4.2372   14.2099 H   0  0  0  0  0  0  0  0  0  0  0  0
    4.1733    5.7859   15.6425 C   0  0  0  0  0  0  0  0  0  0  0  0
    4.8155    6.2334   16.7712 C   0  0  0  0  0  0  0  0  0  0  0  0
    4.8190    7.5817   17.0728 C   0  0  0  0  0  0  0  0  0  0  0  0
    4.1849    8.4823   16.2524 C   0  0  0  0  0  0  0  0  0  0  0  0
    3.5393    8.0282   15.1169 C   0  0  0  0  0  0  0  0  0  0  0  0
    3.5140    6.7046   14.7873 C   0  0  0  0  0  0  0  0  0  0  0  0
    2.6505    6.2213   13.3670 S   0  0  0  0  0  0  0  0  0  0  0  0
    3.3810    5.2289   12.5109 O   0  0  0  0  0  0  0  0  0  0  0  0
    2.3829    7.4880   12.5441 O   0  0  0  0  0  0  0  0  0  0  0  0
    1.0405    5.5583   13.6998 C   0  0  0  0  0  0  0  0  0  0  0  0
    0.0571    6.6745   14.0311 C   0  0  0  0  0  0  0  0  0  0  0  0
    0.5588    4.9274   12.3887 C   0  0  0  0  0  0  0  0  0  0  0  0
 16 17  1  0  0  0
 17 10  1  0  0  0
 10 11  2  0  0  0
 11 12  1  0  0  0
 12 13  2  0  0  0
 13 18  1  0  0  0
 18 19  1  0  0  0
 19 20  1  0  0  0
 20 21  1  0  0  0
 21 22  1  0  0  0
 22 23  1  0  0  0
 23 24  1  0  0  0
 13 14  1  0  0  0
 14 15  2  0  0  0
 15  8  1  0  0  0
  8  1  1  0  0  0
  1  2  2  0  0  0
  2  3  1  0  0  0
  3  4  2  0  0  0
  4  5  1  0  0  0
  4  6  1  0  0  0
  6 25  1  0  0  0
 25 27  1  0  0  0
 27 28  2  0  0  0
 28 29  1  0  0  0
 29 30  2  0  0  0
 30 31  1  0  0  0
 31 32  2  0  0  0
 32 33  1  0  0  0
 33 34  2  0  0  0
 33 35  2  0  0  0
 33 36  1  0  0  0
 36 37  1  0  0  0
 36 38  1  0  0  0
  6  7  2  0  0  0
 15 10  1  0  0  0
  7  1  1  0  0  0
 24 19  1  0  0  0
 32 27  1  0  0  0
  8  9  1  0  0  0
 25 26  1  0  0  0
M  END
> <minimizedAffinity>
-7.91604

> <CNNscore>
0.2516134679

> <CNNaffinity>
7.1989412308

> <CNN_VS>
1.8113505840

> <CNNaffinity_variance>
0.1288740337

$$$$
[H]c1nc(N([H])c2c([H])c(C([H])([H])N3C([H])([H])C([H])([H])OC([H])([H])C3([H])[H])c([H])c([H])c2SC([H])([H])[H])nc(N([H])c2c([H])c([H])c([H])c([H])c2S(=O)(=O)C([H])(C([H])([H])[H])C([H])([H])[H])c1Cl


 38 41  0  0  0  0  0  0  0  0999 V2000
    3.8196    3.5372   14.7664 C   0  0  0  0  0  0  0  0  0  0  0  0
    3.0655    2.4826   14.4535 N   0  0  0  0  0  0  0  0  0  0  0  0
    2.7513    1.5231   15.3301 C   0  0  0  0  0  0  0  0  0  0  0  0
    3.2174    1.6082   16.6203 C   0  0  0  0  0  0  0  0  0  0  0  0
    2.8085    0.3673   17.7457 Cl  0  0  0  0  0  0  0  0  0  0  0  0
    4.0278    2.7065   17.0242 C   0  0  0  0  0  0  0  0  0  0  0  0
    4.2528    3.5712   16.0528 N   0  0  0  0  0  0  0  0  0  0  0  0
    4.1822    4.5786   13.8780 N   0  0  0  0  0  0  0  0  0  0  0  0
    4.9303    5.2527   14.2509 H   0  0  0  0  0  0  0  0  0  0  0  0
    2.6579    5.7777   12.4920 C   0  0  0  0  0  0  0  0  0  0  0  0
    2.1338    6.0700   11.2630 C   0  0  0  0  0  0  0  0  0  0  0  0
    2.5881    5.4612   10.1097 C   0  0  0  0  0  0  0  0  0  0  0  0
    3.5948    4.5321   10.1768 C   0  0  0  0  0  0  0  0  0  0  0  0
    4.1340    4.2283   11.4217 C   0  0  0  0  0  0  0  0  0  0  0  0
    3.6917    4.8294   12.5968 C   0  0  0  0  0  0  0  0  0  0  0  0
    0.3060    7.0394   13.6325 C   0  0  0  0  0  0  0  0  0  0  0  0
    2.0379    6.5877   13.9435 S   0  0  0  0  0  0  0  0  0  0  0  0
    4.1130    3.8533    8.9566 C   0  0  0  0  0  0  0  0  0  0  0  0
    4.9197    2.6740    9.2958 N   0  0  0  0  0  0  0  0  0  0  0  0
    6.0952    2.7588    8.4151 C   0  0  0  0  0  0  0  0  0  0  0  0
    6.9341    1.5447    8.7008 C   0  0  0  0  0  0  0  0  0  0  0  0
    6.2317    0.4420    8.1701 O   0  0  0  0  0  0  0  0  0  0  0  0
    5.0351    0.2604    8.8166 C   0  0  0  0  0  0  0  0  0  0  0  0
    4.1795    1.4901    8.9031 C   0  0  0  0  0  0  0  0  0  0  0  0
    4.4984    2.7518   18.3481 N   0  0  0  0  0  0  0  0  0  0  0  0
    4.9680    1.8535   18.6766 H   0  0  0  0  0  0  0  0  0  0  0  0
    4.4080    3.8020   19.2696 C   0  0  0  0  0  0  0  0  0  0  0  0
    4.1734    5.1049   18.9038 C   0  0  0  0  0  0  0  0  0  0  0  0
    4.0541    6.0819   19.8735 C   0  0  0  0  0  0  0  0  0  0  0  0
    4.1677    5.7622   21.2043 C   0  0  0  0  0  0  0  0  0  0  0  0
    4.4040    4.4493   21.5691 C   0  0  0  0  0  0  0  0  0  0  0  0
    4.5283    3.4582   20.6399 C   0  0  0  0  0  0  0  0  0  0  0  0
    4.8603    1.8491   21.1848 S   0  0  0  0  0  0  0  0  0  0  0  0
    5.7243    1.7803   22.4095 O   0  0  0  0  0  0  0  0  0  0  0  0
    5.5644    1.1158   20.0360 O   0  0  0  0  0  0  0  0  0  0  0  0
    3.4055    0.8868   21.5015 C   0  0  0  0  0  0  0  0  0  0  0  0
    3.6546   -0.5839   21.1887 C   0  0  0  0  0  0  0  0  0  0  0  0
    3.1550    0.9753   23.0109 C   0  0  0  0  0  0  0  0  0  0  0  0
 16 17  1  0  0  0
 17 10  1  0  0  0
 10 11  2  0  0  0
 11 12  1  0  0  0
 12 13  2  0  0  0
 13 18  1  0  0  0
 18 19  1  0  0  0
 19 20  1  0  0  0
 20 21  1  0  0  0
 21 22  1  0  0  0
 22 23  1  0  0  0
 23 24  1  0  0  0
 13 14  1  0  0  0
 14 15  2  0  0  0
 15  8  1  0  0  0
  8  1  1  0  0  0
  1  2  2  0  0  0
  2  3  1  0  0  0
  3  4  2  0  0  0
  4  5  1  0  0  0
  4  6  1  0  0  0
  6 25  1  0  0  0
 25 27  1  0  0  0
 27 28  2  0  0  0
 28 29  1  0  0  0
 29 30  2  0  0  0
 30 31  1  0  0  0
 31 32  2  0  0  0
 32 33  1  0  0  0
 33 34  2  0  0  0
 33 35  2  0  0  0
 33 36  1  0  0  0
 36 37  1  0  0  0
 36 38  1  0  0  0
  6  7  2  0  0  0
 15 10  1  0  0  0
  7  1  1  0  0  0
 24 19  1  0  0  0
 32 27  1  0  0  0
  8  9  1  0  0  0
 25 26  1  0  0  0
M  END
> <minimizedAffinity>
-7.36500

> <CNNscore>
0.2450466454

> <CNNaffinity>
6.6868238449

> <CNN_VS>
1.6385837793

> <CNNaffinity_variance>
0.3284521699

$$$$
[H]c1nc(N([H])c2c([H])c(C([H])([H])N3C([H])([H])C([H])([H])OC([H])([H])C3([H])[H])c([H])c([H])c2SC([H])([H])[H])nc(N([H])c2c([H])c([H])c([H])c([H])c2S(=O)(=O)C([H])(C([H])([H])[H])C([H])([H])[H])c1Cl


 38 41  0  0  0  0  0  0  0  0999 V2000
    3.6621    2.7352   15.9457 C   0  0  0  0  0  0  0  0  0  0  0  0
    3.0250    1.5717   16.0846 N   0  0  0  0  0  0  0  0  0  0  0  0
    3.0268    0.8690   17.2220 C   0  0  0  0  0  0  0  0  0  0  0  0
    3.7116    1.3503   18.3122 C   0  0  0  0  0  0  0  0  0  0  0  0
    3.7097    0.4388   19.7760 Cl  0  0  0  0  0  0  0  0  0  0  0  0
    4.4142    2.5858   18.2355 C   0  0  0  0  0  0  0  0  0  0  0  0
    4.3218    3.1637   17.0524 N   0  0  0  0  0  0  0  0  0  0  0  0
    3.6931    3.5173   14.7657 N   0  0  0  0  0  0  0  0  0  0  0  0
    4.4620    4.2665   14.7384 H   0  0  0  0  0  0  0  0  0  0  0  0
    1.9474    4.4884   13.4649 C   0  0  0  0  0  0  0  0  0  0  0  0
    1.1009    4.4658   12.3909 C   0  0  0  0  0  0  0  0  0  0  0  0
    1.1082    3.4326   11.4745 C   0  0  0  0  0  0  0  0  0  0  0  0
    1.9833    2.3876   11.6278 C   0  0  0  0  0  0  0  0  0  0  0  0
    2.8479    2.4017   12.7164 C   0  0  0  0  0  0  0  0  0  0  0  0
    2.8578    3.4323   13.6521 C   0  0  0  0  0  0  0  0  0  0  0  0
    0.9643    7.1931   13.8417 C   0  0  0  0  0  0  0  0  0  0  0  0
    1.8972    5.8391   14.6140 S   0  0  0  0  0  0  0  0  0  0  0  0
    2.0229    1.2548   10.6617 C   0  0  0  0  0  0  0  0  0  0  0  0
    0.8702    1.2796    9.7523 N   0  0  0  0  0  0  0  0  0  0  0  0
    0.1570    0.0203   10.0177 C   0  0  0  0  0  0  0  0  0  0  0  0
   -1.0144   -0.0161    9.0765 C   0  0  0  0  0  0  0  0  0  0  0  0
   -0.4825   -0.2303    7.7873 O   0  0  0  0  0  0  0  0  0  0  0  0
    0.3086    0.8212    7.3980 C   0  0  0  0  0  0  0  0  0  0  0  0
    1.3650    1.2085    8.3908 C   0  0  0  0  0  0  0  0  0  0  0  0
    5.1156    3.0389   19.3664 N   0  0  0  0  0  0  0  0  0  0  0  0
    6.1752    3.0377   19.2536 H   0  0  0  0  0  0  0  0  0  0  0  0
    4.6026    3.4613   20.5987 C   0  0  0  0  0  0  0  0  0  0  0  0
    4.3675    2.6064   21.6477 C   0  0  0  0  0  0  0  0  0  0  0  0
    3.9000    3.1028   22.8494 C   0  0  0  0  0  0  0  0  0  0  0  0
    3.6675    4.4473   23.0063 C   0  0  0  0  0  0  0  0  0  0  0  0
    3.9052    5.3051   21.9479 C   0  0  0  0  0  0  0  0  0  0  0  0
    4.3660    4.8513   20.7467 C   0  0  0  0  0  0  0  0  0  0  0  0
    4.6003    5.9915   19.4654 S   0  0  0  0  0  0  0  0  0  0  0  0
    3.5481    5.9410   18.3970 O   0  0  0  0  0  0  0  0  0  0  0  0
    5.9663    5.6925   18.8345 O   0  0  0  0  0  0  0  0  0  0  0  0
    4.7230    7.6718   20.0169 C   0  0  0  0  0  0  0  0  0  0  0  0
    6.1515    8.1827   19.8716 C   0  0  0  0  0  0  0  0  0  0  0  0
    3.8635    8.5006   19.0560 C   0  0  0  0  0  0  0  0  0  0  0  0
 16 17  1  0  0  0
 17 10  1  0  0  0
 10 11  2  0  0  0
 11 12  1  0  0  0
 12 13  2  0  0  0
 13 18  1  0  0  0
 18 19  1  0  0  0
 19 20  1  0  0  0
 20 21  1  0  0  0
 21 22  1  0  0  0
 22 23  1  0  0  0
 23 24  1  0  0  0
 13 14  1  0  0  0
 14 15  2  0  0  0
 15  8  1  0  0  0
  8  1  1  0  0  0
  1  2  2  0  0  0
  2  3  1  0  0  0
  3  4  2  0  0  0
  4  5  1  0  0  0
  4  6  1  0  0  0
  6 25  1  0  0  0
 25 27  1  0  0  0
 27 28  2  0  0  0
 28 29  1  0  0  0
 29 30  2  0  0  0
 30 31  1  0  0  0
 31 32  2  0  0  0
 32 33  1  0  0  0
 33 34  2  0  0  0
 33 35  2  0  0  0
 33 36  1  0  0  0
 36 37  1  0  0  0
 36 38  1  0  0  0
  6  7  2  0  0  0
 15 10  1  0  0  0
  7  1  1  0  0  0
 24 19  1  0  0  0
 32 27  1  0  0  0
  8  9  1  0  0  0
 25 26  1  0  0  0
M  END
> <minimizedAffinity>
-7.59886

> <CNNscore>
0.2135184407

> <CNNaffinity>
6.7600274086

> <CNN_VS>
1.4433904886

> <CNNaffinity_variance>
0.3218834102

$$$$
[H]c1nc(N([H])c2c([H])c(C([H])([H])N3C([H])([H])C([H])([H])OC([H])([H])C3([H])[H])c([H])c([H])c2SC([H])([H])[H])nc(N([H])c2c([H])c([H])c([H])c([H])c2S(=O)(=O)C([H])(C([H])([H])[H])C([H])([H])[H])c1Cl


 38 41  0  0  0  0  0  0  0  0999 V2000
    4.4536    3.8132   18.5974 C   0  0  0  0  0  0  0  0  0  0  0  0
    4.4165    2.8882   19.5575 N   0  0  0  0  0  0  0  0  0  0  0  0
    4.3282    3.1875   20.8575 C   0  0  0  0  0  0  0  0  0  0  0  0
    4.2719    4.5050   21.2449 C   0  0  0  0  0  0  0  0  0  0  0  0
    4.1580    4.8840   22.9233 Cl  0  0  0  0  0  0  0  0  0  0  0  0
    4.3069    5.5451   20.2738 C   0  0  0  0  0  0  0  0  0  0  0  0
    4.3950    5.0972   19.0354 N   0  0  0  0  0  0  0  0  0  0  0  0
    4.5477    3.5510   17.2091 N   0  0  0  0  0  0  0  0  0  0  0  0
    5.3984    2.9653   16.9150 H   0  0  0  0  0  0  0  0  0  0  0  0
    2.6102    3.0931   15.8980 C   0  0  0  0  0  0  0  0  0  0  0  0
    1.7237    3.4330   14.9134 C   0  0  0  0  0  0  0  0  0  0  0  0
    1.8440    4.6047   14.1924 C   0  0  0  0  0  0  0  0  0  0  0  0
    2.8768    5.4678   14.4559 C   0  0  0  0  0  0  0  0  0  0  0  0
    3.7831    5.1311   15.4550 C   0  0  0  0  0  0  0  0  0  0  0  0
    3.6813    3.9559   16.1940 C   0  0  0  0  0  0  0  0  0  0  0  0
    3.8333    0.5116   16.4110 C   0  0  0  0  0  0  0  0  0  0  0  0
    2.4115    1.5752   16.7945 S   0  0  0  0  0  0  0  0  0  0  0  0
    3.0415    6.7413   13.7013 C   0  0  0  0  0  0  0  0  0  0  0  0
    4.3052    7.4092   14.0381 N   0  0  0  0  0  0  0  0  0  0  0  0
    3.9023    8.6817   14.6572 C   0  0  0  0  0  0  0  0  0  0  0  0
    5.1700    9.4204   14.9839 C   0  0  0  0  0  0  0  0  0  0  0  0
    5.7160    9.8378   13.7517 O   0  0  0  0  0  0  0  0  0  0  0  0
    6.0705    8.7614   12.9780 C   0  0  0  0  0  0  0  0  0  0  0  0
    4.9888    7.7365   12.8015 C   0  0  0  0  0  0  0  0  0  0  0  0
    4.2623    6.8812   20.7086 N   0  0  0  0  0  0  0  0  0  0  0  0
    3.9645    7.0011   21.7247 H   0  0  0  0  0  0  0  0  0  0  0  0
    4.5353    8.0446   19.9791 C   0  0  0  0  0  0  0  0  0  0  0  0
    3.6712    8.5688   19.0490 C   0  0  0  0  0  0  0  0  0  0  0  0
    3.9901    9.7452   18.3985 C   0  0  0  0  0  0  0  0  0  0  0  0
    5.1665   10.3985   18.6737 C   0  0  0  0  0  0  0  0  0  0  0  0
    6.0342    9.8678   19.6107 C   0  0  0  0  0  0  0  0  0  0  0  0
    5.7535    8.7082   20.2722 C   0  0  0  0  0  0  0  0  0  0  0  0
    6.9143    8.0974   21.4018 S   0  0  0  0  0  0  0  0  0  0  0  0
    6.3392    7.7348   22.7394 O   0  0  0  0  0  0  0  0  0  0  0  0
    7.9778    9.1860   21.5948 O   0  0  0  0  0  0  0  0  0  0  0  0
    7.8182    6.6923   20.8092 C   0  0  0  0  0  0  0  0  0  0  0  0
    9.2571    7.0759   20.4849 C   0  0  0  0  0  0  0  0  0  0  0  0
    7.8833    5.7025   21.9775 C   0  0  0  0  0  0  0  0  0  0  0  0
 16 17  1  0  0  0
 17 10  1  0  0  0
 10 11  2  0  0  0
 11 12  1  0  0  0
 12 13  2  0  0  0
 13 18  1  0  0  0
 18 19  1  0  0  0
 19 20  1  0  0  0
 20 21  1  0  0  0
 21 22  1  0  0  0
 22 23  1  0  0  0
 23 24  1  0  0  0
 13 14  1  0  0  0
 14 15  2  0  0  0
 15  8  1  0  0  0
  8  1  1  0  0  0
  1  2  2  0  0  0
  2  3  1  0  0  0
  3  4  2  0  0  0
  4  5  1  0  0  0
  4  6  1  0  0  0
  6 25  1  0  0  0
 25 27  1  0  0  0
 27 28  2  0  0  0
 28 29  1  0  0  0
 29 30  2  0  0  0
 30 31  1  0  0  0
 31 32  2  0  0  0
 32 33  1  0  0  0
 33 34  2  0  0  0
 33 35  2  0  0  0
 33 36  1  0  0  0
 36 37  1  0  0  0
 36 38  1  0  0  0
  6  7  2  0  0  0
 15 10  1  0  0  0
  7  1  1  0  0  0
 24 19  1  0  0  0
 32 27  1  0  0  0
  8  9  1  0  0  0
 25 26  1  0  0  0
M  END
> <minimizedAffinity>
-7.10231

> <CNNscore>
0.1975297183

> <CNNaffinity>
6.4597167969

> <CNN_VS>
1.2759860754

> <CNNaffinity_variance>
0.2953852713

$$$$
[H]c1nc(N([H])c2c([H])c(C([H])([H])N3C([H])([H])C([H])([H])OC([H])([H])C3([H])[H])c([H])c([H])c2SC([H])([H])[H])nc(N([H])c2c([H])c([H])c([H])c([H])c2S(=O)(=O)C([H])(C([H])([H])[H])C([H])([H])[H])c1Cl


 38 41  0  0  0  0  0  0  0  0999 V2000
    2.6187    4.3018   16.1119 C   0  0  0  0  0  0  0  0  0  0  0  0
    2.0747    3.3569   15.3438 N   0  0  0  0  0  0  0  0  0  0  0  0
    2.2480    2.0491   15.5611 C   0  0  0  0  0  0  0  0  0  0  0  0
    3.0199    1.6371   16.6211 C   0  0  0  0  0  0  0  0  0  0  0  0
    3.2394   -0.0511   16.8956 Cl  0  0  0  0  0  0  0  0  0  0  0  0
    3.6314    2.5911   17.4826 C   0  0  0  0  0  0  0  0  0  0  0  0
    3.3708    3.8397   17.1437 N   0  0  0  0  0  0  0  0  0  0  0  0
    2.4682    5.6974   15.9256 N   0  0  0  0  0  0  0  0  0  0  0  0
    1.7955    6.1765   16.6120 H   0  0  0  0  0  0  0  0  0  0  0  0
    3.9826    7.4768   15.4535 C   0  0  0  0  0  0  0  0  0  0  0  0
    4.6166    8.3060   14.5697 C   0  0  0  0  0  0  0  0  0  0  0  0
    4.3995    8.2283   13.2081 C   0  0  0  0  0  0  0  0  0  0  0  0
    3.5253    7.2984   12.7060 C   0  0  0  0  0  0  0  0  0  0  0  0
    2.8760    6.4509   13.5965 C   0  0  0  0  0  0  0  0  0  0  0  0
    3.0795    6.5114   14.9723 C   0  0  0  0  0  0  0  0  0  0  0  0
    5.9889    7.0368   17.5041 C   0  0  0  0  0  0  0  0  0  0  0  0
    4.2960    7.6181   17.1940 S   0  0  0  0  0  0  0  0  0  0  0  0
    3.2638    7.1822   11.2444 C   0  0  0  0  0  0  0  0  0  0  0  0
    4.4706    7.4617   10.4557 N   0  0  0  0  0  0  0  0  0  0  0  0
    3.9679    7.8702    9.1346 C   0  0  0  0  0  0  0  0  0  0  0  0
    5.1751    8.1294    8.2774 C   0  0  0  0  0  0  0  0  0  0  0  0
    5.7515    6.8694    8.0105 O   0  0  0  0  0  0  0  0  0  0  0  0
    6.2016    6.2774    9.1637 C   0  0  0  0  0  0  0  0  0  0  0  0
    5.1895    6.2158   10.2698 C   0  0  0  0  0  0  0  0  0  0  0  0
    4.4262    2.1323   18.5476 N   0  0  0  0  0  0  0  0  0  0  0  0
    5.4620    2.0435   18.3140 H   0  0  0  0  0  0  0  0  0  0  0  0
    4.0267    1.7680   19.8391 C   0  0  0  0  0  0  0  0  0  0  0  0
    3.5830    0.5087   20.1614 C   0  0  0  0  0  0  0  0  0  0  0  0
    3.2461    0.2105   21.4677 C   0  0  0  0  0  0  0  0  0  0  0  0
    3.3513    1.1637   22.4509 C   0  0  0  0  0  0  0  0  0  0  0  0
    3.7984    2.4306   22.1228 C   0  0  0  0  0  0  0  0  0  0  0  0
    4.1392    2.7618   20.8440 C   0  0  0  0  0  0  0  0  0  0  0  0
    4.6537    4.3820   20.5174 S   0  0  0  0  0  0  0  0  0  0  0  0
    3.6065    5.2419   19.8731 O   0  0  0  0  0  0  0  0  0  0  0  0
    5.8693    4.2942   19.5857 O   0  0  0  0  0  0  0  0  0  0  0  0
    5.2499    5.2449   21.9466 C   0  0  0  0  0  0  0  0  0  0  0  0
    6.7476    5.0241   22.1225 C   0  0  0  0  0  0  0  0  0  0  0  0
    5.0603    6.7374   21.6545 C   0  0  0  0  0  0  0  0  0  0  0  0
 16 17  1  0  0  0
 17 10  1  0  0  0
 10 11  2  0  0  0
 11 12  1  0  0  0
 12 13  2  0  0  0
 13 18  1  0  0  0
 18 19  1  0  0  0
 19 20  1  0  0  0
 20 21  1  0  0  0
 21 22  1  0  0  0
 22 23  1  0  0  0
 23 24  1  0  0  0
 13 14  1  0  0  0
 14 15  2  0  0  0
 15  8  1  0  0  0
  8  1  1  0  0  0
  1  2  2  0  0  0
  2  3  1  0  0  0
  3  4  2  0  0  0
  4  5  1  0  0  0
  4  6  1  0  0  0
  6 25  1  0  0  0
 25 27  1  0  0  0
 27 28  2  0  0  0
 28 29  1  0  0  0
 29 30  2  0  0  0
 30 31  1  0  0  0
 31 32  2  0  0  0
 32 33  1  0  0  0
 33 34  2  0  0  0
 33 35  2  0  0  0
 33 36  1  0  0  0
 36 37  1  0  0  0
 36 38  1  0  0  0
  6  7  2  0  0  0
 15 10  1  0  0  0
  7  1  1  0  0  0
 24 19  1  0  0  0
 32 27  1  0  0  0
  8  9  1  0  0  0
 25 26  1  0  0  0
M  END
> <minimizedAffinity>
-7.89783

> <CNNscore>
0.1321355700

> <CNNaffinity>
6.5800352097

> <CNN_VS>
0.8694567084

> <CNNaffinity_variance>
0.2346992493

$$$$
[H]c1nc(N([H])c2c([H])c(C([H])([H])N3C([H])([H])C([H])([H])OC([H])([H])C3([H])[H])c([H])c([H])c2SC([H])([H])[H])nc(N([H])c2c([H])c([H])c([H])c([H])c2S(=O)(=O)C([H])(C([H])([H])[H])C([H])([H])[H])c1Cl


 38 41  0  0  0  0  0  0  0  0999 V2000
    4.2014    3.1698   18.1877 C   0  0  0  0  0  0  0  0  0  0  0  0
    3.6370    2.3274   17.3213 N   0  0  0  0  0  0  0  0  0  0  0  0
    2.9415    2.7339   16.2543 C   0  0  0  0  0  0  0  0  0  0  0  0
    2.7887    4.0797   16.0204 C   0  0  0  0  0  0  0  0  0  0  0  0
    1.8905    4.5971   14.6423 Cl  0  0  0  0  0  0  0  0  0  0  0  0
    3.3642    5.0359   16.9039 C   0  0  0  0  0  0  0  0  0  0  0  0
    4.0195    4.4863   17.9091 N   0  0  0  0  0  0  0  0  0  0  0  0
    4.9457    2.7929   19.3318 N   0  0  0  0  0  0  0  0  0  0  0  0
    5.5664    1.9261   19.2036 H   0  0  0  0  0  0  0  0  0  0  0  0
    4.2693    2.7508   21.6173 C   0  0  0  0  0  0  0  0  0  0  0  0
    4.2539    3.2972   22.8711 C   0  0  0  0  0  0  0  0  0  0  0  0
    4.9072    4.4783   23.1631 C   0  0  0  0  0  0  0  0  0  0  0  0
    5.5983    5.1396   22.1802 C   0  0  0  0  0  0  0  0  0  0  0  0
    5.6198    4.5921   20.9025 C   0  0  0  0  0  0  0  0  0  0  0  0
    4.9687    3.4032   20.5856 C   0  0  0  0  0  0  0  0  0  0  0  0
    4.6399   -0.1082   21.2822 C   0  0  0  0  0  0  0  0  0  0  0  0
    3.4128    1.2312   21.2940 S   0  0  0  0  0  0  0  0  0  0  0  0
    6.3161    6.4155   22.4543 C   0  0  0  0  0  0  0  0  0  0  0  0
    7.6350    6.4427   21.8091 N   0  0  0  0  0  0  0  0  0  0  0  0
    8.5360    5.7898   22.7717 C   0  0  0  0  0  0  0  0  0  0  0  0
    9.9119    5.8305   22.1677 C   0  0  0  0  0  0  0  0  0  0  0  0
   10.3298    7.1771   22.2207 O   0  0  0  0  0  0  0  0  0  0  0  0
    9.5293    7.9742   21.4419 C   0  0  0  0  0  0  0  0  0  0  0  0
    8.0589    7.8257   21.7017 C   0  0  0  0  0  0  0  0  0  0  0  0
    3.1742    6.4036   16.6405 N   0  0  0  0  0  0  0  0  0  0  0  0
    2.3286    6.8300   17.1290 H   0  0  0  0  0  0  0  0  0  0  0  0
    3.9318    7.2462   15.8181 C   0  0  0  0  0  0  0  0  0  0  0  0
    3.8792    7.2034   14.4463 C   0  0  0  0  0  0  0  0  0  0  0  0
    4.6243    8.0963   13.7002 C   0  0  0  0  0  0  0  0  0  0  0  0
    5.4195    9.0297   14.3186 C   0  0  0  0  0  0  0  0  0  0  0  0
    5.4702    9.0699   15.7000 C   0  0  0  0  0  0  0  0  0  0  0  0
    4.7493    8.2042   16.4694 C   0  0  0  0  0  0  0  0  0  0  0  0
    4.9019    8.3022   18.1909 S   0  0  0  0  0  0  0  0  0  0  0  0
    5.7707    7.2373   18.7931 O   0  0  0  0  0  0  0  0  0  0  0  0
    3.4902    8.1863   18.7801 O   0  0  0  0  0  0  0  0  0  0  0  0
    5.4978    9.8688   18.7681 C   0  0  0  0  0  0  0  0  0  0  0  0
    5.0005   10.1459   20.1818 C   0  0  0  0  0  0  0  0  0  0  0  0
    7.0221    9.7388   18.8594 C   0  0  0  0  0  0  0  0  0  0  0  0
 16 17  1  0  0  0
 17 10  1  0  0  0
 10 11  2  0  0  0
 11 12  1  0  0  0
 12 13  2  0  0  0
 13 18  1  0  0  0
 18 19  1  0  0  0
 19 20  1  0  0  0
 20 21  1  0  0  0
 21 22  1  0  0  0
 22 23  1  0  0  0
 23 24  1  0  0  0
 13 14  1  0  0  0
 14 15  2  0  0  0
 15  8  1  0  0  0
  8  1  1  0  0  0
  1  2  2  0  0  0
  2  3  1  0  0  0
  3  4  2  0  0  0
  4  5  1  0  0  0
  4  6  1  0  0  0
  6 25  1  0  0  0
 25 27  1  0  0  0
 27 28  2  0  0  0
 28 29  1  0  0  0
 29 30  2  0  0  0
 30 31  1  0  0  0
 31 32  2  0  0  0
 32 33  1  0  0  0
 33 34  2  0  0  0
 33 35  2  0  0  0
 33 36  1  0  0  0
 36 37  1  0  0  0
 36 38  1  0  0  0
  6  7  2  0  0  0
 15 10  1  0  0  0
  7  1  1  0  0  0
 24 19  1  0  0  0
 32 27  1  0  0  0
  8  9  1  0  0  0
 25 26  1  0  0  0
M  END
> <minimizedAffinity>
-7.37782

> <CNNscore>
0.1177792996

> <CNNaffinity>
6.7354803085

> <CNN_VS>
0.7933001518

> <CNNaffinity_variance>
0.4169861674

$$$$
[H]c1c(N([H])c2c([H])c(C(=O)N([H])c3c([H])c([H])c(C([H])([H])N4C([H])([H])C([H])([H])N(C([H])([H])[H])C([H])([H])C4([H])[H])c(C(F)(F)F)c3[H])c([H])c([H])c2C([H])([H])[H])nc(C([H])([H])[H])nc1C([H])([H])[H]


 39 42  0  0  0  0  0  0  0  0999 V2000
    3.4134    3.6385   16.4136 N   0  0  0  0  0  0  0  0  0  0  0  0
    3.5234    2.4052   17.0511 C   0  0  0  0  0  0  0  0  0  0  0  0
    3.2317    1.2882   16.5789 O   0  0  0  0  0  0  0  0  0  0  0  0
    3.7041    4.5125   16.9615 H   0  0  0  0  0  0  0  0  0  0  0  0
    4.0375    2.3707   18.4430 C   0  0  0  0  0  0  0  0  0  0  0  0
    4.3364    1.1901   19.0576 C   0  0  0  0  0  0  0  0  0  0  0  0
    4.8233    1.1889   20.3511 C   0  0  0  0  0  0  0  0  0  0  0  0
    4.9969    2.3746   20.9930 C   0  0  0  0  0  0  0  0  0  0  0  0
    5.5266    2.3207   22.3924 C   0  0  0  0  0  0  0  0  0  0  0  0
    4.7064    3.6341   20.4133 C   0  0  0  0  0  0  0  0  0  0  0  0
    4.2271    3.5805   19.1316 C   0  0  0  0  0  0  0  0  0  0  0  0
    4.9298    4.7904   21.1823 N   0  0  0  0  0  0  0  0  0  0  0  0
    4.6077    4.7405   22.1880 H   0  0  0  0  0  0  0  0  0  0  0  0
    5.5269    5.9696   20.7407 C   0  0  0  0  0  0  0  0  0  0  0  0
    4.6454    7.0353   20.4467 C   0  0  0  0  0  0  0  0  0  0  0  0
    5.1591    8.2301   20.0060 C   0  0  0  0  0  0  0  0  0  0  0  0
    4.2457    9.3830   19.6849 C   0  0  0  0  0  0  0  0  0  0  0  0
    6.4763    8.3814   19.8574 N   0  0  0  0  0  0  0  0  0  0  0  0
    7.3334    7.3726   20.1338 C   0  0  0  0  0  0  0  0  0  0  0  0
    8.8040    7.5882   19.9523 C   0  0  0  0  0  0  0  0  0  0  0  0
    6.8126    6.2323   20.5568 N   0  0  0  0  0  0  0  0  0  0  0  0
    1.9114    4.2642   12.5295 C   0  0  0  0  0  0  0  0  0  0  0  0
    2.8728    3.3125   12.7826 C   0  0  0  0  0  0  0  0  0  0  0  0
    3.3940    3.0668   14.0531 C   0  0  0  0  0  0  0  0  0  0  0  0
    2.9330    3.7998   15.0932 C   0  0  0  0  0  0  0  0  0  0  0  0
    1.9510    4.7732   14.8463 C   0  0  0  0  0  0  0  0  0  0  0  0
    1.4381    5.0162   13.5992 C   0  0  0  0  0  0  0  0  0  0  0  0
    0.4255    6.0580   13.4227 C   0  0  0  0  0  0  0  0  0  0  0  0
   -0.8397    5.4536   13.2598 F   0  0  0  0  0  0  0  0  0  0  0  0
    0.5871    6.8608   12.3327 F   0  0  0  0  0  0  0  0  0  0  0  0
    0.2937    6.7589   14.6169 F   0  0  0  0  0  0  0  0  0  0  0  0
    1.3476    4.4865   11.2082 C   0  0  0  0  0  0  0  0  0  0  0  0
   -2.0612    1.5278    8.3194 C   0  0  0  0  0  0  0  0  0  0  0  0
   -1.3726    2.7718    8.5503 N   0  0  0  0  0  0  0  0  0  0  0  0
    0.0662    2.5987    8.6473 C   0  0  0  0  0  0  0  0  0  0  0  0
    0.5061    2.5009   10.0957 C   0  0  0  0  0  0  0  0  0  0  0  0
    0.2086    3.6679   10.8628 N   0  0  0  0  0  0  0  0  0  0  0  0
   -0.8159    4.4317   10.1903 C   0  0  0  0  0  0  0  0  0  0  0  0
   -1.8873    3.4606    9.7251 C   0  0  0  0  0  0  0  0  0  0  0  0
 33 34  1  0  0  0
 34 35  1  0  0  0
 35 36  1  0  0  0
 36 37  1  0  0  0
 37 32  1  0  0  0
 32 22  1  0  0  0
 22 23  2  0  0  0
 23 24  1  0  0  0
 24 25  2  0  0  0
 25  1  1  0  0  0
  1  2  1  0  0  0
  2  3  2  0  0  0
  2  5  1  0  0  0
  5  6  2  0  0  0
  6  7  1  0  0  0
  7  8  2  0  0  0
  8  9  1  0  0  0
  8 10  1  0  0  0
 10 12  1  0  0  0
 12 14  1  0  0  0
 14 15  2  0  0  0
 15 16  1  0  0  0
 16 17  1  0  0  0
 16 18  2  0  0  0
 18 19  1  0  0  0
 19 20  1  0  0  0
 19 21  2  0  0  0
 10 11  2  0  0  0
 25 26  1  0  0  0
 26 27  2  0  0  0
 27 28  1  0  0  0
 28 29  1  0  0  0
 28 30  1  0  0  0
 28 31  1  0  0  0
 37 38  1  0  0  0
 38 39  1  0  0  0
 39 34  1  0  0  0
 27 22  1  0  0  0
 11  5  1  0  0  0
 21 14  1  0  0  0
  1  4  1  0  0  0
 12 13  1  0  0  0
M  END
> <minimizedAffinity>
-8.13828

> <CNNscore>
0.2764823735

> <CNNaffinity>
6.4198684692

> <CNN_VS>
1.7749804258

> <CNNaffinity_variance>
0.5185886621

$$$$
[H]c1c(N([H])c2c([H])c(C(=O)N([H])c3c([H])c([H])c(C([H])([H])N4C([H])([H])C([H])([H])N(C([H])([H])[H])C([H])([H])C4([H])[H])c(C(F)(F)F)c3[H])c([H])c([H])c2C([H])([H])[H])nc(C([H])([H])[H])nc1C([H])([H])[H]


 39 42  0  0  0  0  0  0  0  0999 V2000
    4.0584    2.6294   16.4174 N   0  0  0  0  0  0  0  0  0  0  0  0
    2.9947    3.2745   15.7915 C   0  0  0  0  0  0  0  0  0  0  0  0
    2.2818    4.1804   16.2681 O   0  0  0  0  0  0  0  0  0  0  0  0
    4.5712    1.8640   15.8698 H   0  0  0  0  0  0  0  0  0  0  0  0
    2.6362    2.8713   14.4089 C   0  0  0  0  0  0  0  0  0  0  0  0
    1.5992    2.0184   14.1672 C   0  0  0  0  0  0  0  0  0  0  0  0
    1.2816    1.6682   12.8685 C   0  0  0  0  0  0  0  0  0  0  0  0
    2.0147    2.1843   11.8467 C   0  0  0  0  0  0  0  0  0  0  0  0
    1.6317    1.7749   10.4584 C   0  0  0  0  0  0  0  0  0  0  0  0
    3.1025    3.0735   12.0283 C   0  0  0  0  0  0  0  0  0  0  0  0
    3.3760    3.3887   13.3326 C   0  0  0  0  0  0  0  0  0  0  0  0
    3.7822    3.5385   10.8881 N   0  0  0  0  0  0  0  0  0  0  0  0
    4.0510    2.7987   10.1822 H   0  0  0  0  0  0  0  0  0  0  0  0
    4.1233    4.8620   10.6161 C   0  0  0  0  0  0  0  0  0  0  0  0
    5.4623    5.2234   10.8912 C   0  0  0  0  0  0  0  0  0  0  0  0
    5.8740    6.5108   10.6491 C   0  0  0  0  0  0  0  0  0  0  0  0
    7.2934    6.9255   10.9320 C   0  0  0  0  0  0  0  0  0  0  0  0
    5.0179    7.4094   10.1595 N   0  0  0  0  0  0  0  0  0  0  0  0
    3.7340    7.0807    9.8910 C   0  0  0  0  0  0  0  0  0  0  0  0
    2.8089    8.1224    9.3423 C   0  0  0  0  0  0  0  0  0  0  0  0
    3.3632    5.8340   10.1332 N   0  0  0  0  0  0  0  0  0  0  0  0
    5.2845    3.3488   20.3813 C   0  0  0  0  0  0  0  0  0  0  0  0
    5.7273    4.1318   19.3397 C   0  0  0  0  0  0  0  0  0  0  0  0
    5.3426    3.9342   18.0133 C   0  0  0  0  0  0  0  0  0  0  0  0
    4.4901    2.9214   17.7321 C   0  0  0  0  0  0  0  0  0  0  0  0
    4.0312    2.1166   18.7878 C   0  0  0  0  0  0  0  0  0  0  0  0
    4.4080    2.3089   20.0910 C   0  0  0  0  0  0  0  0  0  0  0  0
    3.8951    1.4178   21.1325 C   0  0  0  0  0  0  0  0  0  0  0  0
    2.8933    0.5889   20.5831 F   0  0  0  0  0  0  0  0  0  0  0  0
    3.3123    2.0316   22.2013 F   0  0  0  0  0  0  0  0  0  0  0  0
    4.8969    0.5190   21.4835 F   0  0  0  0  0  0  0  0  0  0  0  0
    5.6616    3.5866   21.7649 C   0  0  0  0  0  0  0  0  0  0  0  0
    4.9364    8.8957   21.6927 C   0  0  0  0  0  0  0  0  0  0  0  0
    5.6206    7.7217   21.2148 N   0  0  0  0  0  0  0  0  0  0  0  0
    4.7040    6.7097   20.7194 C   0  0  0  0  0  0  0  0  0  0  0  0
    4.4156    5.6687   21.7845 C   0  0  0  0  0  0  0  0  0  0  0  0
    5.5756    4.9563   22.2155 N   0  0  0  0  0  0  0  0  0  0  0  0
    6.7558    5.7108   21.8646 C   0  0  0  0  0  0  0  0  0  0  0  0
    6.5024    7.1633   22.2297 C   0  0  0  0  0  0  0  0  0  0  0  0
 33 34  1  0  0  0
 34 35  1  0  0  0
 35 36  1  0  0  0
 36 37  1  0  0  0
 37 32  1  0  0  0
 32 22  1  0  0  0
 22 23  2  0  0  0
 23 24  1  0  0  0
 24 25  2  0  0  0
 25  1  1  0  0  0
  1  2  1  0  0  0
  2  3  2  0  0  0
  2  5  1  0  0  0
  5  6  2  0  0  0
  6  7  1  0  0  0
  7  8  2  0  0  0
  8  9  1  0  0  0
  8 10  1  0  0  0
 10 12  1  0  0  0
 12 14  1  0  0  0
 14 15  2  0  0  0
 15 16  1  0  0  0
 16 17  1  0  0  0
 16 18  2  0  0  0
 18 19  1  0  0  0
 19 20  1  0  0  0
 19 21  2  0  0  0
 10 11  2  0  0  0
 25 26  1  0  0  0
 26 27  2  0  0  0
 27 28  1  0  0  0
 28 29  1  0  0  0
 28 30  1  0  0  0
 28 31  1  0  0  0
 37 38  1  0  0  0
 38 39  1  0  0  0
 39 34  1  0  0  0
 27 22  1  0  0  0
 11  5  1  0  0  0
 21 14  1  0  0  0
  1  4  1  0  0  0
 12 13  1  0  0  0
M  END
> <minimizedAffinity>
-8.89903

> <CNNscore>
0.2189050168

> <CNNaffinity>
6.6194291115

> <CNN_VS>
1.4490262270

> <CNNaffinity_variance>
0.1097561866

$$$$
[H]c1c(N([H])c2c([H])c(C(=O)N([H])c3c([H])c([H])c(C([H])([H])N4C([H])([H])C([H])([H])N(C([H])([H])[H])C([H])([H])C4([H])[H])c(C(F)(F)F)c3[H])c([H])c([H])c2C([H])([H])[H])nc(C([H])([H])[H])nc1C([H])([H])[H]


 39 42  0  0  0  0  0  0  0  0999 V2000
    3.4145    3.3698   16.3610 N   0  0  0  0  0  0  0  0  0  0  0  0
    3.8571    2.4530   17.3113 C   0  0  0  0  0  0  0  0  0  0  0  0
    3.9819    1.2207   17.1635 O   0  0  0  0  0  0  0  0  0  0  0  0
    3.3601    4.4009   16.6482 H   0  0  0  0  0  0  0  0  0  0  0  0
    4.2298    2.9529   18.6582 C   0  0  0  0  0  0  0  0  0  0  0  0
    4.9084    2.1659   19.5421 C   0  0  0  0  0  0  0  0  0  0  0  0
    5.2513    2.6615   20.7858 C   0  0  0  0  0  0  0  0  0  0  0  0
    4.9030    3.9353   21.1087 C   0  0  0  0  0  0  0  0  0  0  0  0
    5.2968    4.4259   22.4673 C   0  0  0  0  0  0  0  0  0  0  0  0
    4.1989    4.8040   20.2388 C   0  0  0  0  0  0  0  0  0  0  0  0
    3.8832    4.2654   19.0199 C   0  0  0  0  0  0  0  0  0  0  0  0
    3.8974    6.1012   20.6911 N   0  0  0  0  0  0  0  0  0  0  0  0
    3.3317    6.1550   21.5826 H   0  0  0  0  0  0  0  0  0  0  0  0
    4.2733    7.2946   20.0776 C   0  0  0  0  0  0  0  0  0  0  0  0
    4.9852    8.2081   20.8887 C   0  0  0  0  0  0  0  0  0  0  0  0
    5.3899    9.4068   20.3547 C   0  0  0  0  0  0  0  0  0  0  0  0
    6.1494   10.3998   21.1935 C   0  0  0  0  0  0  0  0  0  0  0  0
    5.1131    9.7041   19.0839 N   0  0  0  0  0  0  0  0  0  0  0  0
    4.4332    8.8421   18.2944 C   0  0  0  0  0  0  0  0  0  0  0  0
    4.1453    9.2185   16.8740 C   0  0  0  0  0  0  0  0  0  0  0  0
    4.0550    7.6945   18.8333 N   0  0  0  0  0  0  0  0  0  0  0  0
    2.3951    2.3942   12.3934 C   0  0  0  0  0  0  0  0  0  0  0  0
    1.7951    1.7696   13.4629 C   0  0  0  0  0  0  0  0  0  0  0  0
    2.0967    2.0652   14.7926 C   0  0  0  0  0  0  0  0  0  0  0  0
    3.0267    3.0146   15.0482 C   0  0  0  0  0  0  0  0  0  0  0  0
    3.6447    3.6591   13.9640 C   0  0  0  0  0  0  0  0  0  0  0  0
    3.3500    3.3700   12.6576 C   0  0  0  0  0  0  0  0  0  0  0  0
    4.0484    4.0778   11.5836 C   0  0  0  0  0  0  0  0  0  0  0  0
    3.1506    4.9641   10.9504 F   0  0  0  0  0  0  0  0  0  0  0  0
    4.5483    3.2939   10.5865 F   0  0  0  0  0  0  0  0  0  0  0  0
    4.9917    4.9287   12.1500 F   0  0  0  0  0  0  0  0  0  0  0  0
    2.0464    2.1056   11.0120 C   0  0  0  0  0  0  0  0  0  0  0  0
   -2.4182    2.6074    8.0907 C   0  0  0  0  0  0  0  0  0  0  0  0
   -1.1141    3.0862    8.4716 N   0  0  0  0  0  0  0  0  0  0  0  0
   -0.0868    2.0697    8.3264 C   0  0  0  0  0  0  0  0  0  0  0  0
    0.1790    1.3723    9.6471 C   0  0  0  0  0  0  0  0  0  0  0  0
    0.6500    2.2488   10.6710 N   0  0  0  0  0  0  0  0  0  0  0  0
    0.3209    3.6106   10.3211 C   0  0  0  0  0  0  0  0  0  0  0  0
   -1.1141    3.6269    9.8233 C   0  0  0  0  0  0  0  0  0  0  0  0
 33 34  1  0  0  0
 34 35  1  0  0  0
 35 36  1  0  0  0
 36 37  1  0  0  0
 37 32  1  0  0  0
 32 22  1  0  0  0
 22 23  2  0  0  0
 23 24  1  0  0  0
 24 25  2  0  0  0
 25  1  1  0  0  0
  1  2  1  0  0  0
  2  3  2  0  0  0
  2  5  1  0  0  0
  5  6  2  0  0  0
  6  7  1  0  0  0
  7  8  2  0  0  0
  8  9  1  0  0  0
  8 10  1  0  0  0
 10 12  1  0  0  0
 12 14  1  0  0  0
 14 15  2  0  0  0
 15 16  1  0  0  0
 16 17  1  0  0  0
 16 18  2  0  0  0
 18 19  1  0  0  0
 19 20  1  0  0  0
 19 21  2  0  0  0
 10 11  2  0  0  0
 25 26  1  0  0  0
 26 27  2  0  0  0
 27 28  1  0  0  0
 28 29  1  0  0  0
 28 30  1  0  0  0
 28 31  1  0  0  0
 37 38  1  0  0  0
 38 39  1  0  0  0
 39 34  1  0  0  0
 27 22  1  0  0  0
 11  5  1  0  0  0
 21 14  1  0  0  0
  1  4  1  0  0  0
 12 13  1  0  0  0
M  END
> <minimizedAffinity>
-8.24572

> <CNNscore>
0.2089590877

> <CNNaffinity>
6.3582382202

> <CNN_VS>
1.3286116123

> <CNNaffinity_variance>
0.3948838711

$$$$
[H]c1c(N([H])c2c([H])c(C(=O)N([H])c3c([H])c([H])c(C([H])([H])N4C([H])([H])C([H])([H])N(C([H])([H])[H])C([H])([H])C4([H])[H])c(C(F)(F)F)c3[H])c([H])c([H])c2C([H])([H])[H])nc(C([H])([H])[H])nc1C([H])([H])[H]


 39 42  0  0  0  0  0  0  0  0999 V2000
    3.6968    4.1986   16.4128 N   0  0  0  0  0  0  0  0  0  0  0  0
    3.6317    2.8925   16.8916 C   0  0  0  0  0  0  0  0  0  0  0  0
    3.2781    1.8781   16.2576 O   0  0  0  0  0  0  0  0  0  0  0  0
    4.0196    4.9640   17.0899 H   0  0  0  0  0  0  0  0  0  0  0  0
    4.0143    2.6352   18.3023 C   0  0  0  0  0  0  0  0  0  0  0  0
    4.4009    1.3938   18.7153 C   0  0  0  0  0  0  0  0  0  0  0  0
    4.7617    1.1858   20.0331 C   0  0  0  0  0  0  0  0  0  0  0  0
    4.7242    2.2310   20.9015 C   0  0  0  0  0  0  0  0  0  0  0  0
    5.1239    1.9551   22.3177 C   0  0  0  0  0  0  0  0  0  0  0  0
    4.3327    3.5432   20.5383 C   0  0  0  0  0  0  0  0  0  0  0  0
    3.9853    3.6963   19.2225 C   0  0  0  0  0  0  0  0  0  0  0  0
    4.3363    4.5398   21.5309 N   0  0  0  0  0  0  0  0  0  0  0  0
    3.5312    4.5068   22.2154 H   0  0  0  0  0  0  0  0  0  0  0  0
    5.2902    5.5439   21.6852 C   0  0  0  0  0  0  0  0  0  0  0  0
    4.8384    6.8644   21.4586 C   0  0  0  0  0  0  0  0  0  0  0  0
    5.7206    7.9084   21.5913 C   0  0  0  0  0  0  0  0  0  0  0  0
    5.2691    9.3253   21.3564 C   0  0  0  0  0  0  0  0  0  0  0  0
    6.9899    7.6767   21.9306 N   0  0  0  0  0  0  0  0  0  0  0  0
    7.4385    6.4202   22.1508 C   0  0  0  0  0  0  0  0  0  0  0  0
    8.8715    6.2082   22.5297 C   0  0  0  0  0  0  0  0  0  0  0  0
    6.5684    5.4327   22.0163 N   0  0  0  0  0  0  0  0  0  0  0  0
    2.5665    5.4144   12.5427 C   0  0  0  0  0  0  0  0  0  0  0  0
    3.6804    4.6339   12.7532 C   0  0  0  0  0  0  0  0  0  0  0  0
    4.0882    4.2029   14.0158 C   0  0  0  0  0  0  0  0  0  0  0  0
    3.3533    4.5688   15.0917 C   0  0  0  0  0  0  0  0  0  0  0  0
    2.2140    5.3646   14.8882 C   0  0  0  0  0  0  0  0  0  0  0  0
    1.8120    5.7891   13.6491 C   0  0  0  0  0  0  0  0  0  0  0  0
    0.6192    6.6276   13.5223 C   0  0  0  0  0  0  0  0  0  0  0  0
   -0.2537    6.0536   12.5730 F   0  0  0  0  0  0  0  0  0  0  0  0
    0.8361    7.9027   13.0913 F   0  0  0  0  0  0  0  0  0  0  0  0
   -0.1050    6.5552   14.7076 F   0  0  0  0  0  0  0  0  0  0  0  0
    2.1288    5.8268   11.2193 C   0  0  0  0  0  0  0  0  0  0  0  0
    3.8756    9.3588    7.5871 C   0  0  0  0  0  0  0  0  0  0  0  0
    3.3877    8.0443    7.9175 N   0  0  0  0  0  0  0  0  0  0  0  0
    2.1278    8.0864    8.6389 C   0  0  0  0  0  0  0  0  0  0  0  0
    2.3541    7.9861   10.1355 C   0  0  0  0  0  0  0  0  0  0  0  0
    2.9847    6.7698   10.5374 N   0  0  0  0  0  0  0  0  0  0  0  0
    3.6382    6.1724    9.3967 C   0  0  0  0  0  0  0  0  0  0  0  0
    4.3774    7.2741    8.6569 C   0  0  0  0  0  0  0  0  0  0  0  0
 33 34  1  0  0  0
 34 35  1  0  0  0
 35 36  1  0  0  0
 36 37  1  0  0  0
 37 32  1  0  0  0
 32 22  1  0  0  0
 22 23  2  0  0  0
 23 24  1  0  0  0
 24 25  2  0  0  0
 25  1  1  0  0  0
  1  2  1  0  0  0
  2  3  2  0  0  0
  2  5  1  0  0  0
  5  6  2  0  0  0
  6  7  1  0  0  0
  7  8  2  0  0  0
  8  9  1  0  0  0
  8 10  1  0  0  0
 10 12  1  0  0  0
 12 14  1  0  0  0
 14 15  2  0  0  0
 15 16  1  0  0  0
 16 17  1  0  0  0
 16 18  2  0  0  0
 18 19  1  0  0  0
 19 20  1  0  0  0
 19 21  2  0  0  0
 10 11  2  0  0  0
 25 26  1  0  0  0
 26 27  2  0  0  0
 27 28  1  0  0  0
 28 29  1  0  0  0
 28 30  1  0  0  0
 28 31  1  0  0  0
 37 38  1  0  0  0
 38 39  1  0  0  0
 39 34  1  0  0  0
 27 22  1  0  0  0
 11  5  1  0  0  0
 21 14  1  0  0  0
  1  4  1  0  0  0
 12 13  1  0  0  0
M  END
> <minimizedAffinity>
-8.48435

> <CNNscore>
0.2006379217

> <CNNaffinity>
6.2666163445

> <CNN_VS>
1.2573208809

> <CNNaffinity_variance>
0.4110978544

$$$$
[H]c1c(N([H])c2c([H])c(C(=O)N([H])c3c([H])c([H])c(C([H])([H])N4C([H])([H])C([H])([H])N(C([H])([H])[H])C([H])([H])C4([H])[H])c(C(F)(F)F)c3[H])c([H])c([H])c2C([H])([H])[H])nc(C([H])([H])[H])nc1C([H])([H])[H]


 39 42  0  0  0  0  0  0  0  0999 V2000
    3.7793    2.9708   16.3055 N   0  0  0  0  0  0  0  0  0  0  0  0
    2.6739    3.6551   15.8061 C   0  0  0  0  0  0  0  0  0  0  0  0
    2.0085    4.5333   16.3908 O   0  0  0  0  0  0  0  0  0  0  0  0
    4.2407    2.2377   15.6744 H   0  0  0  0  0  0  0  0  0  0  0  0
    2.2027    3.3354   14.4355 C   0  0  0  0  0  0  0  0  0  0  0  0
    2.1007    2.0447   14.0056 C   0  0  0  0  0  0  0  0  0  0  0  0
    1.6492    1.7764   12.7272 C   0  0  0  0  0  0  0  0  0  0  0  0
    1.3121    2.8124   11.9143 C   0  0  0  0  0  0  0  0  0  0  0  0
    0.8286    2.4704   10.5392 C   0  0  0  0  0  0  0  0  0  0  0  0
    1.3946    4.1737   12.2978 C   0  0  0  0  0  0  0  0  0  0  0  0
    1.8472    4.3856   13.5728 C   0  0  0  0  0  0  0  0  0  0  0  0
    1.0156    5.1546   11.3637 N   0  0  0  0  0  0  0  0  0  0  0  0
    1.7968    5.7685   11.0022 H   0  0  0  0  0  0  0  0  0  0  0  0
   -0.2735    5.3802   10.8848 C   0  0  0  0  0  0  0  0  0  0  0  0
   -0.3628    5.8853    9.5672 C   0  0  0  0  0  0  0  0  0  0  0  0
   -1.5999    6.1334    9.0251 C   0  0  0  0  0  0  0  0  0  0  0  0
   -1.7270    6.6715    7.6248 C   0  0  0  0  0  0  0  0  0  0  0  0
   -2.7043    5.8995    9.7361 N   0  0  0  0  0  0  0  0  0  0  0  0
   -2.6370    5.4167   10.9974 C   0  0  0  0  0  0  0  0  0  0  0  0
   -3.9032    5.1695   11.7574 C   0  0  0  0  0  0  0  0  0  0  0  0
   -1.4333    5.1864   11.4957 N   0  0  0  0  0  0  0  0  0  0  0  0
    5.3242    3.4509   20.1934 C   0  0  0  0  0  0  0  0  0  0  0  0
    5.6892    4.2921   19.1671 C   0  0  0  0  0  0  0  0  0  0  0  0
    5.1982    4.1744   17.8666 C   0  0  0  0  0  0  0  0  0  0  0  0
    4.3171    3.1833   17.5961 C   0  0  0  0  0  0  0  0  0  0  0  0
    3.9370    2.3196   18.6364 C   0  0  0  0  0  0  0  0  0  0  0  0
    4.4183    2.4335   19.9142 C   0  0  0  0  0  0  0  0  0  0  0  0
    3.9825    1.4847   20.9397 C   0  0  0  0  0  0  0  0  0  0  0  0
    3.0007    0.6294   20.3946 F   0  0  0  0  0  0  0  0  0  0  0  0
    3.4100    2.0341   22.0484 F   0  0  0  0  0  0  0  0  0  0  0  0
    5.0353    0.6218   21.2254 F   0  0  0  0  0  0  0  0  0  0  0  0
    5.8126    3.6054   21.5538 C   0  0  0  0  0  0  0  0  0  0  0  0
    4.9506    8.8814   21.9264 C   0  0  0  0  0  0  0  0  0  0  0  0
    5.6428    7.7677   21.3302 N   0  0  0  0  0  0  0  0  0  0  0  0
    4.7314    6.7709   20.7960 C   0  0  0  0  0  0  0  0  0  0  0  0
    4.5164    5.6433   21.7877 C   0  0  0  0  0  0  0  0  0  0  0  0
    5.7117    4.9334   22.1130 N   0  0  0  0  0  0  0  0  0  0  0  0
    6.8560    5.7462   21.7733 C   0  0  0  0  0  0  0  0  0  0  0  0
    6.5820    7.1585   22.2608 C   0  0  0  0  0  0  0  0  0  0  0  0
 33 34  1  0  0  0
 34 35  1  0  0  0
 35 36  1  0  0  0
 36 37  1  0  0  0
 37 32  1  0  0  0
 32 22  1  0  0  0
 22 23  2  0  0  0
 23 24  1  0  0  0
 24 25  2  0  0  0
 25  1  1  0  0  0
  1  2  1  0  0  0
  2  3  2  0  0  0
  2  5  1  0  0  0
  5  6  2  0  0  0
  6  7  1  0  0  0
  7  8  2  0  0  0
  8  9  1  0  0  0
  8 10  1  0  0  0
 10 12  1  0  0  0
 12 14  1  0  0  0
 14 15  2  0  0  0
 15 16  1  0  0  0
 16 17  1  0  0  0
 16 18  2  0  0  0
 18 19  1  0  0  0
 19 20  1  0  0  0
 19 21  2  0  0  0
 10 11  2  0  0  0
 25 26  1  0  0  0
 26 27  2  0  0  0
 27 28  1  0  0  0
 28 29  1  0  0  0
 28 30  1  0  0  0
 28 31  1  0  0  0
 37 38  1  0  0  0
 38 39  1  0  0  0
 39 34  1  0  0  0
 27 22  1  0  0  0
 11  5  1  0  0  0
 21 14  1  0  0  0
  1  4  1  0  0  0
 12 13  1  0  0  0
M  END
> <minimizedAffinity>
-8.68204

> <CNNscore>
0.1800318211

> <CNNaffinity>
6.5657591820

> <CNN_VS>
1.1820455790

> <CNNaffinity_variance>
0.2588497698

$$$$
[H]c1c(N([H])c2c([H])c(C(=O)N([H])c3c([H])c([H])c(C([H])([H])N4C([H])([H])C([H])([H])N(C([H])([H])[H])C([H])([H])C4([H])[H])c(C(F)(F)F)c3[H])c([H])c([H])c2C([H])([H])[H])nc(C([H])([H])[H])nc1C([H])([H])[H]


 39 42  0  0  0  0  0  0  0  0999 V2000
    3.4666    8.0879   15.4491 N   0  0  0  0  0  0  0  0  0  0  0  0
    3.8646    9.2586   16.0900 C   0  0  0  0  0  0  0  0  0  0  0  0
    3.9903   10.3887   15.5772 O   0  0  0  0  0  0  0  0  0  0  0  0
    3.4115    7.1915   16.0340 H   0  0  0  0  0  0  0  0  0  0  0  0
    4.1840    9.1999   17.5382 C   0  0  0  0  0  0  0  0  0  0  0  0
    4.7433   10.2642   18.1829 C   0  0  0  0  0  0  0  0  0  0  0  0
    5.0206   10.1848   19.5345 C   0  0  0  0  0  0  0  0  0  0  0  0
    4.7287    9.0375   20.2028 C   0  0  0  0  0  0  0  0  0  0  0  0
    5.0479    9.0006   21.6651 C   0  0  0  0  0  0  0  0  0  0  0  0
    4.1486    7.8973   19.5942 C   0  0  0  0  0  0  0  0  0  0  0  0
    3.8935    8.0272   18.2550 C   0  0  0  0  0  0  0  0  0  0  0  0
    3.8942    6.7696   20.3955 N   0  0  0  0  0  0  0  0  0  0  0  0
    3.3024    6.9426   21.2543 H   0  0  0  0  0  0  0  0  0  0  0  0
    4.3458    5.4728   20.1582 C   0  0  0  0  0  0  0  0  0  0  0  0
    4.9931    4.8365   21.2424 C   0  0  0  0  0  0  0  0  0  0  0  0
    5.4661    3.5570   21.0852 C   0  0  0  0  0  0  0  0  0  0  0  0
    6.1597    2.8535   22.2213 C   0  0  0  0  0  0  0  0  0  0  0  0
    5.3154    2.9229   19.9211 N   0  0  0  0  0  0  0  0  0  0  0  0
    4.6990    3.5166   18.8741 C   0  0  0  0  0  0  0  0  0  0  0  0
    4.5525    2.7663   17.5866 C   0  0  0  0  0  0  0  0  0  0  0  0
    4.2526    4.7494   19.0519 N   0  0  0  0  0  0  0  0  0  0  0  0
    2.6441    7.7916   11.3298 C   0  0  0  0  0  0  0  0  0  0  0  0
    1.6742    8.1697   12.2300 C   0  0  0  0  0  0  0  0  0  0  0  0
    1.9033    8.2872   13.6011 C   0  0  0  0  0  0  0  0  0  0  0  0
    3.1420    8.0166   14.0745 C   0  0  0  0  0  0  0  0  0  0  0  0
    4.1397    7.6307   13.1644 C   0  0  0  0  0  0  0  0  0  0  0  0
    3.9166    7.5145   11.8175 C   0  0  0  0  0  0  0  0  0  0  0  0
    5.0067    7.0938   10.9362 C   0  0  0  0  0  0  0  0  0  0  0  0
    4.6308    5.9109   10.2640 F   0  0  0  0  0  0  0  0  0  0  0  0
    6.1865    6.8012   11.5534 F   0  0  0  0  0  0  0  0  0  0  0  0
    5.1309    8.0209    9.9067 F   0  0  0  0  0  0  0  0  0  0  0  0
    2.4050    7.7088    9.8983 C   0  0  0  0  0  0  0  0  0  0  0  0
   -0.4511    3.7232    7.7358 C   0  0  0  0  0  0  0  0  0  0  0  0
    0.5034    4.7933    7.5987 N   0  0  0  0  0  0  0  0  0  0  0  0
    1.6144    4.6666    8.5258 C   0  0  0  0  0  0  0  0  0  0  0  0
    1.3871    5.5101    9.7660 C   0  0  0  0  0  0  0  0  0  0  0  0
    1.2737    6.9070    9.4934 N   0  0  0  0  0  0  0  0  0  0  0  0
    0.9554    7.0959    8.0976 C   0  0  0  0  0  0  0  0  0  0  0  0
   -0.1293    6.0977    7.7308 C   0  0  0  0  0  0  0  0  0  0  0  0
 33 34  1  0  0  0
 34 35  1  0  0  0
 35 36  1  0  0  0
 36 37  1  0  0  0
 37 32  1  0  0  0
 32 22  1  0  0  0
 22 23  2  0  0  0
 23 24  1  0  0  0
 24 25  2  0  0  0
 25  1  1  0  0  0
  1  2  1  0  0  0
  2  3  2  0  0  0
  2  5  1  0  0  0
  5  6  2  0  0  0
  6  7  1  0  0  0
  7  8  2  0  0  0
  8  9  1  0  0  0
  8 10  1  0  0  0
 10 12  1  0  0  0
 12 14  1  0  0  0
 14 15  2  0  0  0
 15 16  1  0  0  0
 16 17  1  0  0  0
 16 18  2  0  0  0
 18 19  1  0  0  0
 19 20  1  0  0  0
 19 21  2  0  0  0
 10 11  2  0  0  0
 25 26  1  0  0  0
 26 27  2  0  0  0
 27 28  1  0  0  0
 28 29  1  0  0  0
 28 30  1  0  0  0
 28 31  1  0  0  0
 37 38  1  0  0  0
 38 39  1  0  0  0
 39 34  1  0  0  0
 27 22  1  0  0  0
 11  5  1  0  0  0
 21 14  1  0  0  0
  1  4  1  0  0  0
 12 13  1  0  0  0
M  END
> <minimizedAffinity>
-8.05494

> <CNNscore>
0.1697347462

> <CNNaffinity>
5.8278813362

> <CNN_VS>
0.9891939759

> <CNNaffinity_variance>
0.6039972901

$$$$
[H]c1c(N([H])c2c([H])c(C(=O)N([H])c3c([H])c([H])c(C([H])([H])N4C([H])([H])C([H])([H])N(C([H])([H])[H])C([H])([H])C4([H])[H])c(C(F)(F)F)c3[H])c([H])c([H])c2C([H])([H])[H])nc(C([H])([H])[H])nc1C([H])([H])[H]


 39 42  0  0  0  0  0  0  0  0999 V2000
    3.3748    7.9852   15.1493 N   0  0  0  0  0  0  0  0  0  0  0  0
    3.9456    7.0845   16.0450 C   0  0  0  0  0  0  0  0  0  0  0  0
    4.2722    5.9028   15.8147 O   0  0  0  0  0  0  0  0  0  0  0  0
    3.1483    8.9700   15.5064 H   0  0  0  0  0  0  0  0  0  0  0  0
    4.2101    7.5374   17.4334 C   0  0  0  0  0  0  0  0  0  0  0  0
    4.7269    8.7741   17.6877 C   0  0  0  0  0  0  0  0  0  0  0  0
    4.9534    9.1730   18.9914 C   0  0  0  0  0  0  0  0  0  0  0  0
    4.6546    8.3184   20.0055 C   0  0  0  0  0  0  0  0  0  0  0  0
    4.9178    8.7966   21.3996 C   0  0  0  0  0  0  0  0  0  0  0  0
    4.1166    7.0224   19.8107 C   0  0  0  0  0  0  0  0  0  0  0  0
    3.9112    6.6758   18.5019 C   0  0  0  0  0  0  0  0  0  0  0  0
    3.8499    6.2331   20.9439 N   0  0  0  0  0  0  0  0  0  0  0  0
    3.4252    6.7430   21.7670 H   0  0  0  0  0  0  0  0  0  0  0  0
    4.0921    4.8666   21.0705 C   0  0  0  0  0  0  0  0  0  0  0  0
    4.3284    4.4008   22.3844 C   0  0  0  0  0  0  0  0  0  0  0  0
    4.5751    3.0656   22.5896 C   0  0  0  0  0  0  0  0  0  0  0  0
    4.8304    2.5398   23.9770 C   0  0  0  0  0  0  0  0  0  0  0  0
    4.5911    2.2188   21.5586 N   0  0  0  0  0  0  0  0  0  0  0  0
    4.3672    2.6475   20.2959 C   0  0  0  0  0  0  0  0  0  0  0  0
    4.3949    1.6609   19.1699 C   0  0  0  0  0  0  0  0  0  0  0  0
    4.1322    3.9383   20.1257 N   0  0  0  0  0  0  0  0  0  0  0  0
    2.3088    7.0297   11.1890 C   0  0  0  0  0  0  0  0  0  0  0  0
    3.5409    7.5630   11.4919 C   0  0  0  0  0  0  0  0  0  0  0  0
    3.9387    7.8884   12.7889 C   0  0  0  0  0  0  0  0  0  0  0  0
    3.0713    7.6698   13.8045 C   0  0  0  0  0  0  0  0  0  0  0  0
    1.8114    7.1250   13.5067 C   0  0  0  0  0  0  0  0  0  0  0  0
    1.4188    6.8050   12.2336 C   0  0  0  0  0  0  0  0  0  0  0  0
    0.0830    6.2528   12.0046 C   0  0  0  0  0  0  0  0  0  0  0  0
    0.2022    4.9854   11.3947 F   0  0  0  0  0  0  0  0  0  0  0  0
   -0.7232    6.9786   11.1788 F   0  0  0  0  0  0  0  0  0  0  0  0
   -0.4965    5.9621   13.2353 F   0  0  0  0  0  0  0  0  0  0  0  0
    1.9182    6.6590    9.8388 C   0  0  0  0  0  0  0  0  0  0  0  0
    0.6103    9.4490    5.4543 C   0  0  0  0  0  0  0  0  0  0  0  0
    1.5878    8.7356    6.2357 N   0  0  0  0  0  0  0  0  0  0  0  0
    1.1508    7.3932    6.5775 C   0  0  0  0  0  0  0  0  0  0  0  0
    0.5416    7.3564    7.9663 C   0  0  0  0  0  0  0  0  0  0  0  0
    1.4510    7.7374    8.9990 N   0  0  0  0  0  0  0  0  0  0  0  0
    2.5466    8.4785    8.4196 C   0  0  0  0  0  0  0  0  0  0  0  0
    1.9616    9.4744    7.4330 C   0  0  0  0  0  0  0  0  0  0  0  0
 33 34  1  0  0  0
 34 35  1  0  0  0
 35 36  1  0  0  0
 36 37  1  0  0  0
 37 32  1  0  0  0
 32 22  1  0  0  0
 22 23  2  0  0  0
 23 24  1  0  0  0
 24 25  2  0  0  0
 25  1  1  0  0  0
  1  2  1  0  0  0
  2  3  2  0  0  0
  2  5  1  0  0  0
  5  6  2  0  0  0
  6  7  1  0  0  0
  7  8  2  0  0  0
  8  9  1  0  0  0
  8 10  1  0  0  0
 10 12  1  0  0  0
 12 14  1  0  0  0
 14 15  2  0  0  0
 15 16  1  0  0  0
 16 17  1  0  0  0
 16 18  2  0  0  0
 18 19  1  0  0  0
 19 20  1  0  0  0
 19 21  2  0  0  0
 10 11  2  0  0  0
 25 26  1  0  0  0
 26 27  2  0  0  0
 27 28  1  0  0  0
 28 29  1  0  0  0
 28 30  1  0  0  0
 28 31  1  0  0  0
 37 38  1  0  0  0
 38 39  1  0  0  0
 39 34  1  0  0  0
 27 22  1  0  0  0
 11  5  1  0  0  0
 21 14  1  0  0  0
  1  4  1  0  0  0
 12 13  1  0  0  0
M  END
> <minimizedAffinity>
-8.53442

> <CNNscore>
0.1641194373

> <CNNaffinity>
5.8962574005

> <CNN_VS>
0.9676904678

> <CNNaffinity_variance>
0.6219240427

$$$$
[H]c1c(N([H])c2c([H])c(C(=O)N([H])c3c([H])c([H])c(C([H])([H])N4C([H])([H])C([H])([H])N(C([H])([H])[H])C([H])([H])C4([H])[H])c(C(F)(F)F)c3[H])c([H])c([H])c2C([H])([H])[H])nc(C([H])([H])[H])nc1C([H])([H])[H]


 39 42  0  0  0  0  0  0  0  0999 V2000
    3.8269    3.7441   17.7854 N   0  0  0  0  0  0  0  0  0  0  0  0
    4.3815    2.5686   18.2853 C   0  0  0  0  0  0  0  0  0  0  0  0
    4.7437    1.5718   17.6287 O   0  0  0  0  0  0  0  0  0  0  0  0
    3.5639    4.5108   18.4866 H   0  0  0  0  0  0  0  0  0  0  0  0
    4.5796    2.4462   19.7511 C   0  0  0  0  0  0  0  0  0  0  0  0
    4.1800    1.3314   20.4283 C   0  0  0  0  0  0  0  0  0  0  0  0
    4.3866    1.2407   21.7918 C   0  0  0  0  0  0  0  0  0  0  0  0
    4.9891    2.2731   22.4391 C   0  0  0  0  0  0  0  0  0  0  0  0
    5.1904    2.1273   23.9156 C   0  0  0  0  0  0  0  0  0  0  0  0
    5.4274    3.4573   21.7967 C   0  0  0  0  0  0  0  0  0  0  0  0
    5.1997    3.4973   20.4469 C   0  0  0  0  0  0  0  0  0  0  0  0
    6.0382    4.4541   22.5787 N   0  0  0  0  0  0  0  0  0  0  0  0
    6.1269    4.2367   23.6096 H   0  0  0  0  0  0  0  0  0  0  0  0
    6.5259    5.6762   22.1199 C   0  0  0  0  0  0  0  0  0  0  0  0
    5.5870    6.7316   22.0586 C   0  0  0  0  0  0  0  0  0  0  0  0
    5.9925    7.9668   21.6163 C   0  0  0  0  0  0  0  0  0  0  0  0
    5.0158    9.1099   21.5398 C   0  0  0  0  0  0  0  0  0  0  0  0
    7.2594    8.1665   21.2489 N   0  0  0  0  0  0  0  0  0  0  0  0
    8.1702    7.1683   21.3012 C   0  0  0  0  0  0  0  0  0  0  0  0
    9.5810    7.4388   20.8788 C   0  0  0  0  0  0  0  0  0  0  0  0
    7.7535    5.9884   21.7309 N   0  0  0  0  0  0  0  0  0  0  0  0
    3.0015    4.3019   13.6938 C   0  0  0  0  0  0  0  0  0  0  0  0
    3.6369    5.2708   14.4364 C   0  0  0  0  0  0  0  0  0  0  0  0
    3.9359    5.1266   15.7914 C   0  0  0  0  0  0  0  0  0  0  0  0
    3.5849    3.9759   16.4114 C   0  0  0  0  0  0  0  0  0  0  0  0
    2.9366    2.9799   15.6627 C   0  0  0  0  0  0  0  0  0  0  0  0
    2.6419    3.1198   14.3319 C   0  0  0  0  0  0  0  0  0  0  0  0
    1.9523    2.0396   13.6251 C   0  0  0  0  0  0  0  0  0  0  0  0
    1.7992    0.9384   14.4949 F   0  0  0  0  0  0  0  0  0  0  0  0
    2.5932    1.5482   12.5268 F   0  0  0  0  0  0  0  0  0  0  0  0
    0.6422    2.4348   13.3760 F   0  0  0  0  0  0  0  0  0  0  0  0
    2.7283    4.4468   12.2734 C   0  0  0  0  0  0  0  0  0  0  0  0
    2.5798    8.5909    8.8789 C   0  0  0  0  0  0  0  0  0  0  0  0
    2.9359    7.2256    9.1687 N   0  0  0  0  0  0  0  0  0  0  0  0
    1.8056    6.4476    9.6448 C   0  0  0  0  0  0  0  0  0  0  0  0
    1.7868    6.3866   11.1604 C   0  0  0  0  0  0  0  0  0  0  0  0
    2.9430    5.7642   11.7212 N   0  0  0  0  0  0  0  0  0  0  0  0
    4.0074    5.7691   10.7452 C   0  0  0  0  0  0  0  0  0  0  0  0
    4.0452    7.1476   10.1082 C   0  0  0  0  0  0  0  0  0  0  0  0
 33 34  1  0  0  0
 34 35  1  0  0  0
 35 36  1  0  0  0
 36 37  1  0  0  0
 37 32  1  0  0  0
 32 22  1  0  0  0
 22 23  2  0  0  0
 23 24  1  0  0  0
 24 25  2  0  0  0
 25  1  1  0  0  0
  1  2  1  0  0  0
  2  3  2  0  0  0
  2  5  1  0  0  0
  5  6  2  0  0  0
  6  7  1  0  0  0
  7  8  2  0  0  0
  8  9  1  0  0  0
  8 10  1  0  0  0
 10 12  1  0  0  0
 12 14  1  0  0  0
 14 15  2  0  0  0
 15 16  1  0  0  0
 16 17  1  0  0  0
 16 18  2  0  0  0
 18 19  1  0  0  0
 19 20  1  0  0  0
 19 21  2  0  0  0
 10 11  2  0  0  0
 25 26  1  0  0  0
 26 27  2  0  0  0
 27 28  1  0  0  0
 28 29  1  0  0  0
 28 30  1  0  0  0
 28 31  1  0  0  0
 37 38  1  0  0  0
 38 39  1  0  0  0
 39 34  1  0  0  0
 27 22  1  0  0  0
 11  5  1  0  0  0
 21 14  1  0  0  0
  1  4  1  0  0  0
 12 13  1  0  0  0
M  END
> <minimizedAffinity>
-8.91267

> <CNNscore>
0.1423080862

> <CNNaffinity>
6.4200744629

> <CNN_VS>
0.9136285186

> <CNNaffinity_variance>
0.0372341163

$$$$
[H]c1c(N([H])c2c([H])c(C(=O)N([H])c3c([H])c([H])c(C([H])([H])N4C([H])([H])C([H])([H])N(C([H])([H])[H])C([H])([H])C4([H])[H])c(C(F)(F)F)c3[H])c([H])c([H])c2C([H])([H])[H])nc(C([H])([H])[H])nc1C([H])([H])[H]


 39 42  0  0  0  0  0  0  0  0999 V2000
    3.7510    3.3451   14.3528 N   0  0  0  0  0  0  0  0  0  0  0  0
    2.7650    2.4837   14.8275 C   0  0  0  0  0  0  0  0  0  0  0  0
    1.6963    2.1815   14.2596 O   0  0  0  0  0  0  0  0  0  0  0  0
    4.6148    3.5035   14.9670 H   0  0  0  0  0  0  0  0  0  0  0  0
    2.9667    1.8346   16.1469 C   0  0  0  0  0  0  0  0  0  0  0  0
    2.3375    0.6666   16.4642 C   0  0  0  0  0  0  0  0  0  0  0  0
    2.5522    0.0794   17.6968 C   0  0  0  0  0  0  0  0  0  0  0  0
    3.3936    0.6818   18.5784 C   0  0  0  0  0  0  0  0  0  0  0  0
    3.5932    0.0071   19.8999 C   0  0  0  0  0  0  0  0  0  0  0  0
    4.0773    1.8937   18.3122 C   0  0  0  0  0  0  0  0  0  0  0  0
    3.8307    2.4342   17.0784 C   0  0  0  0  0  0  0  0  0  0  0  0
    4.9220    2.4162   19.3082 N   0  0  0  0  0  0  0  0  0  0  0  0
    5.8253    1.8896   19.4647 H   0  0  0  0  0  0  0  0  0  0  0  0
    4.6747    3.5442   20.0881 C   0  0  0  0  0  0  0  0  0  0  0  0
    4.2990    3.2974   21.4287 C   0  0  0  0  0  0  0  0  0  0  0  0
    4.0386    4.3591   22.2598 C   0  0  0  0  0  0  0  0  0  0  0  0
    3.6363    4.1279   23.6921 C   0  0  0  0  0  0  0  0  0  0  0  0
    4.1396    5.6092   21.8050 N   0  0  0  0  0  0  0  0  0  0  0  0
    4.4975    5.8631   20.5260 C   0  0  0  0  0  0  0  0  0  0  0  0
    4.5981    7.2824   20.0596 C   0  0  0  0  0  0  0  0  0  0  0  0
    4.7429    4.8227   19.7464 N   0  0  0  0  0  0  0  0  0  0  0  0
    3.5532    5.5129   10.7480 C   0  0  0  0  0  0  0  0  0  0  0  0
    3.5627    4.1367   10.7583 C   0  0  0  0  0  0  0  0  0  0  0  0
    3.6207    3.3782   11.9278 C   0  0  0  0  0  0  0  0  0  0  0  0
    3.6702    4.0252   13.1154 C   0  0  0  0  0  0  0  0  0  0  0  0
    3.6602    5.4297   13.1165 C   0  0  0  0  0  0  0  0  0  0  0  0
    3.6035    6.1764   11.9691 C   0  0  0  0  0  0  0  0  0  0  0  0
    3.6100    7.6374   12.0544 C   0  0  0  0  0  0  0  0  0  0  0  0
    3.5256    8.0243   13.4093 F   0  0  0  0  0  0  0  0  0  0  0  0
    2.5760    8.2706   11.4311 F   0  0  0  0  0  0  0  0  0  0  0  0
    4.8628    8.1012   11.6668 F   0  0  0  0  0  0  0  0  0  0  0  0
    3.4544    6.2936    9.5257 C   0  0  0  0  0  0  0  0  0  0  0  0
    6.9786    7.3303    5.6239 C   0  0  0  0  0  0  0  0  0  0  0  0
    5.6173    7.2411    6.0865 N   0  0  0  0  0  0  0  0  0  0  0  0
    5.3871    8.0283    7.2853 C   0  0  0  0  0  0  0  0  0  0  0  0
    5.4876    7.1666    8.5297 C   0  0  0  0  0  0  0  0  0  0  0  0
    4.5254    6.1125    8.5735 N   0  0  0  0  0  0  0  0  0  0  0  0
    4.0228    5.8705    7.2415 C   0  0  0  0  0  0  0  0  0  0  0  0
    5.2098    5.8589    6.2937 C   0  0  0  0  0  0  0  0  0  0  0  0
 33 34  1  0  0  0
 34 35  1  0  0  0
 35 36  1  0  0  0
 36 37  1  0  0  0
 37 32  1  0  0  0
 32 22  1  0  0  0
 22 23  2  0  0  0
 23 24  1  0  0  0
 24 25  2  0  0  0
 25  1  1  0  0  0
  1  2  1  0  0  0
  2  3  2  0  0  0
  2  5  1  0  0  0
  5  6  2  0  0  0
  6  7  1  0  0  0
  7  8  2  0  0  0
  8  9  1  0  0  0
  8 10  1  0  0  0
 10 12  1  0  0  0
 12 14  1  0  0  0
 14 15  2  0  0  0
 15 16  1  0  0  0
 16 17  1  0  0  0
 16 18  2  0  0  0
 18 19  1  0  0  0
 19 20  1  0  0  0
 19 21  2  0  0  0
 10 11  2  0  0  0
 25 26  1  0  0  0
 26 27  2  0  0  0
 27 28  1  0  0  0
 28 29  1  0  0  0
 28 30  1  0  0  0
 28 31  1  0  0  0
 37 38  1  0  0  0
 38 39  1  0  0  0
 39 34  1  0  0  0
 27 22  1  0  0  0
 11  5  1  0  0  0
 21 14  1  0  0  0
  1  4  1  0  0  0
 12 13  1  0  0  0
M  END
> <minimizedAffinity>
-7.89823

> <CNNscore>
0.1312166452

> <CNNaffinity>
6.1667618752

> <CNN_VS>
0.8091818094

> <CNNaffinity_variance>
0.3651241064

$$$$
[H]c1c([H])c([H])c2c(c1[H])c(N([H])C([H])([H])[H])c(-c1nc3c([H])c(N4C([H])([H])C([H])([H])OC([H])([H])C4([H])[H])c([H])c([H])c3n1[H])c(=O)n2[H]


 31 35  0  0  0  0  0  0  0  0999 V2000
    3.0858    1.9107   16.3571 C   0  0  0  0  0  0  0  0  0  0  0  0
    3.7985    2.6372   15.4652 N   0  0  0  0  0  0  0  0  0  0  0  0
    3.1773    2.7030   14.2789 C   0  0  0  0  0  0  0  0  0  0  0  0
    3.5033    3.3196   13.0726 C   0  0  0  0  0  0  0  0  0  0  0  0
    2.6489    3.2118   11.9971 C   0  0  0  0  0  0  0  0  0  0  0  0
    1.4715    2.4753   12.1677 C   0  0  0  0  0  0  0  0  0  0  0  0
    1.1715    1.8759   13.3681 C   0  0  0  0  0  0  0  0  0  0  0  0
    2.0216    1.9818   14.4416 C   0  0  0  0  0  0  0  0  0  0  0  0
    1.9990    1.5100   15.7304 N   0  0  0  0  0  0  0  0  0  0  0  0
    1.1823    0.9328   16.0316 H   0  0  0  0  0  0  0  0  0  0  0  0
    4.2222    2.5577   18.4650 C   0  0  0  0  0  0  0  0  0  0  0  0
    3.4547    1.6400   17.7465 C   0  0  0  0  0  0  0  0  0  0  0  0
    3.0773    0.5151   18.4391 C   0  0  0  0  0  0  0  0  0  0  0  0
    2.3821   -0.3793   17.8853 O   0  0  0  0  0  0  0  0  0  0  0  0
    3.4099    0.2808   19.7331 N   0  0  0  0  0  0  0  0  0  0  0  0
    4.1392    1.1607   20.4055 C   0  0  0  0  0  0  0  0  0  0  0  0
    4.4658    0.8964   21.7300 C   0  0  0  0  0  0  0  0  0  0  0  0
    5.2242    1.8067   22.4365 C   0  0  0  0  0  0  0  0  0  0  0  0
    5.6320    2.9416   21.8127 C   0  0  0  0  0  0  0  0  0  0  0  0
    5.3137    3.2112   20.5029 C   0  0  0  0  0  0  0  0  0  0  0  0
    4.5592    2.3130   19.7884 C   0  0  0  0  0  0  0  0  0  0  0  0
    3.0834   -0.5967   20.1833 H   0  0  0  0  0  0  0  0  0  0  0  0
    4.0041    5.0335   17.9856 C   0  0  0  0  0  0  0  0  0  0  0  0
    4.6953    3.7570   17.8652 N   0  0  0  0  0  0  0  0  0  0  0  0
    5.5747    3.7121   17.3181 H   0  0  0  0  0  0  0  0  0  0  0  0
    2.9305    3.8021   10.7432 N   0  0  0  0  0  0  0  0  0  0  0  0
    4.0381    3.3457    9.9444 C   0  0  0  0  0  0  0  0  0  0  0  0
    4.9615    4.5404    9.7124 C   0  0  0  0  0  0  0  0  0  0  0  0
    4.1792    5.5497    9.1191 O   0  0  0  0  0  0  0  0  0  0  0  0
    3.1864    6.0181    9.9422 C   0  0  0  0  0  0  0  0  0  0  0  0
    2.1572    4.9002   10.1799 C   0  0  0  0  0  0  0  0  0  0  0  0
 23 24  1  0  0  0
 24 11  1  0  0  0
 11 12  2  0  0  0
 12  1  1  0  0  0
  1  2  2  0  0  0
  2  3  1  0  0  0
  3  4  2  0  0  0
  4  5  1  0  0  0
  5  6  2  0  0  0
  6  7  1  0  0  0
  7  8  2  0  0  0
  8  9  1  0  0  0
  5 26  1  0  0  0
 26 27  1  0  0  0
 27 28  1  0  0  0
 28 29  1  0  0  0
 29 30  1  0  0  0
 30 31  1  0  0  0
 12 13  1  0  0  0
 13 14  2  0  0  0
 13 15  1  0  0  0
 15 16  1  0  0  0
 16 17  2  0  0  0
 17 18  1  0  0  0
 18 19  2  0  0  0
 19 20  1  0  0  0
 20 21  2  0  0  0
 21 11  1  0  0  0
  9  1  1  0  0  0
 31 26  1  0  0  0
 21 16  1  0  0  0
  8  3  1  0  0  0
 24 25  1  0  0  0
  9 10  1  0  0  0
 15 22  1  0  0  0
M  END
> <minimizedAffinity>
-8.19640

> <CNNscore>
0.9607546926

> <CNNaffinity>
7.1311554909

> <CNN_VS>
6.8512911797

> <CNNaffinity_variance>
0.2263889313

$$$$
[H]c1c([H])c([H])c2c(c1[H])c(N([H])C([H])([H])[H])c(-c1nc3c([H])c(N4C([H])([H])C([H])([H])OC([H])([H])C4([H])[H])c([H])c([H])c3n1[H])c(=O)n2[H]


 31 35  0  0  0  0  0  0  0  0999 V2000
    2.8549    2.1450   15.6588 C   0  0  0  0  0  0  0  0  0  0  0  0
    2.0755    3.1931   15.3050 N   0  0  0  0  0  0  0  0  0  0  0  0
    1.8882    3.2387   13.9782 C   0  0  0  0  0  0  0  0  0  0  0  0
    1.1792    4.1081   13.1516 C   0  0  0  0  0  0  0  0  0  0  0  0
    1.1673    3.8991   11.7899 C   0  0  0  0  0  0  0  0  0  0  0  0
    1.8800    2.8039   11.2894 C   0  0  0  0  0  0  0  0  0  0  0  0
    2.5721    1.9597   12.1253 C   0  0  0  0  0  0  0  0  0  0  0  0
    2.5856    2.1660   13.4831 C   0  0  0  0  0  0  0  0  0  0  0  0
    3.1667    1.5171   14.5439 N   0  0  0  0  0  0  0  0  0  0  0  0
    3.7430    0.6681   14.3489 H   0  0  0  0  0  0  0  0  0  0  0  0
    4.0321    2.6567   17.7815 C   0  0  0  0  0  0  0  0  0  0  0  0
    3.2563    1.7832   17.0182 C   0  0  0  0  0  0  0  0  0  0  0  0
    2.9032    0.6098   17.6396 C   0  0  0  0  0  0  0  0  0  0  0  0
    2.2032   -0.2510   17.0405 O   0  0  0  0  0  0  0  0  0  0  0  0
    3.2660    0.2906   18.9070 N   0  0  0  0  0  0  0  0  0  0  0  0
    4.0028    1.1291   19.6226 C   0  0  0  0  0  0  0  0  0  0  0  0
    4.3604    0.7778   20.9186 C   0  0  0  0  0  0  0  0  0  0  0  0
    5.1269    1.6446   21.6697 C   0  0  0  0  0  0  0  0  0  0  0  0
    5.5118    2.8234   21.1168 C   0  0  0  0  0  0  0  0  0  0  0  0
    5.1628    3.1792   19.8357 C   0  0  0  0  0  0  0  0  0  0  0  0
    4.3999    2.3250   19.0774 C   0  0  0  0  0  0  0  0  0  0  0  0
    2.9564   -0.6188   19.3026 H   0  0  0  0  0  0  0  0  0  0  0  0
    3.7980    5.1612   17.4994 C   0  0  0  0  0  0  0  0  0  0  0  0
    4.4823    3.8986   17.2556 N   0  0  0  0  0  0  0  0  0  0  0  0
    5.3391    3.8968   16.6721 H   0  0  0  0  0  0  0  0  0  0  0  0
    0.4791    4.7538   10.8978 N   0  0  0  0  0  0  0  0  0  0  0  0
   -0.0579    6.0120   11.3472 C   0  0  0  0  0  0  0  0  0  0  0  0
   -1.5619    5.9921   11.0804 C   0  0  0  0  0  0  0  0  0  0  0  0
   -1.7277    5.7340    9.7061 O   0  0  0  0  0  0  0  0  0  0  0  0
   -1.2805    4.4921    9.3316 C   0  0  0  0  0  0  0  0  0  0  0  0
    0.2476    4.4342    9.4959 C   0  0  0  0  0  0  0  0  0  0  0  0
 23 24  1  0  0  0
 24 11  1  0  0  0
 11 12  2  0  0  0
 12  1  1  0  0  0
  1  2  2  0  0  0
  2  3  1  0  0  0
  3  4  2  0  0  0
  4  5  1  0  0  0
  5  6  2  0  0  0
  6  7  1  0  0  0
  7  8  2  0  0  0
  8  9  1  0  0  0
  5 26  1  0  0  0
 26 27  1  0  0  0
 27 28  1  0  0  0
 28 29  1  0  0  0
 29 30  1  0  0  0
 30 31  1  0  0  0
 12 13  1  0  0  0
 13 14  2  0  0  0
 13 15  1  0  0  0
 15 16  1  0  0  0
 16 17  2  0  0  0
 17 18  1  0  0  0
 18 19  2  0  0  0
 19 20  1  0  0  0
 20 21  2  0  0  0
 21 11  1  0  0  0
  9  1  1  0  0  0
 31 26  1  0  0  0
 21 16  1  0  0  0
  8  3  1  0  0  0
 24 25  1  0  0  0
  9 10  1  0  0  0
 15 22  1  0  0  0
M  END
> <minimizedAffinity>
-7.76444

> <CNNscore>
0.8205568194

> <CNNaffinity>
6.6780295372

> <CNN_VS>
5.4797024727

> <CNNaffinity_variance>
0.3001113534

$$$$
[H]c1c([H])c([H])c2c(c1[H])c(N([H])C([H])([H])[H])c(-c1nc3c([H])c(N4C([H])([H])C([H])([H])OC([H])([H])C4([H])[H])c([H])c([H])c3n1[H])c(=O)n2[H]


 31 35  0  0  0  0  0  0  0  0999 V2000
    3.6123    2.4804   17.2825 C   0  0  0  0  0  0  0  0  0  0  0  0
    4.1392    3.4669   16.5208 N   0  0  0  0  0  0  0  0  0  0  0  0
    3.7582    3.3541   15.2404 C   0  0  0  0  0  0  0  0  0  0  0  0
    4.0310    4.1093   14.1014 C   0  0  0  0  0  0  0  0  0  0  0  0
    3.4848    3.7421   12.8910 C   0  0  0  0  0  0  0  0  0  0  0  0
    2.6663    2.6078   12.8592 C   0  0  0  0  0  0  0  0  0  0  0  0
    2.4115    1.8787   13.9967 C   0  0  0  0  0  0  0  0  0  0  0  0
    2.9548    2.2425   15.2045 C   0  0  0  0  0  0  0  0  0  0  0  0
    2.8879    1.7316   16.4767 N   0  0  0  0  0  0  0  0  0  0  0  0
    2.3133    0.8741   16.6358 H   0  0  0  0  0  0  0  0  0  0  0  0
    4.1264    3.3864   19.5337 C   0  0  0  0  0  0  0  0  0  0  0  0
    3.8066    2.2981   18.7208 C   0  0  0  0  0  0  0  0  0  0  0  0
    3.6782    1.0938   19.3695 C   0  0  0  0  0  0  0  0  0  0  0  0
    3.3915    0.0453   18.7304 O   0  0  0  0  0  0  0  0  0  0  0  0
    3.8435    0.9377   20.7067 N   0  0  0  0  0  0  0  0  0  0  0  0
    4.1467    1.9796   21.4688 C   0  0  0  0  0  0  0  0  0  0  0  0
    4.3102    1.7922   22.8359 C   0  0  0  0  0  0  0  0  0  0  0  0
    4.6258    2.8710   23.6357 C   0  0  0  0  0  0  0  0  0  0  0  0
    4.7680    4.0922   23.0596 C   0  0  0  0  0  0  0  0  0  0  0  0
    4.6081    4.2868   21.7082 C   0  0  0  0  0  0  0  0  0  0  0  0
    4.2939    3.2209   20.9009 C   0  0  0  0  0  0  0  0  0  0  0  0
    3.7284   -0.0091   21.1185 H   0  0  0  0  0  0  0  0  0  0  0  0
    3.2654    5.7070   19.0041 C   0  0  0  0  0  0  0  0  0  0  0  0
    4.3063    4.6881   18.9907 N   0  0  0  0  0  0  0  0  0  0  0  0
    5.2249    4.9147   18.5670 H   0  0  0  0  0  0  0  0  0  0  0  0
    3.7357    4.4585   11.6978 N   0  0  0  0  0  0  0  0  0  0  0  0
    5.0831    4.7349   11.2719 C   0  0  0  0  0  0  0  0  0  0  0  0
    5.2288    6.2515   11.1605 C   0  0  0  0  0  0  0  0  0  0  0  0
    4.2256    6.6924   10.2761 O   0  0  0  0  0  0  0  0  0  0  0  0
    2.9559    6.4881   10.7540 C   0  0  0  0  0  0  0  0  0  0  0  0
    2.6831    4.9766   10.8349 C   0  0  0  0  0  0  0  0  0  0  0  0
 23 24  1  0  0  0
 24 11  1  0  0  0
 11 12  2  0  0  0
 12  1  1  0  0  0
  1  2  2  0  0  0
  2  3  1  0  0  0
  3  4  2  0  0  0
  4  5  1  0  0  0
  5  6  2  0  0  0
  6  7  1  0  0  0
  7  8  2  0  0  0
  8  9  1  0  0  0
  5 26  1  0  0  0
 26 27  1  0  0  0
 27 28  1  0  0  0
 28 29  1  0  0  0
 29 30  1  0  0  0
 30 31  1  0  0  0
 12 13  1  0  0  0
 13 14  2  0  0  0
 13 15  1  0  0  0
 15 16  1  0  0  0
 16 17  2  0  0  0
 17 18  1  0  0  0
 18 19  2  0  0  0
 19 20  1  0  0  0
 20 21  2  0  0  0
 21 11  1  0  0  0
  9  1  1  0  0  0
 31 26  1  0  0  0
 21 16  1  0  0  0
  8  3  1  0  0  0
 24 25  1  0  0  0
  9 10  1  0  0  0
 15 22  1  0  0  0
M  END
> <minimizedAffinity>
-8.11335

> <CNNscore>
0.6684085131

> <CNNaffinity>
6.6753869057

> <CNN_VS>
4.4618854523

> <CNNaffinity_variance>
0.2240871489

$$$$
[H]c1c([H])c([H])c2c(c1[H])c(N([H])C([H])([H])[H])c(-c1nc3c([H])c(N4C([H])([H])C([H])([H])OC([H])([H])C4([H])[H])c([H])c([H])c3n1[H])c(=O)n2[H]


 31 35  0  0  0  0  0  0  0  0999 V2000
    3.4720    2.6574   16.9080 C   0  0  0  0  0  0  0  0  0  0  0  0
    2.8916    3.7968   16.4654 N   0  0  0  0  0  0  0  0  0  0  0  0
    2.5432    3.7000   15.1744 C   0  0  0  0  0  0  0  0  0  0  0  0
    1.9303    4.5856   14.2902 C   0  0  0  0  0  0  0  0  0  0  0  0
    1.6935    4.1985   12.9894 C   0  0  0  0  0  0  0  0  0  0  0  0
    2.0858    2.9107   12.6079 C   0  0  0  0  0  0  0  0  0  0  0  0
    2.6889    2.0544   13.4987 C   0  0  0  0  0  0  0  0  0  0  0  0
    2.9262    2.4381   14.7960 C   0  0  0  0  0  0  0  0  0  0  0  0
    3.4930    1.8266   15.8863 N   0  0  0  0  0  0  0  0  0  0  0  0
    3.8458    0.8495   15.7777 H   0  0  0  0  0  0  0  0  0  0  0  0
    4.6554    3.3978   18.9585 C   0  0  0  0  0  0  0  0  0  0  0  0
    3.9651    2.4050   18.2619 C   0  0  0  0  0  0  0  0  0  0  0  0
    3.7824    1.2249   18.9413 C   0  0  0  0  0  0  0  0  0  0  0  0
    3.1718    0.2609   18.4050 O   0  0  0  0  0  0  0  0  0  0  0  0
    4.2286    1.0062   20.2034 N   0  0  0  0  0  0  0  0  0  0  0  0
    4.8828    1.9576   20.8554 C   0  0  0  0  0  0  0  0  0  0  0  0
    5.3288    1.7076   22.1474 C   0  0  0  0  0  0  0  0  0  0  0  0
    6.0103    2.6921   22.8324 C   0  0  0  0  0  0  0  0  0  0  0  0
    6.2264    3.8844   22.2200 C   0  0  0  0  0  0  0  0  0  0  0  0
    5.7888    4.1405   20.9422 C   0  0  0  0  0  0  0  0  0  0  0  0
    5.1092    3.1686   20.2493 C   0  0  0  0  0  0  0  0  0  0  0  0
    4.0482    0.0836   20.6456 H   0  0  0  0  0  0  0  0  0  0  0  0
    6.1019    4.9169   17.5416 C   0  0  0  0  0  0  0  0  0  0  0  0
    4.9296    4.6618   18.3679 N   0  0  0  0  0  0  0  0  0  0  0  0
    4.2583    5.4332   18.5382 H   0  0  0  0  0  0  0  0  0  0  0  0
    1.0889    5.0562   12.0414 N   0  0  0  0  0  0  0  0  0  0  0  0
    1.8617    5.6416   10.9768 C   0  0  0  0  0  0  0  0  0  0  0  0
    1.7417    7.1594   11.1017 C   0  0  0  0  0  0  0  0  0  0  0  0
    0.3668    7.4623   11.0718 O   0  0  0  0  0  0  0  0  0  0  0  0
   -0.3212    6.9584   12.1465 C   0  0  0  0  0  0  0  0  0  0  0  0
   -0.3204    5.4221   12.0722 C   0  0  0  0  0  0  0  0  0  0  0  0
 23 24  1  0  0  0
 24 11  1  0  0  0
 11 12  2  0  0  0
 12  1  1  0  0  0
  1  2  2  0  0  0
  2  3  1  0  0  0
  3  4  2  0  0  0
  4  5  1  0  0  0
  5  6  2  0  0  0
  6  7  1  0  0  0
  7  8  2  0  0  0
  8  9  1  0  0  0
  5 26  1  0  0  0
 26 27  1  0  0  0
 27 28  1  0  0  0
 28 29  1  0  0  0
 29 30  1  0  0  0
 30 31  1  0  0  0
 12 13  1  0  0  0
 13 14  2  0  0  0
 13 15  1  0  0  0
 15 16  1  0  0  0
 16 17  2  0  0  0
 17 18  1  0  0  0
 18 19  2  0  0  0
 19 20  1  0  0  0
 20 21  2  0  0  0
 21 11  1  0  0  0
  9  1  1  0  0  0
 31 26  1  0  0  0
 21 16  1  0  0  0
  8  3  1  0  0  0
 24 25  1  0  0  0
  9 10  1  0  0  0
 15 22  1  0  0  0
M  END
> <minimizedAffinity>
-8.34646

> <CNNscore>
0.5547155738

> <CNNaffinity>
6.4678359032

> <CNN_VS>
3.5878093243

> <CNNaffinity_variance>
0.2988295257

$$$$
[H]c1c([H])c([H])c2c(c1[H])c(N([H])C([H])([H])[H])c(-c1nc3c([H])c(N4C([H])([H])C([H])([H])OC([H])([H])C4([H])[H])c([H])c([H])c3n1[H])c(=O)n2[H]


 31 35  0  0  0  0  0  0  0  0999 V2000
    2.4855    4.2331   12.6112 C   0  0  0  0  0  0  0  0  0  0  0  0
    3.4822    4.5679   11.7593 N   0  0  0  0  0  0  0  0  0  0  0  0
    3.0776    5.4837   10.8675 C   0  0  0  0  0  0  0  0  0  0  0  0
    3.7224    6.1279    9.8133 C   0  0  0  0  0  0  0  0  0  0  0  0
    3.0342    7.0451    9.0495 C   0  0  0  0  0  0  0  0  0  0  0  0
    1.6956    7.2930    9.3724 C   0  0  0  0  0  0  0  0  0  0  0  0
    1.0810    6.6448   10.4177 C   0  0  0  0  0  0  0  0  0  0  0  0
    1.7648    5.7299   11.1805 C   0  0  0  0  0  0  0  0  0  0  0  0
    1.4352    4.9442   12.2566 N   0  0  0  0  0  0  0  0  0  0  0  0
    0.4625    5.0029   12.6325 H   0  0  0  0  0  0  0  0  0  0  0  0
    3.4317    3.5125   14.7880 C   0  0  0  0  0  0  0  0  0  0  0  0
    2.5727    3.2759   13.7139 C   0  0  0  0  0  0  0  0  0  0  0  0
    1.8340    2.1201   13.7917 C   0  0  0  0  0  0  0  0  0  0  0  0
    1.0265    1.8089   12.8746 O   0  0  0  0  0  0  0  0  0  0  0  0
    1.9092    1.2470   14.8269 N   0  0  0  0  0  0  0  0  0  0  0  0
    2.7287    1.4830   15.8422 C   0  0  0  0  0  0  0  0  0  0  0  0
    2.7863    0.5725   16.8902 C   0  0  0  0  0  0  0  0  0  0  0  0
    3.6364    0.8106   17.9502 C   0  0  0  0  0  0  0  0  0  0  0  0
    4.3968    1.9354   17.9382 C   0  0  0  0  0  0  0  0  0  0  0  0
    4.3464    2.8416   16.9057 C   0  0  0  0  0  0  0  0  0  0  0  0
    3.5042    2.6160   15.8444 C   0  0  0  0  0  0  0  0  0  0  0  0
    1.3150    0.3949   14.8077 H   0  0  0  0  0  0  0  0  0  0  0  0
    3.8095    5.9628   15.2984 C   0  0  0  0  0  0  0  0  0  0  0  0
    4.2672    4.6623   14.8282 N   0  0  0  0  0  0  0  0  0  0  0  0
    5.2473    4.5618   14.5057 H   0  0  0  0  0  0  0  0  0  0  0  0
    3.6282    7.7205    7.9582 N   0  0  0  0  0  0  0  0  0  0  0  0
    4.3280    6.9925    6.9318 C   0  0  0  0  0  0  0  0  0  0  0  0
    5.7606    7.5211    6.8878 C   0  0  0  0  0  0  0  0  0  0  0  0
    5.6749    8.9105    6.6752 O   0  0  0  0  0  0  0  0  0  0  0  0
    5.0771    9.5802    7.7128 C   0  0  0  0  0  0  0  0  0  0  0  0
    3.5978    9.1674    7.7956 C   0  0  0  0  0  0  0  0  0  0  0  0
 23 24  1  0  0  0
 24 11  1  0  0  0
 11 12  2  0  0  0
 12  1  1  0  0  0
  1  2  2  0  0  0
  2  3  1  0  0  0
  3  4  2  0  0  0
  4  5  1  0  0  0
  5  6  2  0  0  0
  6  7  1  0  0  0
  7  8  2  0  0  0
  8  9  1  0  0  0
  5 26  1  0  0  0
 26 27  1  0  0  0
 27 28  1  0  0  0
 28 29  1  0  0  0
 29 30  1  0  0  0
 30 31  1  0  0  0
 12 13  1  0  0  0
 13 14  2  0  0  0
 13 15  1  0  0  0
 15 16  1  0  0  0
 16 17  2  0  0  0
 17 18  1  0  0  0
 18 19  2  0  0  0
 19 20  1  0  0  0
 20 21  2  0  0  0
 21 11  1  0  0  0
  9  1  1  0  0  0
 31 26  1  0  0  0
 21 16  1  0  0  0
  8  3  1  0  0  0
 24 25  1  0  0  0
  9 10  1  0  0  0
 15 22  1  0  0  0
M  END
> <minimizedAffinity>
-7.24068

> <CNNscore>
0.2313386947

> <CNNaffinity>
5.5053353310

> <CNN_VS>
1.2735971212

> <CNNaffinity_variance>
0.1118317991

$$$$
[H]c1c([H])c([H])c2c(c1[H])c(N([H])C([H])([H])[H])c(-c1nc3c([H])c(N4C([H])([H])C([H])([H])OC([H])([H])C4([H])[H])c([H])c([H])c3n1[H])c(=O)n2[H]


 31 35  0  0  0  0  0  0  0  0999 V2000
    4.5328    7.1173   16.6464 C   0  0  0  0  0  0  0  0  0  0  0  0
    3.5488    7.6217   15.8664 N   0  0  0  0  0  0  0  0  0  0  0  0
    3.0970    6.7080   14.9954 C   0  0  0  0  0  0  0  0  0  0  0  0
    2.1143    6.7460   14.0081 C   0  0  0  0  0  0  0  0  0  0  0  0
    1.8641    5.6236   13.2493 C   0  0  0  0  0  0  0  0  0  0  0  0
    2.6210    4.4758   13.5089 C   0  0  0  0  0  0  0  0  0  0  0  0
    3.5854    4.4626   14.4888 C   0  0  0  0  0  0  0  0  0  0  0  0
    3.8368    5.5802   15.2465 C   0  0  0  0  0  0  0  0  0  0  0  0
    4.7086    5.8685   16.2667 N   0  0  0  0  0  0  0  0  0  0  0  0
    5.3568    5.1163   16.5908 H   0  0  0  0  0  0  0  0  0  0  0  0
    4.7324    7.8576   19.0055 C   0  0  0  0  0  0  0  0  0  0  0  0
    5.2464    7.8263   17.7085 C   0  0  0  0  0  0  0  0  0  0  0  0
    6.4424    8.4788   17.5311 C   0  0  0  0  0  0  0  0  0  0  0  0
    6.9957    8.5128   16.3985 O   0  0  0  0  0  0  0  0  0  0  0  0
    7.1053    9.1191   18.5262 N   0  0  0  0  0  0  0  0  0  0  0  0
    6.6071    9.1414   19.7548 C   0  0  0  0  0  0  0  0  0  0  0  0
    7.3065    9.8041   20.7559 C   0  0  0  0  0  0  0  0  0  0  0  0
    6.7950    9.8321   22.0368 C   0  0  0  0  0  0  0  0  0  0  0  0
    5.6152    9.2068   22.2831 C   0  0  0  0  0  0  0  0  0  0  0  0
    4.9165    8.5488   21.2989 C   0  0  0  0  0  0  0  0  0  0  0  0
    5.4150    8.5137   20.0195 C   0  0  0  0  0  0  0  0  0  0  0  0
    8.0058    9.5886   18.3070 H   0  0  0  0  0  0  0  0  0  0  0  0
    3.3589    5.8079   19.5708 C   0  0  0  0  0  0  0  0  0  0  0  0
    3.4936    7.2375   19.3258 N   0  0  0  0  0  0  0  0  0  0  0  0
    2.6511    7.8384   19.3859 H   0  0  0  0  0  0  0  0  0  0  0  0
    0.8908    5.6037   12.2235 N   0  0  0  0  0  0  0  0  0  0  0  0
   -0.4971    5.8495   12.5177 C   0  0  0  0  0  0  0  0  0  0  0  0
   -1.2876    4.6224   12.0671 C   0  0  0  0  0  0  0  0  0  0  0  0
   -0.9961    4.4294   10.7031 O   0  0  0  0  0  0  0  0  0  0  0  0
    0.3189    4.1142   10.4707 C   0  0  0  0  0  0  0  0  0  0  0  0
    1.1994    5.3235   10.8280 C   0  0  0  0  0  0  0  0  0  0  0  0
 23 24  1  0  0  0
 24 11  1  0  0  0
 11 12  2  0  0  0
 12  1  1  0  0  0
  1  2  2  0  0  0
  2  3  1  0  0  0
  3  4  2  0  0  0
  4  5  1  0  0  0
  5  6  2  0  0  0
  6  7  1  0  0  0
  7  8  2  0  0  0
  8  9  1  0  0  0
  5 26  1  0  0  0
 26 27  1  0  0  0
 27 28  1  0  0  0
 28 29  1  0  0  0
 29 30  1  0  0  0
 30 31  1  0  0  0
 12 13  1  0  0  0
 13 14  2  0  0  0
 13 15  1  0  0  0
 15 16  1  0  0  0
 16 17  2  0  0  0
 17 18  1  0  0  0
 18 19  2  0  0  0
 19 20  1  0  0  0
 20 21  2  0  0  0
 21 11  1  0  0  0
  9  1  1  0  0  0
 31 26  1  0  0  0
 21 16  1  0  0  0
  8  3  1  0  0  0
 24 25  1  0  0  0
  9 10  1  0  0  0
 15 22  1  0  0  0
M  END
> <minimizedAffinity>
-6.97915

> <CNNscore>
0.2112025470

> <CNNaffinity>
5.3864603043

> <CNN_VS>
1.1376341581

> <CNNaffinity_variance>
0.2726308405

$$$$
[H]c1c([H])c([H])c2c(c1[H])c(N([H])C([H])([H])[H])c(-c1nc3c([H])c(N4C([H])([H])C([H])([H])OC([H])([H])C4([H])[H])c([H])c([H])c3n1[H])c(=O)n2[H]


 31 35  0  0  0  0  0  0  0  0999 V2000
    2.7983    3.6426   16.0004 C   0  0  0  0  0  0  0  0  0  0  0  0
    2.8413    4.3333   17.1632 N   0  0  0  0  0  0  0  0  0  0  0  0
    3.5063    3.6569   18.1107 C   0  0  0  0  0  0  0  0  0  0  0  0
    3.8116    3.9428   19.4400 C   0  0  0  0  0  0  0  0  0  0  0  0
    4.5270    3.0332   20.1877 C   0  0  0  0  0  0  0  0  0  0  0  0
    4.9219    1.8426   19.5678 C   0  0  0  0  0  0  0  0  0  0  0  0
    4.6088    1.5831   18.2544 C   0  0  0  0  0  0  0  0  0  0  0  0
    3.8956    2.4881   17.5070 C   0  0  0  0  0  0  0  0  0  0  0  0
    3.4434    2.5139   16.2113 N   0  0  0  0  0  0  0  0  0  0  0  0
    3.6511    1.6940   15.5984 H   0  0  0  0  0  0  0  0  0  0  0  0
    2.0964    5.4364   14.4374 C   0  0  0  0  0  0  0  0  0  0  0  0
    2.1663    4.0794   14.7556 C   0  0  0  0  0  0  0  0  0  0  0  0
    1.6267    3.2257   13.8241 C   0  0  0  0  0  0  0  0  0  0  0  0
    1.6363    1.9788   14.0114 O   0  0  0  0  0  0  0  0  0  0  0  0
    1.0579    3.6393   12.6643 N   0  0  0  0  0  0  0  0  0  0  0  0
    0.9979    4.9314   12.3728 C   0  0  0  0  0  0  0  0  0  0  0  0
    0.4102    5.3282   11.1779 C   0  0  0  0  0  0  0  0  0  0  0  0
    0.3437    6.6706   10.8672 C   0  0  0  0  0  0  0  0  0  0  0  0
    0.8582    7.5706   11.7440 C   0  0  0  0  0  0  0  0  0  0  0  0
    1.4414    7.1871   12.9284 C   0  0  0  0  0  0  0  0  0  0  0  0
    1.5137    5.8536   13.2495 C   0  0  0  0  0  0  0  0  0  0  0  0
    0.6727    2.9270   12.0134 H   0  0  0  0  0  0  0  0  0  0  0  0
    3.9330    7.0056   15.1934 C   0  0  0  0  0  0  0  0  0  0  0  0
    2.6007    6.4304   15.3202 N   0  0  0  0  0  0  0  0  0  0  0  0
    1.9846    6.7558   16.0877 H   0  0  0  0  0  0  0  0  0  0  0  0
    4.8551    3.2587   21.5447 N   0  0  0  0  0  0  0  0  0  0  0  0
    5.5210    2.2455   22.3215 C   0  0  0  0  0  0  0  0  0  0  0  0
    4.6273    1.9206   23.5171 C   0  0  0  0  0  0  0  0  0  0  0  0
    4.3993    3.1332   24.1957 O   0  0  0  0  0  0  0  0  0  0  0  0
    3.6890    4.0427   23.4535 C   0  0  0  0  0  0  0  0  0  0  0  0
    4.5402    4.4913   22.2537 C   0  0  0  0  0  0  0  0  0  0  0  0
 23 24  1  0  0  0
 24 11  1  0  0  0
 11 12  2  0  0  0
 12  1  1  0  0  0
  1  2  2  0  0  0
  2  3  1  0  0  0
  3  4  2  0  0  0
  4  5  1  0  0  0
  5  6  2  0  0  0
  6  7  1  0  0  0
  7  8  2  0  0  0
  8  9  1  0  0  0
  5 26  1  0  0  0
 26 27  1  0  0  0
 27 28  1  0  0  0
 28 29  1  0  0  0
 29 30  1  0  0  0
 30 31  1  0  0  0
 12 13  1  0  0  0
 13 14  2  0  0  0
 13 15  1  0  0  0
 15 16  1  0  0  0
 16 17  2  0  0  0
 17 18  1  0  0  0
 18 19  2  0  0  0
 19 20  1  0  0  0
 20 21  2  0  0  0
 21 11  1  0  0  0
  9  1  1  0  0  0
 31 26  1  0  0  0
 21 16  1  0  0  0
  8  3  1  0  0  0
 24 25  1  0  0  0
  9 10  1  0  0  0
 15 22  1  0  0  0
M  END
> <minimizedAffinity>
-7.98251

> <CNNscore>
0.1919060200

> <CNNaffinity>
5.9959974289

> <CNN_VS>
1.1506680250

> <CNNaffinity_variance>
0.2931603789

$$$$
[H]c1c([H])c([H])c2c(c1[H])c(N([H])C([H])([H])[H])c(-c1nc3c([H])c(N4C([H])([H])C([H])([H])OC([H])([H])C4([H])[H])c([H])c([H])c3n1[H])c(=O)n2[H]


 31 35  0  0  0  0  0  0  0  0999 V2000
    3.5163    4.0489   16.8003 C   0  0  0  0  0  0  0  0  0  0  0  0
    4.2713    4.6362   15.8431 N   0  0  0  0  0  0  0  0  0  0  0  0
    3.5131    5.3064   14.9636 C   0  0  0  0  0  0  0  0  0  0  0  0
    3.8178    6.0558   13.8290 C   0  0  0  0  0  0  0  0  0  0  0  0
    2.8032    6.6425   13.1046 C   0  0  0  0  0  0  0  0  0  0  0  0
    1.4895    6.4564   13.5488 C   0  0  0  0  0  0  0  0  0  0  0  0
    1.2138    5.7126   14.6719 C   0  0  0  0  0  0  0  0  0  0  0  0
    2.2234    5.1267   15.3955 C   0  0  0  0  0  0  0  0  0  0  0  0
    2.2637    4.3492   16.5260 N   0  0  0  0  0  0  0  0  0  0  0  0
    1.3612    4.1089   16.9936 H   0  0  0  0  0  0  0  0  0  0  0  0
    4.6328    3.8642   19.0078 C   0  0  0  0  0  0  0  0  0  0  0  0
    4.0075    3.2490   17.9223 C   0  0  0  0  0  0  0  0  0  0  0  0
    3.8839    1.8834   18.0080 C   0  0  0  0  0  0  0  0  0  0  0  0
    3.3347    1.2272   17.0819 O   0  0  0  0  0  0  0  0  0  0  0  0
    4.3273    1.1520   19.0607 N   0  0  0  0  0  0  0  0  0  0  0  0
    4.9193    1.7480   20.0865 C   0  0  0  0  0  0  0  0  0  0  0  0
    5.3640    0.9754   21.1524 C   0  0  0  0  0  0  0  0  0  0  0  0
    5.9811    1.5877   22.2235 C   0  0  0  0  0  0  0  0  0  0  0  0
    6.1367    2.9364   22.2046 C   0  0  0  0  0  0  0  0  0  0  0  0
    5.6999    3.7086   21.1545 C   0  0  0  0  0  0  0  0  0  0  0  0
    5.0840    3.1111   20.0820 C   0  0  0  0  0  0  0  0  0  0  0  0
    4.1941    0.1218   19.0464 H   0  0  0  0  0  0  0  0  0  0  0  0
    3.8241    6.2160   19.4792 C   0  0  0  0  0  0  0  0  0  0  0  0
    4.8420    5.2702   19.0419 N   0  0  0  0  0  0  0  0  0  0  0  0
    5.7656    5.6311   18.7397 H   0  0  0  0  0  0  0  0  0  0  0  0
    3.0468    7.4021   11.9369 N   0  0  0  0  0  0  0  0  0  0  0  0
    1.9645    8.0344   11.2283 C   0  0  0  0  0  0  0  0  0  0  0  0
    1.9695    7.4913    9.8005 C   0  0  0  0  0  0  0  0  0  0  0  0
    3.2506    7.7444    9.2737 O   0  0  0  0  0  0  0  0  0  0  0  0
    4.2467    7.0586    9.9219 C   0  0  0  0  0  0  0  0  0  0  0  0
    4.3713    7.5878   11.3606 C   0  0  0  0  0  0  0  0  0  0  0  0
 23 24  1  0  0  0
 24 11  1  0  0  0
 11 12  2  0  0  0
 12  1  1  0  0  0
  1  2  2  0  0  0
  2  3  1  0  0  0
  3  4  2  0  0  0
  4  5  1  0  0  0
  5  6  2  0  0  0
  6  7  1  0  0  0
  7  8  2  0  0  0
  8  9  1  0  0  0
  5 26  1  0  0  0
 26 27  1  0  0  0
 27 28  1  0  0  0
 28 29  1  0  0  0
 29 30  1  0  0  0
 30 31  1  0  0  0
 12 13  1  0  0  0
 13 14  2  0  0  0
 13 15  1  0  0  0
 15 16  1  0  0  0
 16 17  2  0  0  0
 17 18  1  0  0  0
 18 19  2  0  0  0
 19 20  1  0  0  0
 20 21  2  0  0  0
 21 11  1  0  0  0
  9  1  1  0  0  0
 31 26  1  0  0  0
 21 16  1  0  0  0
  8  3  1  0  0  0
 24 25  1  0  0  0
  9 10  1  0  0  0
 15 22  1  0  0  0
M  END
> <minimizedAffinity>
-7.86220

> <CNNscore>
0.1767818928

> <CNNaffinity>
5.9414496422

> <CNN_VS>
1.0503407717

> <CNNaffinity_variance>
0.2938880920

$$$$
[H]c1c([H])c([H])c2c(c1[H])c(N([H])C([H])([H])[H])c(-c1nc3c([H])c(N4C([H])([H])C([H])([H])OC([H])([H])C4([H])[H])c([H])c([H])c3n1[H])c(=O)n2[H]


 31 35  0  0  0  0  0  0  0  0999 V2000
    3.7959    8.1105   15.1238 C   0  0  0  0  0  0  0  0  0  0  0  0
    4.1313    7.1698   16.0369 N   0  0  0  0  0  0  0  0  0  0  0  0
    4.2515    7.6979   17.2633 C   0  0  0  0  0  0  0  0  0  0  0  0
    4.5726    7.1489   18.5031 C   0  0  0  0  0  0  0  0  0  0  0  0
    4.6214    7.9582   19.6171 C   0  0  0  0  0  0  0  0  0  0  0  0
    4.3411    9.3189   19.4504 C   0  0  0  0  0  0  0  0  0  0  0  0
    4.0265    9.8375   18.2165 C   0  0  0  0  0  0  0  0  0  0  0  0
    3.9774    9.0328   17.1045 C   0  0  0  0  0  0  0  0  0  0  0  0
    3.7019    9.2500   15.7775 N   0  0  0  0  0  0  0  0  0  0  0  0
    3.4699   10.2218   15.4731 H   0  0  0  0  0  0  0  0  0  0  0  0
    2.3578    7.3748   13.2413 C   0  0  0  0  0  0  0  0  0  0  0  0
    3.5724    7.8910   13.6950 C   0  0  0  0  0  0  0  0  0  0  0  0
    4.4937    8.1793   12.7174 C   0  0  0  0  0  0  0  0  0  0  0  0
    5.6245    8.6499   13.0168 O   0  0  0  0  0  0  0  0  0  0  0  0
    4.2708    7.9882   11.3931 N   0  0  0  0  0  0  0  0  0  0  0  0
    3.1123    7.4977   10.9743 C   0  0  0  0  0  0  0  0  0  0  0  0
    2.9097    7.3120    9.6122 C   0  0  0  0  0  0  0  0  0  0  0  0
    1.7073    6.8020    9.1683 C   0  0  0  0  0  0  0  0  0  0  0  0
    0.7508    6.4945   10.0815 C   0  0  0  0  0  0  0  0  0  0  0  0
    0.9425    6.6748   11.4307 C   0  0  0  0  0  0  0  0  0  0  0  0
    2.1352    7.1818   11.8857 C   0  0  0  0  0  0  0  0  0  0  0  0
    5.0219    8.2328   10.7183 H   0  0  0  0  0  0  0  0  0  0  0  0
    1.1657    5.6722   14.6861 C   0  0  0  0  0  0  0  0  0  0  0  0
    1.3217    7.0163   14.1468 N   0  0  0  0  0  0  0  0  0  0  0  0
    0.6496    7.7524   14.4316 H   0  0  0  0  0  0  0  0  0  0  0  0
    4.9552    7.4637   20.8992 N   0  0  0  0  0  0  0  0  0  0  0  0
    5.2404    8.3637   21.9864 C   0  0  0  0  0  0  0  0  0  0  0  0
    6.6532    8.0565   22.4797 C   0  0  0  0  0  0  0  0  0  0  0  0
    6.6771    6.6902   22.8196 O   0  0  0  0  0  0  0  0  0  0  0  0
    6.4851    5.8620   21.7428 C   0  0  0  0  0  0  0  0  0  0  0  0
    5.0528    6.0449   21.2131 C   0  0  0  0  0  0  0  0  0  0  0  0
 23 24  1  0  0  0
 24 11  1  0  0  0
 11 12  2  0  0  0
 12  1  1  0  0  0
  1  2  2  0  0  0
  2  3  1  0  0  0
  3  4  2  0  0  0
  4  5  1  0  0  0
  5  6  2  0  0  0
  6  7  1  0  0  0
  7  8  2  0  0  0
  8  9  1  0  0  0
  5 26  1  0  0  0
 26 27  1  0  0  0
 27 28  1  0  0  0
 28 29  1  0  0  0
 29 30  1  0  0  0
 30 31  1  0  0  0
 12 13  1  0  0  0
 13 14  2  0  0  0
 13 15  1  0  0  0
 15 16  1  0  0  0
 16 17  2  0  0  0
 17 18  1  0  0  0
 18 19  2  0  0  0
 19 20  1  0  0  0
 20 21  2  0  0  0
 21 11  1  0  0  0
  9  1  1  0  0  0
 31 26  1  0  0  0
 21 16  1  0  0  0
  8  3  1  0  0  0
 24 25  1  0  0  0
  9 10  1  0  0  0
 15 22  1  0  0  0
M  END
> <minimizedAffinity>
-6.96377

> <CNNscore>
0.1501442492

> <CNNaffinity>
5.2726979256

> <CNN_VS>
0.7916652560

> <CNNaffinity_variance>
0.3544117808

$$$$
[H]c1nn2c([H])c(-c3c([H])c([H])c(SC([H])([H])C([H])([H])N(C([H])([H])[H])C([H])([H])[H])c([H])c3[H])nc2c(N([H])[H])c1C(=O)N([H])[H]


 29 31  0  0  0  0  0  0  0  0999 V2000
    3.6542    5.2950   11.1005 C   0  0  0  0  0  0  0  0  0  0  0  0
    2.8484    4.1853   10.9559 C   0  0  0  0  0  0  0  0  0  0  0  0
    2.7937    3.5336   12.1528 N   0  0  0  0  0  0  0  0  0  0  0  0
    2.1477    2.4257   12.4939 N   0  0  0  0  0  0  0  0  0  0  0  0
    2.2666    1.9940   13.7613 C   0  0  0  0  0  0  0  0  0  0  0  0
    3.0281    2.6548   14.7089 C   0  0  0  0  0  0  0  0  0  0  0  0
    3.6910    3.8106   14.3200 C   0  0  0  0  0  0  0  0  0  0  0  0
    4.4777    4.5103   15.2636 N   0  0  0  0  0  0  0  0  0  0  0  0
    3.5521    4.2333   13.0102 C   0  0  0  0  0  0  0  0  0  0  0  0
    4.0809    5.3104   12.3745 N   0  0  0  0  0  0  0  0  0  0  0  0
    4.0037    5.2131   15.8570 H   0  0  0  0  0  0  0  0  0  0  0  0
    5.5009    4.3518   15.3867 H   0  0  0  0  0  0  0  0  0  0  0  0
    4.5486    8.1141    7.9978 C   0  0  0  0  0  0  0  0  0  0  0  0
    5.4058    7.0668    8.2958 C   0  0  0  0  0  0  0  0  0  0  0  0
    5.1250    6.1450    9.3027 C   0  0  0  0  0  0  0  0  0  0  0  0
    3.9661    6.2610   10.0348 C   0  0  0  0  0  0  0  0  0  0  0  0
    3.1146    7.3022    9.7381 C   0  0  0  0  0  0  0  0  0  0  0  0
    3.3938    8.2174    8.7381 C   0  0  0  0  0  0  0  0  0  0  0  0
    4.9817    9.2409    6.6994 S   0  0  0  0  0  0  0  0  0  0  0  0
    6.0543    8.4541    5.5165 C   0  0  0  0  0  0  0  0  0  0  0  0
    6.9429    9.3740    4.7581 C   0  0  0  0  0  0  0  0  0  0  0  0
    8.6249    7.7097    5.0327 C   0  0  0  0  0  0  0  0  0  0  0  0
    8.3284    9.1555    4.9883 N   0  0  0  0  0  0  0  0  0  0  0  0
    9.1172    9.6843    3.8936 C   0  0  0  0  0  0  0  0  0  0  0  0
    3.1037    2.1242   16.0489 C   0  0  0  0  0  0  0  0  0  0  0  0
    3.1977    0.7272   16.2828 N   0  0  0  0  0  0  0  0  0  0  0  0
    3.0889    2.8808   17.0531 O   0  0  0  0  0  0  0  0  0  0  0  0
    3.9668    0.3323   16.8591 H   0  0  0  0  0  0  0  0  0  0  0  0
    2.4787    0.0773   15.8678 H   0  0  0  0  0  0  0  0  0  0  0  0
 22 23  1  0  0  0
 23 24  1  0  0  0
 23 21  1  0  0  0
 21 20  1  0  0  0
 20 19  1  0  0  0
 19 13  1  0  0  0
 13 14  2  0  0  0
 14 15  1  0  0  0
 15 16  2  0  0  0
 16 17  1  0  0  0
 17 18  2  0  0  0
 16  1  1  0  0  0
  1  2  2  0  0  0
  2  3  1  0  0  0
  3  4  1  0  0  0
  4  5  2  0  0  0
  5  6  1  0  0  0
  6 25  1  0  0  0
 25 26  1  0  0  0
 25 27  2  0  0  0
  6  7  2  0  0  0
  7  8  1  0  0  0
  7  9  1  0  0  0
  9 10  2  0  0  0
 18 13  1  0  0  0
 10  1  1  0  0  0
  9  3  1  0  0  0
 26 28  1  0  0  0
 26 29  1  0  0  0
  8 11  1  0  0  0
  8 12  1  0  0  0
M  END
> <minimizedAffinity>
-4.87077

> <CNNscore>
0.4737009704

> <CNNaffinity>
5.1884074211

> <CNN_VS>
2.4577536583

> <CNNaffinity_variance>
0.6573230028

$$$$
[H]c1nn2c([H])c(-c3c([H])c([H])c(SC([H])([H])C([H])([H])N(C([H])([H])[H])C([H])([H])[H])c([H])c3[H])nc2c(N([H])[H])c1C(=O)N([H])[H]


 29 31  0  0  0  0  0  0  0  0999 V2000
    3.7842    3.2750   16.3651 C   0  0  0  0  0  0  0  0  0  0  0  0
    3.4342    2.0130   16.7966 C   0  0  0  0  0  0  0  0  0  0  0  0
    3.7824    1.8946   18.1100 N   0  0  0  0  0  0  0  0  0  0  0  0
    3.6427    0.8705   18.9423 N   0  0  0  0  0  0  0  0  0  0  0  0
    4.0786    1.0227   20.2046 C   0  0  0  0  0  0  0  0  0  0  0  0
    4.6596    2.1931   20.6600 C   0  0  0  0  0  0  0  0  0  0  0  0
    4.7909    3.2453   19.7645 C   0  0  0  0  0  0  0  0  0  0  0  0
    5.3802    4.4555   20.1971 N   0  0  0  0  0  0  0  0  0  0  0  0
    4.3344    3.0628   18.4715 C   0  0  0  0  0  0  0  0  0  0  0  0
    4.3389    3.9107   17.4109 N   0  0  0  0  0  0  0  0  0  0  0  0
    4.7626    5.1602   20.6362 H   0  0  0  0  0  0  0  0  0  0  0  0
    6.3961    4.6668   20.0950 H   0  0  0  0  0  0  0  0  0  0  0  0
    3.1699    4.8020   12.4072 C   0  0  0  0  0  0  0  0  0  0  0  0
    3.1436    3.4421   12.6725 C   0  0  0  0  0  0  0  0  0  0  0  0
    3.3426    2.9350   13.9553 C   0  0  0  0  0  0  0  0  0  0  0  0
    3.5736    3.7945   15.0042 C   0  0  0  0  0  0  0  0  0  0  0  0
    3.5997    5.1461   14.7398 C   0  0  0  0  0  0  0  0  0  0  0  0
    3.4021    5.6492   13.4658 C   0  0  0  0  0  0  0  0  0  0  0  0
    2.9051    5.3624   10.7461 S   0  0  0  0  0  0  0  0  0  0  0  0
    4.3139    6.2795   10.1605 C   0  0  0  0  0  0  0  0  0  0  0  0
    5.4756    5.4530    9.7379 C   0  0  0  0  0  0  0  0  0  0  0  0
    7.4075    6.4705   10.6903 C   0  0  0  0  0  0  0  0  0  0  0  0
    6.6457    6.2082    9.4530 N   0  0  0  0  0  0  0  0  0  0  0  0
    7.5397    5.4590    8.5931 C   0  0  0  0  0  0  0  0  0  0  0  0
    5.1018    2.2745   22.0313 C   0  0  0  0  0  0  0  0  0  0  0  0
    4.1914    2.1155   23.1088 N   0  0  0  0  0  0  0  0  0  0  0  0
    6.3074    2.4889   22.3174 O   0  0  0  0  0  0  0  0  0  0  0  0
    4.3624    1.4118   23.8537 H   0  0  0  0  0  0  0  0  0  0  0  0
    3.3278    2.7184   23.1578 H   0  0  0  0  0  0  0  0  0  0  0  0
 22 23  1  0  0  0
 23 24  1  0  0  0
 23 21  1  0  0  0
 21 20  1  0  0  0
 20 19  1  0  0  0
 19 13  1  0  0  0
 13 14  2  0  0  0
 14 15  1  0  0  0
 15 16  2  0  0  0
 16 17  1  0  0  0
 17 18  2  0  0  0
 16  1  1  0  0  0
  1  2  2  0  0  0
  2  3  1  0  0  0
  3  4  1  0  0  0
  4  5  2  0  0  0
  5  6  1  0  0  0
  6 25  1  0  0  0
 25 26  1  0  0  0
 25 27  2  0  0  0
  6  7  2  0  0  0
  7  8  1  0  0  0
  7  9  1  0  0  0
  9 10  2  0  0  0
 18 13  1  0  0  0
 10  1  1  0  0  0
  9  3  1  0  0  0
 26 28  1  0  0  0
 26 29  1  0  0  0
  8 11  1  0  0  0
  8 12  1  0  0  0
M  END
> <minimizedAffinity>
-5.87920

> <CNNscore>
0.3531907797

> <CNNaffinity>
5.7598581314

> <CNN_VS>
2.0343286991

> <CNNaffinity_variance>
0.4796976447

$$$$
[H]c1nn2c([H])c(-c3c([H])c([H])c(SC([H])([H])C([H])([H])N(C([H])([H])[H])C([H])([H])[H])c([H])c3[H])nc2c(N([H])[H])c1C(=O)N([H])[H]


 29 31  0  0  0  0  0  0  0  0999 V2000
    3.8366    2.6147   17.5386 C   0  0  0  0  0  0  0  0  0  0  0  0
    3.9599    1.3950   18.1699 C   0  0  0  0  0  0  0  0  0  0  0  0
    4.1380    1.6162   19.5039 N   0  0  0  0  0  0  0  0  0  0  0  0
    4.3011    0.7536   20.4991 N   0  0  0  0  0  0  0  0  0  0  0  0
    4.4583    1.2475   21.7393 C   0  0  0  0  0  0  0  0  0  0  0  0
    4.4560    2.6042   22.0106 C   0  0  0  0  0  0  0  0  0  0  0  0
    4.2830    3.4799   20.9477 C   0  0  0  0  0  0  0  0  0  0  0  0
    4.2756    4.8728   21.1901 N   0  0  0  0  0  0  0  0  0  0  0  0
    4.1234    2.9460   19.6816 C   0  0  0  0  0  0  0  0  0  0  0  0
    3.9398    3.5623   18.4856 N   0  0  0  0  0  0  0  0  0  0  0  0
    3.3738    5.3108   21.4463 H   0  0  0  0  0  0  0  0  0  0  0  0
    5.1272    5.4706   21.1231 H   0  0  0  0  0  0  0  0  0  0  0  0
    3.2329    3.1531   13.3291 C   0  0  0  0  0  0  0  0  0  0  0  0
    3.8294    4.1321   14.1077 C   0  0  0  0  0  0  0  0  0  0  0  0
    4.0300    3.9676   15.4770 C   0  0  0  0  0  0  0  0  0  0  0  0
    3.6306    2.8045   16.0937 C   0  0  0  0  0  0  0  0  0  0  0  0
    3.0377    1.8319   15.3192 C   0  0  0  0  0  0  0  0  0  0  0  0
    2.8388    1.9957   13.9595 C   0  0  0  0  0  0  0  0  0  0  0  0
    3.0175    3.4432   11.5934 S   0  0  0  0  0  0  0  0  0  0  0  0
    1.7904    4.7022   11.3145 C   0  0  0  0  0  0  0  0  0  0  0  0
    2.3093    6.0954   11.2821 C   0  0  0  0  0  0  0  0  0  0  0  0
    3.9449    6.6809    9.6521 C   0  0  0  0  0  0  0  0  0  0  0  0
    3.7039    6.1840   11.0215 N   0  0  0  0  0  0  0  0  0  0  0  0
    4.3276    7.1490   11.9045 C   0  0  0  0  0  0  0  0  0  0  0  0
    4.6318    3.0523   23.3712 C   0  0  0  0  0  0  0  0  0  0  0  0
    5.6950    2.5641   24.1751 N   0  0  0  0  0  0  0  0  0  0  0  0
    3.8496    3.8893   23.8896 O   0  0  0  0  0  0  0  0  0  0  0  0
    6.3574    3.2164   24.6391 H   0  0  0  0  0  0  0  0  0  0  0  0
    5.8179    1.5252   24.3062 H   0  0  0  0  0  0  0  0  0  0  0  0
 22 23  1  0  0  0
 23 24  1  0  0  0
 23 21  1  0  0  0
 21 20  1  0  0  0
 20 19  1  0  0  0
 19 13  1  0  0  0
 13 14  2  0  0  0
 14 15  1  0  0  0
 15 16  2  0  0  0
 16 17  1  0  0  0
 17 18  2  0  0  0
 16  1  1  0  0  0
  1  2  2  0  0  0
  2  3  1  0  0  0
  3  4  1  0  0  0
  4  5  2  0  0  0
  5  6  1  0  0  0
  6 25  1  0  0  0
 25 26  1  0  0  0
 25 27  2  0  0  0
  6  7  2  0  0  0
  7  8  1  0  0  0
  7  9  1  0  0  0
  9 10  2  0  0  0
 18 13  1  0  0  0
 10  1  1  0  0  0
  9  3  1  0  0  0
 26 28  1  0  0  0
 26 29  1  0  0  0
  8 11  1  0  0  0
  8 12  1  0  0  0
M  END
> <minimizedAffinity>
-7.03131

> <CNNscore>
0.3351658285

> <CNNaffinity>
5.9826560020

> <CNN_VS>
2.0051817894

> <CNNaffinity_variance>
0.3811863661

$$$$
[H]c1nn2c([H])c(-c3c([H])c([H])c(SC([H])([H])C([H])([H])N(C([H])([H])[H])C([H])([H])[H])c([H])c3[H])nc2c(N([H])[H])c1C(=O)N([H])[H]


 29 31  0  0  0  0  0  0  0  0999 V2000
    3.8983    3.0774   17.8934 C   0  0  0  0  0  0  0  0  0  0  0  0
    4.0673    4.2405   18.6147 C   0  0  0  0  0  0  0  0  0  0  0  0
    4.2835    3.9104   19.9202 N   0  0  0  0  0  0  0  0  0  0  0  0
    4.4966    4.6879   20.9744 N   0  0  0  0  0  0  0  0  0  0  0  0
    4.6830    4.0940   22.1657 C   0  0  0  0  0  0  0  0  0  0  0  0
    4.6608    2.7202   22.3289 C   0  0  0  0  0  0  0  0  0  0  0  0
    4.4356    1.9353   21.2066 C   0  0  0  0  0  0  0  0  0  0  0  0
    4.4067    0.5279   21.3382 N   0  0  0  0  0  0  0  0  0  0  0  0
    4.2468    2.5712   19.9927 C   0  0  0  0  0  0  0  0  0  0  0  0
    4.0119    2.0557   18.7586 N   0  0  0  0  0  0  0  0  0  0  0  0
    5.3066    0.0211   21.2740 H   0  0  0  0  0  0  0  0  0  0  0  0
    3.5305   -0.0150   21.4952 H   0  0  0  0  0  0  0  0  0  0  0  0
    3.1579    2.8870   13.6756 C   0  0  0  0  0  0  0  0  0  0  0  0
    2.7990    1.8508   14.5228 C   0  0  0  0  0  0  0  0  0  0  0  0
    3.0355    1.9021   15.8953 C   0  0  0  0  0  0  0  0  0  0  0  0
    3.6428    3.0070   16.4457 C   0  0  0  0  0  0  0  0  0  0  0  0
    3.9994    4.0367   15.6030 C   0  0  0  0  0  0  0  0  0  0  0  0
    3.7643    3.9852   14.2401 C   0  0  0  0  0  0  0  0  0  0  0  0
    2.8186    2.7409   11.9416 S   0  0  0  0  0  0  0  0  0  0  0  0
    1.3994    1.7028   11.6646 C   0  0  0  0  0  0  0  0  0  0  0  0
    1.0853    1.4282   10.2373 C   0  0  0  0  0  0  0  0  0  0  0  0
   -0.9113    0.7317    9.1404 C   0  0  0  0  0  0  0  0  0  0  0  0
    0.1893    0.3418   10.0441 N   0  0  0  0  0  0  0  0  0  0  0  0
    0.8610   -0.7634    9.3901 C   0  0  0  0  0  0  0  0  0  0  0  0
    4.8695    2.1621   23.6434 C   0  0  0  0  0  0  0  0  0  0  0  0
    6.0584    2.4237   24.3736 N   0  0  0  0  0  0  0  0  0  0  0  0
    4.0060    1.4260   24.1853 O   0  0  0  0  0  0  0  0  0  0  0  0
    6.0198    2.8129   25.3361 H   0  0  0  0  0  0  0  0  0  0  0  0
    6.9964    2.2214   23.9367 H   0  0  0  0  0  0  0  0  0  0  0  0
 22 23  1  0  0  0
 23 24  1  0  0  0
 23 21  1  0  0  0
 21 20  1  0  0  0
 20 19  1  0  0  0
 19 13  1  0  0  0
 13 14  2  0  0  0
 14 15  1  0  0  0
 15 16  2  0  0  0
 16 17  1  0  0  0
 17 18  2  0  0  0
 16  1  1  0  0  0
  1  2  2  0  0  0
  2  3  1  0  0  0
  3  4  1  0  0  0
  4  5  2  0  0  0
  5  6  1  0  0  0
  6 25  1  0  0  0
 25 26  1  0  0  0
 25 27  2  0  0  0
  6  7  2  0  0  0
  7  8  1  0  0  0
  7  9  1  0  0  0
  9 10  2  0  0  0
 18 13  1  0  0  0
 10  1  1  0  0  0
  9  3  1  0  0  0
 26 28  1  0  0  0
 26 29  1  0  0  0
  8 11  1  0  0  0
  8 12  1  0  0  0
M  END
> <minimizedAffinity>
-6.66040

> <CNNscore>
0.3275899291

> <CNNaffinity>
5.9634714127

> <CNN_VS>
1.9535732269

> <CNNaffinity_variance>
0.2182797939

$$$$
[H]c1nn2c([H])c(-c3c([H])c([H])c(SC([H])([H])C([H])([H])N(C([H])([H])[H])C([H])([H])[H])c([H])c3[H])nc2c(N([H])[H])c1C(=O)N([H])[H]


 29 31  0  0  0  0  0  0  0  0999 V2000
    3.8069    2.4927   17.6801 C   0  0  0  0  0  0  0  0  0  0  0  0
    3.8214    1.2654   18.3086 C   0  0  0  0  0  0  0  0  0  0  0  0
    4.0239    1.4667   19.6423 N   0  0  0  0  0  0  0  0  0  0  0  0
    4.1118    0.5907   20.6352 N   0  0  0  0  0  0  0  0  0  0  0  0
    4.3178    1.0655   21.8757 C   0  0  0  0  0  0  0  0  0  0  0  0
    4.4396    2.4163   22.1496 C   0  0  0  0  0  0  0  0  0  0  0  0
    4.3428    3.3064   21.0890 C   0  0  0  0  0  0  0  0  0  0  0  0
    4.4627    4.6937   21.3339 N   0  0  0  0  0  0  0  0  0  0  0  0
    4.1307    2.7919   19.8225 C   0  0  0  0  0  0  0  0  0  0  0  0
    3.9992    3.4249   18.6284 N   0  0  0  0  0  0  0  0  0  0  0  0
    3.6053    5.2111   21.5945 H   0  0  0  0  0  0  0  0  0  0  0  0
    5.3648    5.2119   21.2647 H   0  0  0  0  0  0  0  0  0  0  0  0
    3.2478    3.1213   13.4769 C   0  0  0  0  0  0  0  0  0  0  0  0
    2.8340    1.9533   14.0973 C   0  0  0  0  0  0  0  0  0  0  0  0
    3.0113    1.7384   15.4628 C   0  0  0  0  0  0  0  0  0  0  0  0
    3.6136    2.7036   16.2363 C   0  0  0  0  0  0  0  0  0  0  0  0
    4.0247    3.8643   15.6191 C   0  0  0  0  0  0  0  0  0  0  0  0
    3.8484    4.0772   14.2629 C   0  0  0  0  0  0  0  0  0  0  0  0
    2.9819    3.3140   11.7347 S   0  0  0  0  0  0  0  0  0  0  0  0
    1.7125    4.5224   11.4229 C   0  0  0  0  0  0  0  0  0  0  0  0
    0.5960    4.5350   12.4050 C   0  0  0  0  0  0  0  0  0  0  0  0
   -1.2577    5.9013   13.0144 C   0  0  0  0  0  0  0  0  0  0  0  0
    0.2037    5.8388   12.8132 N   0  0  0  0  0  0  0  0  0  0  0  0
    0.7909    6.1700   14.0961 C   0  0  0  0  0  0  0  0  0  0  0  0
    4.6604    2.8436   23.5103 C   0  0  0  0  0  0  0  0  0  0  0  0
    5.7925    2.4038   24.2451 N   0  0  0  0  0  0  0  0  0  0  0  0
    3.8581    3.6191   24.0899 O   0  0  0  0  0  0  0  0  0  0  0  0
    6.4382    3.0849   24.6907 H   0  0  0  0  0  0  0  0  0  0  0  0
    5.9845    1.3717   24.3429 H   0  0  0  0  0  0  0  0  0  0  0  0
 22 23  1  0  0  0
 23 24  1  0  0  0
 23 21  1  0  0  0
 21 20  1  0  0  0
 20 19  1  0  0  0
 19 13  1  0  0  0
 13 14  2  0  0  0
 14 15  1  0  0  0
 15 16  2  0  0  0
 16 17  1  0  0  0
 17 18  2  0  0  0
 16  1  1  0  0  0
  1  2  2  0  0  0
  2  3  1  0  0  0
  3  4  1  0  0  0
  4  5  2  0  0  0
  5  6  1  0  0  0
  6 25  1  0  0  0
 25 26  1  0  0  0
 25 27  2  0  0  0
  6  7  2  0  0  0
  7  8  1  0  0  0
  7  9  1  0  0  0
  9 10  2  0  0  0
 18 13  1  0  0  0
 10  1  1  0  0  0
  9  3  1  0  0  0
 26 28  1  0  0  0
 26 29  1  0  0  0
  8 11  1  0  0  0
  8 12  1  0  0  0
M  END
> <minimizedAffinity>
-7.36849

> <CNNscore>
0.3056765795

> <CNNaffinity>
5.9946675301

> <CNN_VS>
1.8324294090

> <CNNaffinity_variance>
0.2491057664

$$$$
[H]c1nn2c([H])c(-c3c([H])c([H])c(SC([H])([H])C([H])([H])N(C([H])([H])[H])C([H])([H])[H])c([H])c3[H])nc2c(N([H])[H])c1C(=O)N([H])[H]


 29 31  0  0  0  0  0  0  0  0999 V2000
    3.8085    2.5643   17.5028 C   0  0  0  0  0  0  0  0  0  0  0  0
    3.9033    1.3544   18.1575 C   0  0  0  0  0  0  0  0  0  0  0  0
    4.0872    1.5971   19.4869 N   0  0  0  0  0  0  0  0  0  0  0  0
    4.2304    0.7502   20.4985 N   0  0  0  0  0  0  0  0  0  0  0  0
    4.3999    1.2640   21.7290 C   0  0  0  0  0  0  0  0  0  0  0  0
    4.4298    2.6255   21.9741 C   0  0  0  0  0  0  0  0  0  0  0  0
    4.2770    3.4843   20.8945 C   0  0  0  0  0  0  0  0  0  0  0  0
    4.3026    4.8814   21.1099 N   0  0  0  0  0  0  0  0  0  0  0  0
    4.1042    2.9300   19.6389 C   0  0  0  0  0  0  0  0  0  0  0  0
    3.9345    3.5272   18.4313 N   0  0  0  0  0  0  0  0  0  0  0  0
    3.4116    5.3454   21.3577 H   0  0  0  0  0  0  0  0  0  0  0  0
    5.1681    5.4575   21.0314 H   0  0  0  0  0  0  0  0  0  0  0  0
    3.2157    3.0355   13.2836 C   0  0  0  0  0  0  0  0  0  0  0  0
    3.8245    4.0202   14.0453 C   0  0  0  0  0  0  0  0  0  0  0  0
    4.0217    3.8775   15.4176 C   0  0  0  0  0  0  0  0  0  0  0  0
    3.6063    2.7311   16.0544 C   0  0  0  0  0  0  0  0  0  0  0  0
    3.0011    1.7527   15.2968 C   0  0  0  0  0  0  0  0  0  0  0  0
    2.8055    1.8949   13.9341 C   0  0  0  0  0  0  0  0  0  0  0  0
    3.0056    3.2974   11.5428 S   0  0  0  0  0  0  0  0  0  0  0  0
    1.9529    2.0449   10.8416 C   0  0  0  0  0  0  0  0  0  0  0  0
    2.4830    1.3844    9.6194 C   0  0  0  0  0  0  0  0  0  0  0  0
    4.0836   -0.3774    9.7125 C   0  0  0  0  0  0  0  0  0  0  0  0
    3.8707    1.0834    9.6839 N   0  0  0  0  0  0  0  0  0  0  0  0
    4.5511    1.5559    8.4948 C   0  0  0  0  0  0  0  0  0  0  0  0
    4.6168    3.0954   23.3258 C   0  0  0  0  0  0  0  0  0  0  0  0
    5.7057    2.6450   24.1173 N   0  0  0  0  0  0  0  0  0  0  0  0
    3.8222    3.9187   23.8471 O   0  0  0  0  0  0  0  0  0  0  0  0
    6.3587    3.3200   24.5617 H   0  0  0  0  0  0  0  0  0  0  0  0
    5.8576    1.6114   24.2592 H   0  0  0  0  0  0  0  0  0  0  0  0
 22 23  1  0  0  0
 23 24  1  0  0  0
 23 21  1  0  0  0
 21 20  1  0  0  0
 20 19  1  0  0  0
 19 13  1  0  0  0
 13 14  2  0  0  0
 14 15  1  0  0  0
 15 16  2  0  0  0
 16 17  1  0  0  0
 17 18  2  0  0  0
 16  1  1  0  0  0
  1  2  2  0  0  0
  2  3  1  0  0  0
  3  4  1  0  0  0
  4  5  2  0  0  0
  5  6  1  0  0  0
  6 25  1  0  0  0
 25 26  1  0  0  0
 25 27  2  0  0  0
  6  7  2  0  0  0
  7  8  1  0  0  0
  7  9  1  0  0  0
  9 10  2  0  0  0
 18 13  1  0  0  0
 10  1  1  0  0  0
  9  3  1  0  0  0
 26 28  1  0  0  0
 26 29  1  0  0  0
  8 11  1  0  0  0
  8 12  1  0  0  0
M  END
> <minimizedAffinity>
-7.09060

> <CNNscore>
0.2767376900

> <CNNaffinity>
5.9024386406

> <CNN_VS>
1.6334272623

> <CNNaffinity_variance>
0.1946605444

$$$$
[H]c1nn2c([H])c(-c3c([H])c([H])c(SC([H])([H])C([H])([H])N(C([H])([H])[H])C([H])([H])[H])c([H])c3[H])nc2c(N([H])[H])c1C(=O)N([H])[H]


 29 31  0  0  0  0  0  0  0  0999 V2000
    3.7080    3.1715   17.1812 C   0  0  0  0  0  0  0  0  0  0  0  0
    3.6645    4.3426   17.9079 C   0  0  0  0  0  0  0  0  0  0  0  0
    3.9192    4.0483   19.2151 N   0  0  0  0  0  0  0  0  0  0  0  0
    3.9819    4.8456   20.2741 N   0  0  0  0  0  0  0  0  0  0  0  0
    4.2542    4.2869   21.4659 C   0  0  0  0  0  0  0  0  0  0  0  0
    4.4683    2.9292   21.6248 C   0  0  0  0  0  0  0  0  0  0  0  0
    4.3957    2.1228   20.4974 C   0  0  0  0  0  0  0  0  0  0  0  0
    4.6093    0.7311   20.6246 N   0  0  0  0  0  0  0  0  0  0  0  0
    4.1140    2.7227   19.2831 C   0  0  0  0  0  0  0  0  0  0  0  0
    3.9866    2.1805   18.0447 N   0  0  0  0  0  0  0  0  0  0  0  0
    5.5840    0.3879   20.5702 H   0  0  0  0  0  0  0  0  0  0  0  0
    3.8386    0.0439   20.7689 H   0  0  0  0  0  0  0  0  0  0  0  0
    3.0655    2.8765   12.9534 C   0  0  0  0  0  0  0  0  0  0  0  0
    2.6100    1.9014   13.8263 C   0  0  0  0  0  0  0  0  0  0  0  0
    2.8139    1.9871   15.2023 C   0  0  0  0  0  0  0  0  0  0  0  0
    3.4858    3.0653   15.7301 C   0  0  0  0  0  0  0  0  0  0  0  0
    3.9383    4.0342   14.8619 C   0  0  0  0  0  0  0  0  0  0  0  0
    3.7356    3.9486   13.4955 C   0  0  0  0  0  0  0  0  0  0  0  0
    2.7615    2.6901   11.2167 S   0  0  0  0  0  0  0  0  0  0  0  0
    2.7011    4.2785   10.4155 C   0  0  0  0  0  0  0  0  0  0  0  0
    3.9403    4.6705    9.6933 C   0  0  0  0  0  0  0  0  0  0  0  0
    5.6924    3.3267    8.7994 C   0  0  0  0  0  0  0  0  0  0  0  0
    5.0730    3.8769   10.0216 N   0  0  0  0  0  0  0  0  0  0  0  0
    6.0977    4.6857   10.6508 C   0  0  0  0  0  0  0  0  0  0  0  0
    4.7549    2.4089   22.9401 C   0  0  0  0  0  0  0  0  0  0  0  0
    5.7880    2.9622   23.7412 N   0  0  0  0  0  0  0  0  0  0  0  0
    4.0996    1.4490   23.4202 O   0  0  0  0  0  0  0  0  0  0  0  0
    5.5955    3.2963   24.7059 H   0  0  0  0  0  0  0  0  0  0  0  0
    6.7664    3.0367   23.3556 H   0  0  0  0  0  0  0  0  0  0  0  0
 22 23  1  0  0  0
 23 24  1  0  0  0
 23 21  1  0  0  0
 21 20  1  0  0  0
 20 19  1  0  0  0
 19 13  1  0  0  0
 13 14  2  0  0  0
 14 15  1  0  0  0
 15 16  2  0  0  0
 16 17  1  0  0  0
 17 18  2  0  0  0
 16  1  1  0  0  0
  1  2  2  0  0  0
  2  3  1  0  0  0
  3  4  1  0  0  0
  4  5  2  0  0  0
  5  6  1  0  0  0
  6 25  1  0  0  0
 25 26  1  0  0  0
 25 27  2  0  0  0
  6  7  2  0  0  0
  7  8  1  0  0  0
  7  9  1  0  0  0
  9 10  2  0  0  0
 18 13  1  0  0  0
 10  1  1  0  0  0
  9  3  1  0  0  0
 26 28  1  0  0  0
 26 29  1  0  0  0
  8 11  1  0  0  0
  8 12  1  0  0  0
M  END
> <minimizedAffinity>
-6.46121

> <CNNscore>
0.2496207654

> <CNNaffinity>
5.8853812218

> <CNN_VS>
1.4691133499

> <CNNaffinity_variance>
0.2290929854

$$$$
[H]c1nn2c([H])c(-c3c([H])c([H])c(SC([H])([H])C([H])([H])N(C([H])([H])[H])C([H])([H])[H])c([H])c3[H])nc2c(N([H])[H])c1C(=O)N([H])[H]


 29 31  0  0  0  0  0  0  0  0999 V2000
    3.8650    3.1539   17.7079 C   0  0  0  0  0  0  0  0  0  0  0  0
    3.9435    4.2950   18.4780 C   0  0  0  0  0  0  0  0  0  0  0  0
    4.1535    3.9264   19.7743 N   0  0  0  0  0  0  0  0  0  0  0  0
    4.2940    4.6723   20.8629 N   0  0  0  0  0  0  0  0  0  0  0  0
    4.4935    4.0434   22.0340 C   0  0  0  0  0  0  0  0  0  0  0  0
    4.5566    2.6654   22.1425 C   0  0  0  0  0  0  0  0  0  0  0  0
    4.4060    1.9142   20.9851 C   0  0  0  0  0  0  0  0  0  0  0  0
    4.4652    0.5037   21.0606 N   0  0  0  0  0  0  0  0  0  0  0  0
    4.2018    2.5858   19.7931 C   0  0  0  0  0  0  0  0  0  0  0  0
    4.0263    2.1071   18.5346 N   0  0  0  0  0  0  0  0  0  0  0  0
    5.3970    0.0582   20.9976 H   0  0  0  0  0  0  0  0  0  0  0  0
    3.6228   -0.0999   21.1755 H   0  0  0  0  0  0  0  0  0  0  0  0
    3.2215    3.0593   13.4710 C   0  0  0  0  0  0  0  0  0  0  0  0
    3.6913    4.1965   14.1083 C   0  0  0  0  0  0  0  0  0  0  0  0
    3.9035    4.2384   15.4851 C   0  0  0  0  0  0  0  0  0  0  0  0
    3.6447    3.1265   16.2528 C   0  0  0  0  0  0  0  0  0  0  0  0
    3.1777    1.9964   15.6187 C   0  0  0  0  0  0  0  0  0  0  0  0
    2.9671    1.9554   14.2515 C   0  0  0  0  0  0  0  0  0  0  0  0
    2.9812    3.0913   11.7147 S   0  0  0  0  0  0  0  0  0  0  0  0
    1.4839    3.9607   11.3013 C   0  0  0  0  0  0  0  0  0  0  0  0
    0.3526    3.7563   12.2444 C   0  0  0  0  0  0  0  0  0  0  0  0
    0.6745    6.1106   12.4119 C   0  0  0  0  0  0  0  0  0  0  0  0
   -0.1824    4.9632   12.7713 N   0  0  0  0  0  0  0  0  0  0  0  0
   -1.4790    5.2440   12.1881 C   0  0  0  0  0  0  0  0  0  0  0  0
    4.7736    2.0686   23.4384 C   0  0  0  0  0  0  0  0  0  0  0  0
    5.8409    2.4909   24.2737 N   0  0  0  0  0  0  0  0  0  0  0  0
    4.0251    1.1554   23.8708 O   0  0  0  0  0  0  0  0  0  0  0  0
    5.6653    2.8026   25.2490 H   0  0  0  0  0  0  0  0  0  0  0  0
    6.8279    2.4895   23.9028 H   0  0  0  0  0  0  0  0  0  0  0  0
 22 23  1  0  0  0
 23 24  1  0  0  0
 23 21  1  0  0  0
 21 20  1  0  0  0
 20 19  1  0  0  0
 19 13  1  0  0  0
 13 14  2  0  0  0
 14 15  1  0  0  0
 15 16  2  0  0  0
 16 17  1  0  0  0
 17 18  2  0  0  0
 16  1  1  0  0  0
  1  2  2  0  0  0
  2  3  1  0  0  0
  3  4  1  0  0  0
  4  5  2  0  0  0
  5  6  1  0  0  0
  6 25  1  0  0  0
 25 26  1  0  0  0
 25 27  2  0  0  0
  6  7  2  0  0  0
  7  8  1  0  0  0
  7  9  1  0  0  0
  9 10  2  0  0  0
 18 13  1  0  0  0
 10  1  1  0  0  0
  9  3  1  0  0  0
 26 28  1  0  0  0
 26 29  1  0  0  0
  8 11  1  0  0  0
  8 12  1  0  0  0
M  END
> <minimizedAffinity>
-6.85260

> <CNNscore>
0.2493938506

> <CNNaffinity>
5.9591407776

> <CNN_VS>
1.4861730337

> <CNNaffinity_variance>
0.2747532725

$$$$
[H]c1nn2c([H])c(-c3c([H])c([H])c(SC([H])([H])C([H])([H])N(C([H])([H])[H])C([H])([H])[H])c([H])c3[H])nc2c(N([H])[H])c1C(=O)N([H])[H]


 29 31  0  0  0  0  0  0  0  0999 V2000
    4.7642    7.4191   11.8558 C   0  0  0  0  0  0  0  0  0  0  0  0
    5.2151    8.2518   12.8582 C   0  0  0  0  0  0  0  0  0  0  0  0
    6.5732    8.3384   12.7681 N   0  0  0  0  0  0  0  0  0  0  0  0
    7.4376    9.0174   13.5117 N   0  0  0  0  0  0  0  0  0  0  0  0
    8.7420    8.9257   13.2006 C   0  0  0  0  0  0  0  0  0  0  0  0
    9.2083    8.1591   12.1473 C   0  0  0  0  0  0  0  0  0  0  0  0
    8.2784    7.4613   11.3890 C   0  0  0  0  0  0  0  0  0  0  0  0
    8.7211    6.6685   10.3054 N   0  0  0  0  0  0  0  0  0  0  0  0
    6.9425    7.5728   11.7301 C   0  0  0  0  0  0  0  0  0  0  0  0
    5.8428    7.0081   11.1681 N   0  0  0  0  0  0  0  0  0  0  0  0
    8.8354    7.1313    9.3870 H   0  0  0  0  0  0  0  0  0  0  0  0
    8.9349    5.6514   10.3892 H   0  0  0  0  0  0  0  0  0  0  0  0
    0.6650    6.3883   11.1426 C   0  0  0  0  0  0  0  0  0  0  0  0
    1.0141    7.5219   11.8591 C   0  0  0  0  0  0  0  0  0  0  0  0
    2.3434    7.8661   12.0972 C   0  0  0  0  0  0  0  0  0  0  0  0
    3.3552    7.0688   11.6142 C   0  0  0  0  0  0  0  0  0  0  0  0
    3.0076    5.9421   10.9022 C   0  0  0  0  0  0  0  0  0  0  0  0
    1.6873    5.6008   10.6660 C   0  0  0  0  0  0  0  0  0  0  0  0
   -1.0509    6.0252   10.8839 S   0  0  0  0  0  0  0  0  0  0  0  0
   -1.2977    4.2751   10.6720 C   0  0  0  0  0  0  0  0  0  0  0  0
   -1.7242    3.8566    9.3104 C   0  0  0  0  0  0  0  0  0  0  0  0
   -1.1588    2.5188    7.4222 C   0  0  0  0  0  0  0  0  0  0  0  0
   -1.1826    2.6095    8.8957 N   0  0  0  0  0  0  0  0  0  0  0  0
    0.1981    2.4870    9.3188 C   0  0  0  0  0  0  0  0  0  0  0  0
   10.6258    8.1141   11.8804 C   0  0  0  0  0  0  0  0  0  0  0  0
   11.5466    7.6716   12.8661 N   0  0  0  0  0  0  0  0  0  0  0  0
   11.0924    8.4650   10.7667 O   0  0  0  0  0  0  0  0  0  0  0  0
   12.2178    6.9047   12.6646 H   0  0  0  0  0  0  0  0  0  0  0  0
   11.5528    8.1253   13.8178 H   0  0  0  0  0  0  0  0  0  0  0  0
 22 23  1  0  0  0
 23 24  1  0  0  0
 23 21  1  0  0  0
 21 20  1  0  0  0
 20 19  1  0  0  0
 19 13  1  0  0  0
 13 14  2  0  0  0
 14 15  1  0  0  0
 15 16  2  0  0  0
 16 17  1  0  0  0
 17 18  2  0  0  0
 16  1  1  0  0  0
  1  2  2  0  0  0
  2  3  1  0  0  0
  3  4  1  0  0  0
  4  5  2  0  0  0
  5  6  1  0  0  0
  6 25  1  0  0  0
 25 26  1  0  0  0
 25 27  2  0  0  0
  6  7  2  0  0  0
  7  8  1  0  0  0
  7  9  1  0  0  0
  9 10  2  0  0  0
 18 13  1  0  0  0
 10  1  1  0  0  0
  9  3  1  0  0  0
 26 28  1  0  0  0
 26 29  1  0  0  0
  8 11  1  0  0  0
  8 12  1  0  0  0
M  END
> <minimizedAffinity>
-4.86719

> <CNNscore>
0.2277777195

> <CNNaffinity>
4.5642004013

> <CNN_VS>
1.0396231413

> <CNNaffinity_variance>
0.3808485270

$$$$
[H]c1nc([H])c([H])c(Oc2c([H])c([H])c([H])c(N([H])C(=O)N([H])c3c([H])c([H])c(-c4c([H])c([H])c([H])c5c4c(N([H])[H])nn5[H])c([H])c3[H])c2[H])c1[H]


 38 42  0  0  0  0  0  0  0  0999 V2000
    3.4366    3.9587   14.7036 C   0  0  0  0  0  0  0  0  0  0  0  0
    4.0109    3.5948   13.5178 C   0  0  0  0  0  0  0  0  0  0  0  0
    3.6003    4.1579   12.3186 C   0  0  0  0  0  0  0  0  0  0  0  0
    2.6115    5.0986   12.2379 C   0  0  0  0  0  0  0  0  0  0  0  0
    2.0415    5.4515   13.4750 C   0  0  0  0  0  0  0  0  0  0  0  0
    2.4374    4.9037   14.6648 C   0  0  0  0  0  0  0  0  0  0  0  0
    1.7234    1.3845   14.6536 N   0  0  0  0  0  0  0  0  0  0  0  0
    2.4328    1.2647   15.8693 C   0  0  0  0  0  0  0  0  0  0  0  0
    2.3681    0.2541   16.7716 N   0  0  0  0  0  0  0  0  0  0  0  0
    3.1521    0.5048   17.7849 N   0  0  0  0  0  0  0  0  0  0  0  0
    3.7827    1.6835   17.6265 C   0  0  0  0  0  0  0  0  0  0  0  0
    4.6759    2.3564   18.4246 C   0  0  0  0  0  0  0  0  0  0  0  0
    5.1319    3.5835   17.9655 C   0  0  0  0  0  0  0  0  0  0  0  0
    4.7269    4.1146   16.7818 C   0  0  0  0  0  0  0  0  0  0  0  0
    3.8197    3.3988   16.0009 C   0  0  0  0  0  0  0  0  0  0  0  0
    3.3205    2.1758   16.3895 C   0  0  0  0  0  0  0  0  0  0  0  0
    0.9433    2.0651   14.4886 H   0  0  0  0  0  0  0  0  0  0  0  0
    1.9880    0.7587   13.8659 H   0  0  0  0  0  0  0  0  0  0  0  0
    3.2787   -0.1302   18.6213 H   0  0  0  0  0  0  0  0  0  0  0  0
    2.1087    5.7205   11.0925 N   0  0  0  0  0  0  0  0  0  0  0  0
    2.8091    6.4093   10.0782 C   0  0  0  0  0  0  0  0  0  0  0  0
    4.0398    6.5184   10.1374 O   0  0  0  0  0  0  0  0  0  0  0  0
    2.1058    6.9783    8.9881 N   0  0  0  0  0  0  0  0  0  0  0  0
    1.0443    5.6966   10.9266 H   0  0  0  0  0  0  0  0  0  0  0  0
    1.0356    6.8288    9.0253 H   0  0  0  0  0  0  0  0  0  0  0  0
    2.6397    7.6907    7.8969 C   0  0  0  0  0  0  0  0  0  0  0  0
    2.1366    8.9886    7.6992 C   0  0  0  0  0  0  0  0  0  0  0  0
    2.5732    9.7818    6.6643 C   0  0  0  0  0  0  0  0  0  0  0  0
    3.5176    9.3387    5.7825 C   0  0  0  0  0  0  0  0  0  0  0  0
    4.0129    8.0815    5.9638 C   0  0  0  0  0  0  0  0  0  0  0  0
    3.5727    7.2809    7.0077 C   0  0  0  0  0  0  0  0  0  0  0  0
    4.9731    7.6024    5.0851 O   0  0  0  0  0  0  0  0  0  0  0  0
    5.9358    8.4000    4.5200 C   0  0  0  0  0  0  0  0  0  0  0  0
    5.9650    8.5174    3.1413 C   0  0  0  0  0  0  0  0  0  0  0  0
    6.9234    9.3123    2.5666 C   0  0  0  0  0  0  0  0  0  0  0  0
    7.8458    9.9906    3.2820 N   0  0  0  0  0  0  0  0  0  0  0  0
    7.8224    9.8813    4.6105 C   0  0  0  0  0  0  0  0  0  0  0  0
    6.8714    9.0887    5.2360 C   0  0  0  0  0  0  0  0  0  0  0  0
  7  8  1  0  0  0
  8  9  2  0  0  0
  9 10  1  0  0  0
 10 11  1  0  0  0
 11 12  2  0  0  0
 12 13  1  0  0  0
 13 14  2  0  0  0
 14 15  1  0  0  0
 15  1  1  0  0  0
  1  2  2  0  0  0
  2  3  1  0  0  0
  3  4  2  0  0  0
  4 20  1  0  0  0
 20 21  1  0  0  0
 21 22  2  0  0  0
 21 23  1  0  0  0
 23 26  1  0  0  0
 26 27  2  0  0  0
 27 28  1  0  0  0
 28 29  2  0  0  0
 29 30  1  0  0  0
 30 32  1  0  0  0
 32 33  1  0  0  0
 33 34  2  0  0  0
 34 35  1  0  0  0
 35 36  2  0  0  0
 36 37  1  0  0  0
 37 38  2  0  0  0
 30 31  2  0  0  0
  4  5  1  0  0  0
  5  6  2  0  0  0
 15 16  2  0  0  0
 16  8  1  0  0  0
 16 11  1  0  0  0
  6  1  1  0  0  0
 31 26  1  0  0  0
 38 33  1  0  0  0
  7 17  1  0  0  0
  7 18  1  0  0  0
 10 19  1  0  0  0
 20 24  1  0  0  0
 23 25  1  0  0  0
M  END
> <minimizedAffinity>
-8.26244

> <CNNscore>
0.5853444338

> <CNNaffinity>
5.8062477112

> <CNN_VS>
3.3986546993

> <CNNaffinity_variance>
0.2630082369

$$$$
[H]c1nc([H])c([H])c(Oc2c([H])c([H])c([H])c(N([H])C(=O)N([H])c3c([H])c([H])c(-c4c([H])c([H])c([H])c5c4c(N([H])[H])nn5[H])c([H])c3[H])c2[H])c1[H]


 38 42  0  0  0  0  0  0  0  0999 V2000
    4.5414    3.9265   18.8497 C   0  0  0  0  0  0  0  0  0  0  0  0
    3.4515    4.7319   18.6719 C   0  0  0  0  0  0  0  0  0  0  0  0
    3.1470    5.2636   17.4275 C   0  0  0  0  0  0  0  0  0  0  0  0
    3.9001    5.0252   16.3117 C   0  0  0  0  0  0  0  0  0  0  0  0
    5.0138    4.1929   16.5280 C   0  0  0  0  0  0  0  0  0  0  0  0
    5.3250    3.6620   17.7502 C   0  0  0  0  0  0  0  0  0  0  0  0
    3.1470    1.1806   18.5674 N   0  0  0  0  0  0  0  0  0  0  0  0
    3.8021    1.0721   19.8143 C   0  0  0  0  0  0  0  0  0  0  0  0
    3.8102    0.0100   20.6577 N   0  0  0  0  0  0  0  0  0  0  0  0
    4.5063    0.2894   21.7262 N   0  0  0  0  0  0  0  0  0  0  0  0
    5.0015    1.5396   21.6658 C   0  0  0  0  0  0  0  0  0  0  0  0
    5.7674    2.2626   22.5480 C   0  0  0  0  0  0  0  0  0  0  0  0
    6.0992    3.5585   22.1802 C   0  0  0  0  0  0  0  0  0  0  0  0
    5.6960    4.1077   21.0042 C   0  0  0  0  0  0  0  0  0  0  0  0
    4.9203    3.3395   20.1361 C   0  0  0  0  0  0  0  0  0  0  0  0
    4.5489    2.0469   20.4314 C   0  0  0  0  0  0  0  0  0  0  0  0
    2.3019    1.7760   18.3932 H   0  0  0  0  0  0  0  0  0  0  0  0
    3.5233    0.6359   17.7650 H   0  0  0  0  0  0  0  0  0  0  0  0
    4.6634   -0.3746   22.5345 H   0  0  0  0  0  0  0  0  0  0  0  0
    3.6994    5.5151   15.0189 N   0  0  0  0  0  0  0  0  0  0  0  0
    2.7832    5.0773   14.0377 C   0  0  0  0  0  0  0  0  0  0  0  0
    2.0157    4.1378   14.2796 O   0  0  0  0  0  0  0  0  0  0  0  0
    2.7385    5.7120   12.7721 N   0  0  0  0  0  0  0  0  0  0  0  0
    4.3113    6.3371   14.6859 H   0  0  0  0  0  0  0  0  0  0  0  0
    3.4458    6.5217   12.6577 H   0  0  0  0  0  0  0  0  0  0  0  0
    1.8936    5.4094   11.6867 C   0  0  0  0  0  0  0  0  0  0  0  0
    2.2908    4.3326   10.8746 C   0  0  0  0  0  0  0  0  0  0  0  0
    1.5539    3.9437    9.7807 C   0  0  0  0  0  0  0  0  0  0  0  0
    0.4010    4.5909    9.4374 C   0  0  0  0  0  0  0  0  0  0  0  0
    0.0057    5.6369   10.2173 C   0  0  0  0  0  0  0  0  0  0  0  0
    0.7488    6.0296   11.3209 C   0  0  0  0  0  0  0  0  0  0  0  0
   -1.1607    6.3146    9.8950 O   0  0  0  0  0  0  0  0  0  0  0  0
   -2.4088    5.7583   10.0186 C   0  0  0  0  0  0  0  0  0  0  0  0
   -2.6889    5.0204   11.1554 C   0  0  0  0  0  0  0  0  0  0  0  0
   -3.9335    4.4601   11.2886 C   0  0  0  0  0  0  0  0  0  0  0  0
   -4.9057    4.5926   10.3612 N   0  0  0  0  0  0  0  0  0  0  0  0
   -4.6413    5.3025    9.2641 C   0  0  0  0  0  0  0  0  0  0  0  0
   -3.3965    5.8877    9.0860 C   0  0  0  0  0  0  0  0  0  0  0  0
  7  8  1  0  0  0
  8  9  2  0  0  0
  9 10  1  0  0  0
 10 11  1  0  0  0
 11 12  2  0  0  0
 12 13  1  0  0  0
 13 14  2  0  0  0
 14 15  1  0  0  0
 15  1  1  0  0  0
  1  2  2  0  0  0
  2  3  1  0  0  0
  3  4  2  0  0  0
  4 20  1  0  0  0
 20 21  1  0  0  0
 21 22  2  0  0  0
 21 23  1  0  0  0
 23 26  1  0  0  0
 26 27  2  0  0  0
 27 28  1  0  0  0
 28 29  2  0  0  0
 29 30  1  0  0  0
 30 32  1  0  0  0
 32 33  1  0  0  0
 33 34  2  0  0  0
 34 35  1  0  0  0
 35 36  2  0  0  0
 36 37  1  0  0  0
 37 38  2  0  0  0
 30 31  2  0  0  0
  4  5  1  0  0  0
  5  6  2  0  0  0
 15 16  2  0  0  0
 16  8  1  0  0  0
 16 11  1  0  0  0
  6  1  1  0  0  0
 31 26  1  0  0  0
 38 33  1  0  0  0
  7 17  1  0  0  0
  7 18  1  0  0  0
 10 19  1  0  0  0
 20 24  1  0  0  0
 23 25  1  0  0  0
M  END
> <minimizedAffinity>
-7.74234

> <CNNscore>
0.2511653006

> <CNNaffinity>
5.9268317223

> <CNN_VS>
1.4886144400

> <CNNaffinity_variance>
0.6043279767

$$$$
[H]c1nc([H])c([H])c(Oc2c([H])c([H])c([H])c(N([H])C(=O)N([H])c3c([H])c([H])c(-c4c([H])c([H])c([H])c5c4c(N([H])[H])nn5[H])c([H])c3[H])c2[H])c1[H]


 38 42  0  0  0  0  0  0  0  0999 V2000
    2.5492    3.4536   13.4902 C   0  0  0  0  0  0  0  0  0  0  0  0
    3.2751    2.9421   14.5294 C   0  0  0  0  0  0  0  0  0  0  0  0
    3.3430    3.5984   15.7494 C   0  0  0  0  0  0  0  0  0  0  0  0
    2.7016    4.7804   15.9955 C   0  0  0  0  0  0  0  0  0  0  0  0
    1.9633    5.2797   14.9067 C   0  0  0  0  0  0  0  0  0  0  0  0
    1.8882    4.6422   13.6982 C   0  0  0  0  0  0  0  0  0  0  0  0
    4.9170    4.8463   12.0696 N   0  0  0  0  0  0  0  0  0  0  0  0
    4.4451    3.9497   11.0853 C   0  0  0  0  0  0  0  0  0  0  0  0
    4.9338    3.7584    9.8346 N   0  0  0  0  0  0  0  0  0  0  0  0
    4.2223    2.8622    9.2059 N   0  0  0  0  0  0  0  0  0  0  0  0
    3.2260    2.4034    9.9862 C   0  0  0  0  0  0  0  0  0  0  0  0
    2.2340    1.4817    9.7538 C   0  0  0  0  0  0  0  0  0  0  0  0
    1.3376    1.2460   10.7860 C   0  0  0  0  0  0  0  0  0  0  0  0
    1.4193    1.8863   11.9820 C   0  0  0  0  0  0  0  0  0  0  0  0
    2.4421    2.8141   12.1777 C   0  0  0  0  0  0  0  0  0  0  0  0
    3.3684    3.1035   11.2009 C   0  0  0  0  0  0  0  0  0  0  0  0
    4.4129    5.7155   12.3683 H   0  0  0  0  0  0  0  0  0  0  0  0
    5.8244    4.6354   12.5326 H   0  0  0  0  0  0  0  0  0  0  0  0
    4.4008    2.5365    8.2156 H   0  0  0  0  0  0  0  0  0  0  0  0
    2.7098    5.5337   17.1719 N   0  0  0  0  0  0  0  0  0  0  0  0
    3.6070    6.5498   17.5674 C   0  0  0  0  0  0  0  0  0  0  0  0
    4.5395    6.8788   16.8241 O   0  0  0  0  0  0  0  0  0  0  0  0
    3.4433    7.1973   18.8166 N   0  0  0  0  0  0  0  0  0  0  0  0
    1.9448    5.3394   17.9055 H   0  0  0  0  0  0  0  0  0  0  0  0
    2.6003    6.8413   19.3925 H   0  0  0  0  0  0  0  0  0  0  0  0
    4.2363    8.2240   19.3645 C   0  0  0  0  0  0  0  0  0  0  0  0
    3.7507    9.5336   19.2042 C   0  0  0  0  0  0  0  0  0  0  0  0
    4.4372   10.6221   19.6887 C   0  0  0  0  0  0  0  0  0  0  0  0
    5.6242   10.4742   20.3484 C   0  0  0  0  0  0  0  0  0  0  0  0
    6.1054    9.2089   20.5099 C   0  0  0  0  0  0  0  0  0  0  0  0
    5.4132    8.1105   20.0212 C   0  0  0  0  0  0  0  0  0  0  0  0
    7.3084    9.0254   21.1754 O   0  0  0  0  0  0  0  0  0  0  0  0
    7.4762    9.3013   22.5089 C   0  0  0  0  0  0  0  0  0  0  0  0
    8.1411   10.4631   22.8603 C   0  0  0  0  0  0  0  0  0  0  0  0
    8.3141   10.7481   24.1905 C   0  0  0  0  0  0  0  0  0  0  0  0
    7.8659    9.9477   25.1811 N   0  0  0  0  0  0  0  0  0  0  0  0
    7.2247    8.8271   24.8484 C   0  0  0  0  0  0  0  0  0  0  0  0
    7.0263    8.4976   23.5158 C   0  0  0  0  0  0  0  0  0  0  0  0
  7  8  1  0  0  0
  8  9  2  0  0  0
  9 10  1  0  0  0
 10 11  1  0  0  0
 11 12  2  0  0  0
 12 13  1  0  0  0
 13 14  2  0  0  0
 14 15  1  0  0  0
 15  1  1  0  0  0
  1  2  2  0  0  0
  2  3  1  0  0  0
  3  4  2  0  0  0
  4 20  1  0  0  0
 20 21  1  0  0  0
 21 22  2  0  0  0
 21 23  1  0  0  0
 23 26  1  0  0  0
 26 27  2  0  0  0
 27 28  1  0  0  0
 28 29  2  0  0  0
 29 30  1  0  0  0
 30 32  1  0  0  0
 32 33  1  0  0  0
 33 34  2  0  0  0
 34 35  1  0  0  0
 35 36  2  0  0  0
 36 37  1  0  0  0
 37 38  2  0  0  0
 30 31  2  0  0  0
  4  5  1  0  0  0
  5  6  2  0  0  0
 15 16  2  0  0  0
 16  8  1  0  0  0
 16 11  1  0  0  0
  6  1  1  0  0  0
 31 26  1  0  0  0
 38 33  1  0  0  0
  7 17  1  0  0  0
  7 18  1  0  0  0
 10 19  1  0  0  0
 20 24  1  0  0  0
 23 25  1  0  0  0
M  END
> <minimizedAffinity>
-8.22379

> <CNNscore>
0.2387034297

> <CNNaffinity>
5.5677175522

> <CNN_VS>
1.3290332556

> <CNNaffinity_variance>
0.6176267862

$$$$
[H]c1nc([H])c([H])c(Oc2c([H])c([H])c([H])c(N([H])C(=O)N([H])c3c([H])c([H])c(-c4c([H])c([H])c([H])c5c4c(N([H])[H])nn5[H])c([H])c3[H])c2[H])c1[H]


 38 42  0  0  0  0  0  0  0  0999 V2000
    7.1884    7.4882   21.7536 C   0  0  0  0  0  0  0  0  0  0  0  0
    7.4297    8.4020   20.7661 C   0  0  0  0  0  0  0  0  0  0  0  0
    6.5602    8.5484   19.6953 C   0  0  0  0  0  0  0  0  0  0  0  0
    5.4221    7.8043   19.5534 C   0  0  0  0  0  0  0  0  0  0  0  0
    5.2025    6.8739   20.5859 C   0  0  0  0  0  0  0  0  0  0  0  0
    6.0522    6.7197   21.6474 C   0  0  0  0  0  0  0  0  0  0  0  0
    6.1335    9.7412   23.5909 N   0  0  0  0  0  0  0  0  0  0  0  0
    7.1106    9.1133   24.3951 C   0  0  0  0  0  0  0  0  0  0  0  0
    7.4722    9.4328   25.6626 N   0  0  0  0  0  0  0  0  0  0  0  0
    8.4274    8.6419   26.0708 N   0  0  0  0  0  0  0  0  0  0  0  0
    8.7604    7.7549   25.1147 C   0  0  0  0  0  0  0  0  0  0  0  0
    9.7024    6.7552   25.0839 C   0  0  0  0  0  0  0  0  0  0  0  0
    9.8021    6.0183   23.9127 C   0  0  0  0  0  0  0  0  0  0  0  0
    9.0127    6.2571   22.8325 C   0  0  0  0  0  0  0  0  0  0  0  0
    8.0681    7.2807   22.9052 C   0  0  0  0  0  0  0  0  0  0  0  0
    7.9106    8.0566   24.0317 C   0  0  0  0  0  0  0  0  0  0  0  0
    6.3489   10.3404   22.7581 H   0  0  0  0  0  0  0  0  0  0  0  0
    5.1320    9.6036   23.8362 H   0  0  0  0  0  0  0  0  0  0  0  0
    8.8822    8.6877   27.0246 H   0  0  0  0  0  0  0  0  0  0  0  0
    4.4865    7.8545   18.5174 N   0  0  0  0  0  0  0  0  0  0  0  0
    4.6451    7.4929   17.1616 C   0  0  0  0  0  0  0  0  0  0  0  0
    5.7312    7.0605   16.7571 O   0  0  0  0  0  0  0  0  0  0  0  0
    3.5615    7.6235   16.2587 N   0  0  0  0  0  0  0  0  0  0  0  0
    3.4972    8.2172   18.7428 H   0  0  0  0  0  0  0  0  0  0  0  0
    2.6558    8.0081   16.7068 H   0  0  0  0  0  0  0  0  0  0  0  0
    3.5426    7.3108   14.8857 C   0  0  0  0  0  0  0  0  0  0  0  0
    4.3425    8.1164   14.0563 C   0  0  0  0  0  0  0  0  0  0  0  0
    4.4038    7.9157   12.6973 C   0  0  0  0  0  0  0  0  0  0  0  0
    3.6867    6.9210   12.0956 C   0  0  0  0  0  0  0  0  0  0  0  0
    2.9072    6.1332   12.8895 C   0  0  0  0  0  0  0  0  0  0  0  0
    2.8450    6.3353   14.2605 C   0  0  0  0  0  0  0  0  0  0  0  0
    2.1668    5.1143   12.3086 O   0  0  0  0  0  0  0  0  0  0  0  0
    0.8705    5.2759   11.8890 C   0  0  0  0  0  0  0  0  0  0  0  0
   -0.1386    4.6921   12.6347 C   0  0  0  0  0  0  0  0  0  0  0  0
   -1.4377    4.8477   12.2238 C   0  0  0  0  0  0  0  0  0  0  0  0
   -1.7845    5.5461   11.1217 N   0  0  0  0  0  0  0  0  0  0  0  0
   -0.8164    6.1108   10.3995 C   0  0  0  0  0  0  0  0  0  0  0  0
    0.5120    5.9802   10.7765 C   0  0  0  0  0  0  0  0  0  0  0  0
  7  8  1  0  0  0
  8  9  2  0  0  0
  9 10  1  0  0  0
 10 11  1  0  0  0
 11 12  2  0  0  0
 12 13  1  0  0  0
 13 14  2  0  0  0
 14 15  1  0  0  0
 15  1  1  0  0  0
  1  2  2  0  0  0
  2  3  1  0  0  0
  3  4  2  0  0  0
  4 20  1  0  0  0
 20 21  1  0  0  0
 21 22  2  0  0  0
 21 23  1  0  0  0
 23 26  1  0  0  0
 26 27  2  0  0  0
 27 28  1  0  0  0
 28 29  2  0  0  0
 29 30  1  0  0  0
 30 32  1  0  0  0
 32 33  1  0  0  0
 33 34  2  0  0  0
 34 35  1  0  0  0
 35 36  2  0  0  0
 36 37  1  0  0  0
 37 38  2  0  0  0
 30 31  2  0  0  0
  4  5  1  0  0  0
  5  6  2  0  0  0
 15 16  2  0  0  0
 16  8  1  0  0  0
 16 11  1  0  0  0
  6  1  1  0  0  0
 31 26  1  0  0  0
 38 33  1  0  0  0
  7 17  1  0  0  0
  7 18  1  0  0  0
 10 19  1  0  0  0
 20 24  1  0  0  0
 23 25  1  0  0  0
M  END
> <minimizedAffinity>
-8.06930

> <CNNscore>
0.1718494743

> <CNNaffinity>
5.5287427902

> <CNN_VS>
0.9501115680

> <CNNaffinity_variance>
0.3623201549

$$$$
[H]c1nc([H])c([H])c(Oc2c([H])c([H])c([H])c(N([H])C(=O)N([H])c3c([H])c([H])c(-c4c([H])c([H])c([H])c5c4c(N([H])[H])nn5[H])c([H])c3[H])c2[H])c1[H]


 38 42  0  0  0  0  0  0  0  0999 V2000
    4.2207    4.7682   12.1746 C   0  0  0  0  0  0  0  0  0  0  0  0
    4.0217    3.9133   13.2224 C   0  0  0  0  0  0  0  0  0  0  0  0
    3.6625    4.3855   14.4761 C   0  0  0  0  0  0  0  0  0  0  0  0
    3.4852    5.7134   14.7487 C   0  0  0  0  0  0  0  0  0  0  0  0
    3.6970    6.5665   13.6499 C   0  0  0  0  0  0  0  0  0  0  0  0
    4.0515    6.1135   12.4083 C   0  0  0  0  0  0  0  0  0  0  0  0
    1.4062    4.2832   10.9881 N   0  0  0  0  0  0  0  0  0  0  0  0
    2.2577    4.0156    9.8932 C   0  0  0  0  0  0  0  0  0  0  0  0
    1.9031    3.6472    8.6370 N   0  0  0  0  0  0  0  0  0  0  0  0
    2.9680    3.4661    7.9038 N   0  0  0  0  0  0  0  0  0  0  0  0
    4.0876    3.6990    8.6140 C   0  0  0  0  0  0  0  0  0  0  0  0
    5.4169    3.6233    8.2750 C   0  0  0  0  0  0  0  0  0  0  0  0
    6.3390    3.9180    9.2687 C   0  0  0  0  0  0  0  0  0  0  0  0
    5.9660    4.2689   10.5276 C   0  0  0  0  0  0  0  0  0  0  0  0
    4.6061    4.3349   10.8305 C   0  0  0  0  0  0  0  0  0  0  0  0
    3.6315    4.0551    9.8989 C   0  0  0  0  0  0  0  0  0  0  0  0
    1.3055    3.6602   11.8252 H   0  0  0  0  0  0  0  0  0  0  0  0
    0.8389    5.1549   10.9685 H   0  0  0  0  0  0  0  0  0  0  0  0
    2.9580    3.1752    6.8869 H   0  0  0  0  0  0  0  0  0  0  0  0
    3.1404    6.3017   15.9679 N   0  0  0  0  0  0  0  0  0  0  0  0
    3.9697    6.6129   17.0676 C   0  0  0  0  0  0  0  0  0  0  0  0
    5.1806    6.3644   17.0224 O   0  0  0  0  0  0  0  0  0  0  0  0
    3.4189    7.2112   18.2275 N   0  0  0  0  0  0  0  0  0  0  0  0
    2.1085    6.5650   16.1317 H   0  0  0  0  0  0  0  0  0  0  0  0
    2.3541    7.3900   18.1703 H   0  0  0  0  0  0  0  0  0  0  0  0
    4.0936    7.5876   19.4050 C   0  0  0  0  0  0  0  0  0  0  0  0
    4.2244    8.9694   19.6287 C   0  0  0  0  0  0  0  0  0  0  0  0
    4.8685    9.4629   20.7389 C   0  0  0  0  0  0  0  0  0  0  0  0
    5.4097    8.6265   21.6735 C   0  0  0  0  0  0  0  0  0  0  0  0
    5.2893    7.2842   21.4674 C   0  0  0  0  0  0  0  0  0  0  0  0
    4.6396    6.7860   20.3476 C   0  0  0  0  0  0  0  0  0  0  0  0
    5.8283    6.4086   22.3983 O   0  0  0  0  0  0  0  0  0  0  0  0
    5.4305    5.1006   22.5142 C   0  0  0  0  0  0  0  0  0  0  0  0
    6.2826    4.1120   22.0538 C   0  0  0  0  0  0  0  0  0  0  0  0
    5.8944    2.8015   22.1651 C   0  0  0  0  0  0  0  0  0  0  0  0
    4.7156    2.4242   22.7044 N   0  0  0  0  0  0  0  0  0  0  0  0
    3.8907    3.3723   23.1495 C   0  0  0  0  0  0  0  0  0  0  0  0
    4.2410    4.7113   23.0580 C   0  0  0  0  0  0  0  0  0  0  0  0
  7  8  1  0  0  0
  8  9  2  0  0  0
  9 10  1  0  0  0
 10 11  1  0  0  0
 11 12  2  0  0  0
 12 13  1  0  0  0
 13 14  2  0  0  0
 14 15  1  0  0  0
 15  1  1  0  0  0
  1  2  2  0  0  0
  2  3  1  0  0  0
  3  4  2  0  0  0
  4 20  1  0  0  0
 20 21  1  0  0  0
 21 22  2  0  0  0
 21 23  1  0  0  0
 23 26  1  0  0  0
 26 27  2  0  0  0
 27 28  1  0  0  0
 28 29  2  0  0  0
 29 30  1  0  0  0
 30 32  1  0  0  0
 32 33  1  0  0  0
 33 34  2  0  0  0
 34 35  1  0  0  0
 35 36  2  0  0  0
 36 37  1  0  0  0
 37 38  2  0  0  0
 30 31  2  0  0  0
  4  5  1  0  0  0
  5  6  2  0  0  0
 15 16  2  0  0  0
 16  8  1  0  0  0
 16 11  1  0  0  0
  6  1  1  0  0  0
 31 26  1  0  0  0
 38 33  1  0  0  0
  7 17  1  0  0  0
  7 18  1  0  0  0
 10 19  1  0  0  0
 20 24  1  0  0  0
 23 25  1  0  0  0
M  END
> <minimizedAffinity>
-8.30052

> <CNNscore>
0.1582831740

> <CNNaffinity>
5.6778445244

> <CNN_VS>
0.8987072706

> <CNNaffinity_variance>
0.8155534863

$$$$
[H]c1nc([H])c([H])c(Oc2c([H])c([H])c([H])c(N([H])C(=O)N([H])c3c([H])c([H])c(-c4c([H])c([H])c([H])c5c4c(N([H])[H])nn5[H])c([H])c3[H])c2[H])c1[H]


 38 42  0  0  0  0  0  0  0  0999 V2000
    4.7245    3.5547   18.8819 C   0  0  0  0  0  0  0  0  0  0  0  0
    3.5457    3.2354   18.2681 C   0  0  0  0  0  0  0  0  0  0  0  0
    3.3126    3.5709   16.9425 C   0  0  0  0  0  0  0  0  0  0  0  0
    4.2266    4.2319   16.1701 C   0  0  0  0  0  0  0  0  0  0  0  0
    5.4287    4.5455   16.8308 C   0  0  0  0  0  0  0  0  0  0  0  0
    5.6712    4.2203   18.1377 C   0  0  0  0  0  0  0  0  0  0  0  0
    3.7454    6.1696   20.2116 N   0  0  0  0  0  0  0  0  0  0  0  0
    4.1468    5.3875   21.3174 C   0  0  0  0  0  0  0  0  0  0  0  0
    4.0962    5.7205   22.6312 N   0  0  0  0  0  0  0  0  0  0  0  0
    4.5768    4.7499   23.3601 N   0  0  0  0  0  0  0  0  0  0  0  0
    4.9738    3.7196   22.5900 C   0  0  0  0  0  0  0  0  0  0  0  0
    5.5442    2.5101   22.9050 C   0  0  0  0  0  0  0  0  0  0  0  0
    5.8537    1.6647   21.8496 C   0  0  0  0  0  0  0  0  0  0  0  0
    5.6113    1.9977   20.5544 C   0  0  0  0  0  0  0  0  0  0  0  0
    5.0299    3.2349   20.2775 C   0  0  0  0  0  0  0  0  0  0  0  0
    4.6962    4.1286   21.2703 C   0  0  0  0  0  0  0  0  0  0  0  0
    4.4065    6.6094   19.5271 H   0  0  0  0  0  0  0  0  0  0  0  0
    2.7276    6.3229   20.0611 H   0  0  0  0  0  0  0  0  0  0  0  0
    4.6469    4.7657   24.4154 H   0  0  0  0  0  0  0  0  0  0  0  0
    4.0967    4.6318   14.8380 N   0  0  0  0  0  0  0  0  0  0  0  0
    3.7409    3.8586   13.7113 C   0  0  0  0  0  0  0  0  0  0  0  0
    3.4916    2.6537   13.8384 O   0  0  0  0  0  0  0  0  0  0  0  0
    3.6676    4.4591   12.4304 N   0  0  0  0  0  0  0  0  0  0  0  0
    4.2903    5.6637   14.5957 H   0  0  0  0  0  0  0  0  0  0  0  0
    3.9013    5.5148   12.4224 H   0  0  0  0  0  0  0  0  0  0  0  0
    3.3294    3.8441   11.2095 C   0  0  0  0  0  0  0  0  0  0  0  0
    1.9611    3.8192   10.8870 C   0  0  0  0  0  0  0  0  0  0  0  0
    1.5038    3.2414    9.7260 C   0  0  0  0  0  0  0  0  0  0  0  0
    2.3643    2.6656    8.8352 C   0  0  0  0  0  0  0  0  0  0  0  0
    3.6937    2.6834    9.1370 C   0  0  0  0  0  0  0  0  0  0  0  0
    4.1556    3.2662   10.3081 C   0  0  0  0  0  0  0  0  0  0  0  0
    4.5933    2.1068    8.2526 O   0  0  0  0  0  0  0  0  0  0  0  0
    5.7652    2.7123    7.8752 C   0  0  0  0  0  0  0  0  0  0  0  0
    5.6935    3.8495    7.0899 C   0  0  0  0  0  0  0  0  0  0  0  0
    6.8592    4.4622    6.7074 C   0  0  0  0  0  0  0  0  0  0  0  0
    8.0811    4.0095    7.0602 N   0  0  0  0  0  0  0  0  0  0  0  0
    8.1563    2.9143    7.8168 C   0  0  0  0  0  0  0  0  0  0  0  0
    7.0039    2.2609    8.2278 C   0  0  0  0  0  0  0  0  0  0  0  0
  7  8  1  0  0  0
  8  9  2  0  0  0
  9 10  1  0  0  0
 10 11  1  0  0  0
 11 12  2  0  0  0
 12 13  1  0  0  0
 13 14  2  0  0  0
 14 15  1  0  0  0
 15  1  1  0  0  0
  1  2  2  0  0  0
  2  3  1  0  0  0
  3  4  2  0  0  0
  4 20  1  0  0  0
 20 21  1  0  0  0
 21 22  2  0  0  0
 21 23  1  0  0  0
 23 26  1  0  0  0
 26 27  2  0  0  0
 27 28  1  0  0  0
 28 29  2  0  0  0
 29 30  1  0  0  0
 30 32  1  0  0  0
 32 33  1  0  0  0
 33 34  2  0  0  0
 34 35  1  0  0  0
 35 36  2  0  0  0
 36 37  1  0  0  0
 37 38  2  0  0  0
 30 31  2  0  0  0
  4  5  1  0  0  0
  5  6  2  0  0  0
 15 16  2  0  0  0
 16  8  1  0  0  0
 16 11  1  0  0  0
  6  1  1  0  0  0
 31 26  1  0  0  0
 38 33  1  0  0  0
  7 17  1  0  0  0
  7 18  1  0  0  0
 10 19  1  0  0  0
 20 24  1  0  0  0
 23 25  1  0  0  0
M  END
> <minimizedAffinity>
-7.88756

> <CNNscore>
0.1581251174

> <CNNaffinity>
5.8062505722

> <CNN_VS>
0.9181140661

> <CNNaffinity_variance>
0.2017873824

$$$$
[H]c1nc([H])c([H])c(Oc2c([H])c([H])c([H])c(N([H])C(=O)N([H])c3c([H])c([H])c(-c4c([H])c([H])c([H])c5c4c(N([H])[H])nn5[H])c([H])c3[H])c2[H])c1[H]


 38 42  0  0  0  0  0  0  0  0999 V2000
    4.2897    4.2492   19.4045 C   0  0  0  0  0  0  0  0  0  0  0  0
    5.4020    3.9995   18.6502 C   0  0  0  0  0  0  0  0  0  0  0  0
    5.4338    4.3005   17.2965 C   0  0  0  0  0  0  0  0  0  0  0  0
    4.3763    4.8573   16.6327 C   0  0  0  0  0  0  0  0  0  0  0  0
    3.2479    5.1021   17.4369 C   0  0  0  0  0  0  0  0  0  0  0  0
    3.2036    4.8099   18.7730 C   0  0  0  0  0  0  0  0  0  0  0  0
    3.7748    1.2045   19.2352 N   0  0  0  0  0  0  0  0  0  0  0  0
    3.8323    1.4351   20.6277 C   0  0  0  0  0  0  0  0  0  0  0  0
    3.7005    0.5259   21.6255 N   0  0  0  0  0  0  0  0  0  0  0  0
    3.7885    1.1163   22.7866 N   0  0  0  0  0  0  0  0  0  0  0  0
    3.9823    2.4404   22.6407 C   0  0  0  0  0  0  0  0  0  0  0  0
    4.1177    3.4509   23.5616 C   0  0  0  0  0  0  0  0  0  0  0  0
    4.2916    4.7355   23.0676 C   0  0  0  0  0  0  0  0  0  0  0  0
    4.3304    5.0047   21.7359 C   0  0  0  0  0  0  0  0  0  0  0  0
    4.1900    3.9500   20.8341 C   0  0  0  0  0  0  0  0  0  0  0  0
    4.0120    2.6487   21.2473 C   0  0  0  0  0  0  0  0  0  0  0  0
    2.9831    1.5064   18.6179 H   0  0  0  0  0  0  0  0  0  0  0  0
    4.5676    0.7021   18.7867 H   0  0  0  0  0  0  0  0  0  0  0  0
    3.7177    0.6245   23.7203 H   0  0  0  0  0  0  0  0  0  0  0  0
    4.2899    5.1878   15.2782 N   0  0  0  0  0  0  0  0  0  0  0  0
    3.7281    4.4428   14.2183 C   0  0  0  0  0  0  0  0  0  0  0  0
    3.2198    3.3366   14.4378 O   0  0  0  0  0  0  0  0  0  0  0  0
    3.7437    4.9587   12.8991 N   0  0  0  0  0  0  0  0  0  0  0  0
    4.7009    6.1309   14.9577 H   0  0  0  0  0  0  0  0  0  0  0  0
    4.2078    5.9312   12.8096 H   0  0  0  0  0  0  0  0  0  0  0  0
    3.2310    4.3573   11.7335 C   0  0  0  0  0  0  0  0  0  0  0  0
    4.1718    3.7410   10.8898 C   0  0  0  0  0  0  0  0  0  0  0  0
    3.7967    3.1254    9.7188 C   0  0  0  0  0  0  0  0  0  0  0  0
    2.4889    3.0876    9.3263 C   0  0  0  0  0  0  0  0  0  0  0  0
    1.5673    3.6820   10.1362 C   0  0  0  0  0  0  0  0  0  0  0  0
    1.9452    4.3033   11.3176 C   0  0  0  0  0  0  0  0  0  0  0  0
    0.2310    3.6607    9.7654 O   0  0  0  0  0  0  0  0  0  0  0  0
   -0.3244    4.5810    8.9127 C   0  0  0  0  0  0  0  0  0  0  0  0
   -0.5521    4.2062    7.6001 C   0  0  0  0  0  0  0  0  0  0  0  0
   -1.1068    5.1188    6.7397 C   0  0  0  0  0  0  0  0  0  0  0  0
   -1.4444    6.3722    7.1106 N   0  0  0  0  0  0  0  0  0  0  0  0
   -1.2274    6.7388    8.3740 C   0  0  0  0  0  0  0  0  0  0  0  0
   -0.6684    5.8495    9.2798 C   0  0  0  0  0  0  0  0  0  0  0  0
  7  8  1  0  0  0
  8  9  2  0  0  0
  9 10  1  0  0  0
 10 11  1  0  0  0
 11 12  2  0  0  0
 12 13  1  0  0  0
 13 14  2  0  0  0
 14 15  1  0  0  0
 15  1  1  0  0  0
  1  2  2  0  0  0
  2  3  1  0  0  0
  3  4  2  0  0  0
  4 20  1  0  0  0
 20 21  1  0  0  0
 21 22  2  0  0  0
 21 23  1  0  0  0
 23 26  1  0  0  0
 26 27  2  0  0  0
 27 28  1  0  0  0
 28 29  2  0  0  0
 29 30  1  0  0  0
 30 32  1  0  0  0
 32 33  1  0  0  0
 33 34  2  0  0  0
 34 35  1  0  0  0
 35 36  2  0  0  0
 36 37  1  0  0  0
 37 38  2  0  0  0
 30 31  2  0  0  0
  4  5  1  0  0  0
  5  6  2  0  0  0
 15 16  2  0  0  0
 16  8  1  0  0  0
 16 11  1  0  0  0
  6  1  1  0  0  0
 31 26  1  0  0  0
 38 33  1  0  0  0
  7 17  1  0  0  0
  7 18  1  0  0  0
 10 19  1  0  0  0
 20 24  1  0  0  0
 23 25  1  0  0  0
M  END
> <minimizedAffinity>
-7.64069

> <CNNscore>
0.1575849801

> <CNNaffinity>
5.9495034218

> <CNN_VS>
0.9375523925

> <CNNaffinity_variance>
0.7728857994

$$$$
[H]c1nc([H])c([H])c(Oc2c([H])c([H])c([H])c(N([H])C(=O)N([H])c3c([H])c([H])c(-c4c([H])c([H])c([H])c5c4c(N([H])[H])nn5[H])c([H])c3[H])c2[H])c1[H]


 38 42  0  0  0  0  0  0  0  0999 V2000
    4.2534    4.2665   19.2601 C   0  0  0  0  0  0  0  0  0  0  0  0
    5.3671    4.0168   18.5080 C   0  0  0  0  0  0  0  0  0  0  0  0
    5.3634    4.2079   17.1341 C   0  0  0  0  0  0  0  0  0  0  0  0
    4.2674    4.6508   16.4472 C   0  0  0  0  0  0  0  0  0  0  0  0
    3.1385    4.8987   17.2497 C   0  0  0  0  0  0  0  0  0  0  0  0
    3.1292    4.7143   18.6056 C   0  0  0  0  0  0  0  0  0  0  0  0
    3.8348    1.2035   19.3440 N   0  0  0  0  0  0  0  0  0  0  0  0
    3.9109    1.5465   20.7123 C   0  0  0  0  0  0  0  0  0  0  0  0
    3.8276    0.7164   21.7816 N   0  0  0  0  0  0  0  0  0  0  0  0
    3.9182    1.4003   22.8901 N   0  0  0  0  0  0  0  0  0  0  0  0
    4.0660    2.7138   22.6355 C   0  0  0  0  0  0  0  0  0  0  0  0
    4.1857    3.7984   23.4702 C   0  0  0  0  0  0  0  0  0  0  0  0
    4.3084    5.0441   22.8721 C   0  0  0  0  0  0  0  0  0  0  0  0
    4.3133    5.2070   21.5228 C   0  0  0  0  0  0  0  0  0  0  0  0
    4.1904    4.0797   20.7107 C   0  0  0  0  0  0  0  0  0  0  0  0
    4.0627    2.8107   21.2296 C   0  0  0  0  0  0  0  0  0  0  0  0
    3.0222    1.4305   18.7217 H   0  0  0  0  0  0  0  0  0  0  0  0
    4.6349    0.6916   18.9200 H   0  0  0  0  0  0  0  0  0  0  0  0
    3.8811    0.9828   23.8612 H   0  0  0  0  0  0  0  0  0  0  0  0
    4.1439    4.8647   15.0723 N   0  0  0  0  0  0  0  0  0  0  0  0
    3.8936    3.9253   14.0482 C   0  0  0  0  0  0  0  0  0  0  0  0
    3.7487    2.7284   14.3251 O   0  0  0  0  0  0  0  0  0  0  0  0
    3.8070    4.3490   12.6993 N   0  0  0  0  0  0  0  0  0  0  0  0
    4.2523    5.8709   14.7025 H   0  0  0  0  0  0  0  0  0  0  0  0
    3.9460    5.4121   12.5595 H   0  0  0  0  0  0  0  0  0  0  0  0
    3.5631    3.5555   11.5617 C   0  0  0  0  0  0  0  0  0  0  0  0
    4.4018    3.7833   10.4566 C   0  0  0  0  0  0  0  0  0  0  0  0
    4.2597    3.0772    9.2852 C   0  0  0  0  0  0  0  0  0  0  0  0
    3.2935    2.1217    9.1473 C   0  0  0  0  0  0  0  0  0  0  0  0
    2.4738    1.8919   10.2122 C   0  0  0  0  0  0  0  0  0  0  0  0
    2.6167    2.6039   11.3942 C   0  0  0  0  0  0  0  0  0  0  0  0
    1.4825    0.9278   10.1038 O   0  0  0  0  0  0  0  0  0  0  0  0
    0.2215    1.1994    9.6364 C   0  0  0  0  0  0  0  0  0  0  0  0
   -0.6499    0.1414    9.4452 C   0  0  0  0  0  0  0  0  0  0  0  0
   -1.9127    0.4023    8.9784 C   0  0  0  0  0  0  0  0  0  0  0  0
   -2.3519    1.6468    8.6940 N   0  0  0  0  0  0  0  0  0  0  0  0
   -1.5167    2.6700    8.8764 C   0  0  0  0  0  0  0  0  0  0  0  0
   -0.2299    2.4543    9.3468 C   0  0  0  0  0  0  0  0  0  0  0  0
  7  8  1  0  0  0
  8  9  2  0  0  0
  9 10  1  0  0  0
 10 11  1  0  0  0
 11 12  2  0  0  0
 12 13  1  0  0  0
 13 14  2  0  0  0
 14 15  1  0  0  0
 15  1  1  0  0  0
  1  2  2  0  0  0
  2  3  1  0  0  0
  3  4  2  0  0  0
  4 20  1  0  0  0
 20 21  1  0  0  0
 21 22  2  0  0  0
 21 23  1  0  0  0
 23 26  1  0  0  0
 26 27  2  0  0  0
 27 28  1  0  0  0
 28 29  2  0  0  0
 29 30  1  0  0  0
 30 32  1  0  0  0
 32 33  1  0  0  0
 33 34  2  0  0  0
 34 35  1  0  0  0
 35 36  2  0  0  0
 36 37  1  0  0  0
 37 38  2  0  0  0
 30 31  2  0  0  0
  4  5  1  0  0  0
  5  6  2  0  0  0
 15 16  2  0  0  0
 16  8  1  0  0  0
 16 11  1  0  0  0
  6  1  1  0  0  0
 31 26  1  0  0  0
 38 33  1  0  0  0
  7 17  1  0  0  0
  7 18  1  0  0  0
 10 19  1  0  0  0
 20 24  1  0  0  0
 23 25  1  0  0  0
M  END
> <minimizedAffinity>
-8.27888

> <CNNscore>
0.1409030706

> <CNNaffinity>
5.9322443008

> <CNN_VS>
0.8358714581

> <CNNaffinity_variance>
0.6666054726

$$$$
[H]c1nc([H])c([H])c(Oc2c([H])c([H])c([H])c(N([H])C(=O)N([H])c3c([H])c([H])c(-c4c([H])c([H])c([H])c5c4c(N([H])[H])nn5[H])c([H])c3[H])c2[H])c1[H]


 38 42  0  0  0  0  0  0  0  0999 V2000
    4.1222    6.6223   11.5719 C   0  0  0  0  0  0  0  0  0  0  0  0
    4.8611    7.6458   12.0961 C   0  0  0  0  0  0  0  0  0  0  0  0
    4.6560    8.0873   13.3950 C   0  0  0  0  0  0  0  0  0  0  0  0
    3.7190    7.5415   14.2275 C   0  0  0  0  0  0  0  0  0  0  0  0
    2.9761    6.4907   13.6584 C   0  0  0  0  0  0  0  0  0  0  0  0
    3.1686    6.0458   12.3787 C   0  0  0  0  0  0  0  0  0  0  0  0
    2.2025    8.5466   10.0968 N   0  0  0  0  0  0  0  0  0  0  0  0
    2.7380    7.7712    9.0444 C   0  0  0  0  0  0  0  0  0  0  0  0
    2.4678    7.8718    7.7191 N   0  0  0  0  0  0  0  0  0  0  0  0
    3.1364    6.9691    7.0539 N   0  0  0  0  0  0  0  0  0  0  0  0
    3.8864    6.2176    7.8813 C   0  0  0  0  0  0  0  0  0  0  0  0
    4.7286    5.1586    7.6426 C   0  0  0  0  0  0  0  0  0  0  0  0
    5.3487    4.5853    8.7432 C   0  0  0  0  0  0  0  0  0  0  0  0
    5.1471    5.0359   10.0096 C   0  0  0  0  0  0  0  0  0  0  0  0
    4.2851    6.1141   10.2087 C   0  0  0  0  0  0  0  0  0  0  0  0
    3.6316    6.7344    9.1674 C   0  0  0  0  0  0  0  0  0  0  0  0
    1.5147    8.1903   10.8032 H   0  0  0  0  0  0  0  0  0  0  0  0
    2.5069    9.5376   10.1818 H   0  0  0  0  0  0  0  0  0  0  0  0
    3.0976    6.8411    6.0046 H   0  0  0  0  0  0  0  0  0  0  0  0
    3.4163    7.9114   15.5401 N   0  0  0  0  0  0  0  0  0  0  0  0
    4.1746    7.7117   16.7145 C   0  0  0  0  0  0  0  0  0  0  0  0
    5.2705    7.1409   16.6565 O   0  0  0  0  0  0  0  0  0  0  0  0
    3.6841    8.1640   17.9640 N   0  0  0  0  0  0  0  0  0  0  0  0
    2.4827    8.4173   15.7234 H   0  0  0  0  0  0  0  0  0  0  0  0
    2.7201    8.6508   17.9112 H   0  0  0  0  0  0  0  0  0  0  0  0
    4.3037    8.0518   19.2237 C   0  0  0  0  0  0  0  0  0  0  0  0
    4.3740    9.2310   19.9861 C   0  0  0  0  0  0  0  0  0  0  0  0
    4.9609    9.2523   21.2295 C   0  0  0  0  0  0  0  0  0  0  0  0
    5.5018    8.1236   21.7765 C   0  0  0  0  0  0  0  0  0  0  0  0
    5.4397    6.9738   21.0465 C   0  0  0  0  0  0  0  0  0  0  0  0
    4.8478    6.9518   19.7921 C   0  0  0  0  0  0  0  0  0  0  0  0
    5.9800    5.8105   21.5744 O   0  0  0  0  0  0  0  0  0  0  0  0
    5.2141    4.7536   21.9970 C   0  0  0  0  0  0  0  0  0  0  0  0
    5.3266    3.5502   21.3227 C   0  0  0  0  0  0  0  0  0  0  0  0
    4.5653    2.4876   21.7372 C   0  0  0  0  0  0  0  0  0  0  0  0
    3.7062    2.5560   22.7764 N   0  0  0  0  0  0  0  0  0  0  0  0
    3.5937    3.7128   23.4297 C   0  0  0  0  0  0  0  0  0  0  0  0
    4.3437    4.8148   23.0462 C   0  0  0  0  0  0  0  0  0  0  0  0
  7  8  1  0  0  0
  8  9  2  0  0  0
  9 10  1  0  0  0
 10 11  1  0  0  0
 11 12  2  0  0  0
 12 13  1  0  0  0
 13 14  2  0  0  0
 14 15  1  0  0  0
 15  1  1  0  0  0
  1  2  2  0  0  0
  2  3  1  0  0  0
  3  4  2  0  0  0
  4 20  1  0  0  0
 20 21  1  0  0  0
 21 22  2  0  0  0
 21 23  1  0  0  0
 23 26  1  0  0  0
 26 27  2  0  0  0
 27 28  1  0  0  0
 28 29  2  0  0  0
 29 30  1  0  0  0
 30 32  1  0  0  0
 32 33  1  0  0  0
 33 34  2  0  0  0
 34 35  1  0  0  0
 35 36  2  0  0  0
 36 37  1  0  0  0
 37 38  2  0  0  0
 30 31  2  0  0  0
  4  5  1  0  0  0
  5  6  2  0  0  0
 15 16  2  0  0  0
 16  8  1  0  0  0
 16 11  1  0  0  0
  6  1  1  0  0  0
 31 26  1  0  0  0
 38 33  1  0  0  0
  7 17  1  0  0  0
  7 18  1  0  0  0
 10 19  1  0  0  0
 20 24  1  0  0  0
 23 25  1  0  0  0
M  END
> <minimizedAffinity>
-8.13888

> <CNNscore>
0.1293772906

> <CNNaffinity>
5.3684396744

> <CNN_VS>
0.6945541501

> <CNNaffinity_variance>
0.6419955492

$$$$
[H]c1nc(N(C([H])([H])[H])C([H])([H])c2nc(N([H])c3c([H])c(C([H])([H])[H])c([H])c(C([H])([H])[H])c3[H])nc([H])c2[H])c2c([H])c([H])sc2n1


 28 31  0  0  0  0  0  0  0  0999 V2000
    3.5600    2.3922   16.4842 C   0  0  0  0  0  0  0  0  0  0  0  0
    2.9528    1.5415   15.5909 C   0  0  0  0  0  0  0  0  0  0  0  0
    2.3978    0.3587   16.0475 C   0  0  0  0  0  0  0  0  0  0  0  0
    2.4681    0.0809   17.3317 N   0  0  0  0  0  0  0  0  0  0  0  0
    3.0452    0.8782   18.2159 C   0  0  0  0  0  0  0  0  0  0  0  0
    3.5905    2.0414   17.7649 N   0  0  0  0  0  0  0  0  0  0  0  0
    3.1197    0.5832   19.5796 N   0  0  0  0  0  0  0  0  0  0  0  0
    2.3888   -0.1346   19.9202 H   0  0  0  0  0  0  0  0  0  0  0  0
    3.9827    1.0543   20.5694 C   0  0  0  0  0  0  0  0  0  0  0  0
    5.3023    0.5686   20.5769 C   0  0  0  0  0  0  0  0  0  0  0  0
    6.2223    0.9853   21.5054 C   0  0  0  0  0  0  0  0  0  0  0  0
    7.6144    0.4858   21.5293 C   0  0  0  0  0  0  0  0  0  0  0  0
    5.8618    1.9065   22.4672 C   0  0  0  0  0  0  0  0  0  0  0  0
    4.5842    2.4170   22.5088 C   0  0  0  0  0  0  0  0  0  0  0  0
    4.1623    3.4148   23.5362 C   0  0  0  0  0  0  0  0  0  0  0  0
    3.6873    1.9686   21.5518 C   0  0  0  0  0  0  0  0  0  0  0  0
    4.1831    3.6901   16.0441 C   0  0  0  0  0  0  0  0  0  0  0  0
    2.2783    5.2374   15.9208 C   0  0  0  0  0  0  0  0  0  0  0  0
    3.5223    4.8166   16.5953 N   0  0  0  0  0  0  0  0  0  0  0  0
    3.8762    5.5820   17.7309 C   0  0  0  0  0  0  0  0  0  0  0  0
    3.4555    5.1683   18.9579 N   0  0  0  0  0  0  0  0  0  0  0  0
    3.7369    5.7515   20.1043 C   0  0  0  0  0  0  0  0  0  0  0  0
    4.5067    6.8536   20.0708 N   0  0  0  0  0  0  0  0  0  0  0  0
    4.9656    7.3272   18.8636 C   0  0  0  0  0  0  0  0  0  0  0  0
    5.9308    8.6717   18.4127 S   0  0  0  0  0  0  0  0  0  0  0  0
    5.9452    8.4448   16.7290 C   0  0  0  0  0  0  0  0  0  0  0  0
    5.1898    7.3151   16.5602 C   0  0  0  0  0  0  0  0  0  0  0  0
    4.6818    6.7327   17.6633 C   0  0  0  0  0  0  0  0  0  0  0  0
 18 19  1  0  0  0
 19 17  1  0  0  0
 17  1  1  0  0  0
  1  2  2  0  0  0
  2  3  1  0  0  0
  3  4  2  0  0  0
  4  5  1  0  0  0
  5  7  1  0  0  0
  7  9  1  0  0  0
  9 10  2  0  0  0
 10 11  1  0  0  0
 11 12  1  0  0  0
 11 13  2  0  0  0
 13 14  1  0  0  0
 14 15  1  0  0  0
 14 16  2  0  0  0
  5  6  2  0  0  0
 19 20  1  0  0  0
 20 21  2  0  0  0
 21 22  1  0  0  0
 22 23  2  0  0  0
 23 24  1  0  0  0
 24 25  1  0  0  0
 25 26  1  0  0  0
 26 27  2  0  0  0
 27 28  1  0  0  0
  6  1  1  0  0  0
 28 20  1  0  0  0
 16  9  1  0  0  0
 28 24  2  0  0  0
  7  8  1  0  0  0
M  END
> <minimizedAffinity>
-7.48072

> <CNNscore>
0.4621358216

> <CNNaffinity>
6.8816308975

> <CNN_VS>
3.1802482605

> <CNNaffinity_variance>
0.4464875162

$$$$
[H]c1nc(N(C([H])([H])[H])C([H])([H])c2nc(N([H])c3c([H])c(C([H])([H])[H])c([H])c(C([H])([H])[H])c3[H])nc([H])c2[H])c2c([H])c([H])sc2n1


 28 31  0  0  0  0  0  0  0  0999 V2000
    4.3158    1.8301   21.0829 C   0  0  0  0  0  0  0  0  0  0  0  0
    3.4314    0.9162   21.6053 C   0  0  0  0  0  0  0  0  0  0  0  0
    2.7712    0.0458   20.7555 C   0  0  0  0  0  0  0  0  0  0  0  0
    3.0107    0.1191   19.4638 N   0  0  0  0  0  0  0  0  0  0  0  0
    3.8552    0.9867   18.9305 C   0  0  0  0  0  0  0  0  0  0  0  0
    4.5039    1.8421   19.7681 N   0  0  0  0  0  0  0  0  0  0  0  0
    4.1094    1.0645   17.5588 N   0  0  0  0  0  0  0  0  0  0  0  0
    4.7520    0.2839   17.1804 H   0  0  0  0  0  0  0  0  0  0  0  0
    3.6671    1.9751   16.5989 C   0  0  0  0  0  0  0  0  0  0  0  0
    2.8320    1.4964   15.5739 C   0  0  0  0  0  0  0  0  0  0  0  0
    2.3404    2.3223   14.5949 C   0  0  0  0  0  0  0  0  0  0  0  0
    1.4609    1.8372   13.5090 C   0  0  0  0  0  0  0  0  0  0  0  0
    2.6632    3.6637   14.5989 C   0  0  0  0  0  0  0  0  0  0  0  0
    3.4765    4.1888   15.5775 C   0  0  0  0  0  0  0  0  0  0  0  0
    3.8446    5.6354   15.6104 C   0  0  0  0  0  0  0  0  0  0  0  0
    3.9505    3.3187   16.5468 C   0  0  0  0  0  0  0  0  0  0  0  0
    5.0594    2.8030   21.9586 C   0  0  0  0  0  0  0  0  0  0  0  0
    3.5375    4.2074   23.2812 C   0  0  0  0  0  0  0  0  0  0  0  0
    4.3811    4.0416   22.0810 N   0  0  0  0  0  0  0  0  0  0  0  0
    4.4246    5.1632   21.2202 C   0  0  0  0  0  0  0  0  0  0  0  0
    3.5658    5.2137   20.1648 N   0  0  0  0  0  0  0  0  0  0  0  0
    3.4623    6.2051   19.3045 C   0  0  0  0  0  0  0  0  0  0  0  0
    4.2717    7.2653   19.4746 N   0  0  0  0  0  0  0  0  0  0  0  0
    5.1648    7.2794   20.5208 C   0  0  0  0  0  0  0  0  0  0  0  0
    6.3433    8.4071   21.0520 S   0  0  0  0  0  0  0  0  0  0  0  0
    6.9511    7.5560   22.3910 C   0  0  0  0  0  0  0  0  0  0  0  0
    6.2118    6.4033   22.3895 C   0  0  0  0  0  0  0  0  0  0  0  0
    5.2850    6.2569   21.4233 C   0  0  0  0  0  0  0  0  0  0  0  0
 18 19  1  0  0  0
 19 17  1  0  0  0
 17  1  1  0  0  0
  1  2  2  0  0  0
  2  3  1  0  0  0
  3  4  2  0  0  0
  4  5  1  0  0  0
  5  7  1  0  0  0
  7  9  1  0  0  0
  9 10  2  0  0  0
 10 11  1  0  0  0
 11 12  1  0  0  0
 11 13  2  0  0  0
 13 14  1  0  0  0
 14 15  1  0  0  0
 14 16  2  0  0  0
  5  6  2  0  0  0
 19 20  1  0  0  0
 20 21  2  0  0  0
 21 22  1  0  0  0
 22 23  2  0  0  0
 23 24  1  0  0  0
 24 25  1  0  0  0
 25 26  1  0  0  0
 26 27  2  0  0  0
 27 28  1  0  0  0
  6  1  1  0  0  0
 28 20  1  0  0  0
 16  9  1  0  0  0
 28 24  2  0  0  0
  7  8  1  0  0  0
M  END
> <minimizedAffinity>
-8.60273

> <CNNscore>
0.4237333238

> <CNNaffinity>
6.8515114784

> <CNN_VS>
2.9032137394

> <CNNaffinity_variance>
0.4990466237

$$$$
[H]c1nc(N(C([H])([H])[H])C([H])([H])c2nc(N([H])c3c([H])c(C([H])([H])[H])c([H])c(C([H])([H])[H])c3[H])nc([H])c2[H])c2c([H])c([H])sc2n1


 28 31  0  0  0  0  0  0  0  0999 V2000
    5.4200    3.2326   22.1351 C   0  0  0  0  0  0  0  0  0  0  0  0
    4.7278    3.0145   23.3028 C   0  0  0  0  0  0  0  0  0  0  0  0
    3.6437    3.8179   23.6112 C   0  0  0  0  0  0  0  0  0  0  0  0
    3.3051    4.7733   22.7724 N   0  0  0  0  0  0  0  0  0  0  0  0
    3.9506    5.0084   21.6416 C   0  0  0  0  0  0  0  0  0  0  0  0
    5.0166    4.2171   21.3398 N   0  0  0  0  0  0  0  0  0  0  0  0
    3.5909    6.0230   20.7509 N   0  0  0  0  0  0  0  0  0  0  0  0
    3.1276    6.8800   21.2161 H   0  0  0  0  0  0  0  0  0  0  0  0
    3.7367    6.1162   19.3666 C   0  0  0  0  0  0  0  0  0  0  0  0
    4.7878    6.9058   18.8677 C   0  0  0  0  0  0  0  0  0  0  0  0
    5.0135    7.0450   17.5216 C   0  0  0  0  0  0  0  0  0  0  0  0
    6.1137    7.8710   16.9781 C   0  0  0  0  0  0  0  0  0  0  0  0
    4.1970    6.3998   16.6158 C   0  0  0  0  0  0  0  0  0  0  0  0
    3.1524    5.6132   17.0459 C   0  0  0  0  0  0  0  0  0  0  0  0
    2.2507    4.9018   16.0919 C   0  0  0  0  0  0  0  0  0  0  0  0
    2.9609    5.5004   18.4140 C   0  0  0  0  0  0  0  0  0  0  0  0
    6.6084    2.3926   21.7499 C   0  0  0  0  0  0  0  0  0  0  0  0
    7.2426    0.0740   21.2405 C   0  0  0  0  0  0  0  0  0  0  0  0
    6.2267    1.1444   21.1973 N   0  0  0  0  0  0  0  0  0  0  0  0
    4.9853    0.7692   20.6324 C   0  0  0  0  0  0  0  0  0  0  0  0
    4.1461   -0.0198   21.3584 N   0  0  0  0  0  0  0  0  0  0  0  0
    2.9477   -0.4166   20.9839 C   0  0  0  0  0  0  0  0  0  0  0  0
    2.5049   -0.0125   19.7803 N   0  0  0  0  0  0  0  0  0  0  0  0
    3.3028    0.7860   18.9940 C   0  0  0  0  0  0  0  0  0  0  0  0
    3.1106    1.4781   17.4363 S   0  0  0  0  0  0  0  0  0  0  0  0
    4.6065    2.2730   17.3045 C   0  0  0  0  0  0  0  0  0  0  0  0
    5.2231    1.9754   18.4905 C   0  0  0  0  0  0  0  0  0  0  0  0
    4.5507    1.2067   19.3685 C   0  0  0  0  0  0  0  0  0  0  0  0
 18 19  1  0  0  0
 19 17  1  0  0  0
 17  1  1  0  0  0
  1  2  2  0  0  0
  2  3  1  0  0  0
  3  4  2  0  0  0
  4  5  1  0  0  0
  5  7  1  0  0  0
  7  9  1  0  0  0
  9 10  2  0  0  0
 10 11  1  0  0  0
 11 12  1  0  0  0
 11 13  2  0  0  0
 13 14  1  0  0  0
 14 15  1  0  0  0
 14 16  2  0  0  0
  5  6  2  0  0  0
 19 20  1  0  0  0
 20 21  2  0  0  0
 21 22  1  0  0  0
 22 23  2  0  0  0
 23 24  1  0  0  0
 24 25  1  0  0  0
 25 26  1  0  0  0
 26 27  2  0  0  0
 27 28  1  0  0  0
  6  1  1  0  0  0
 28 20  1  0  0  0
 16  9  1  0  0  0
 28 24  2  0  0  0
  7  8  1  0  0  0
M  END
> <minimizedAffinity>
-7.72253

> <CNNscore>
0.3408032358

> <CNNaffinity>
6.6901731491

> <CNN_VS>
2.2800326347

> <CNNaffinity_variance>
0.3734554648

$$$$
[H]c1nc(N(C([H])([H])[H])C([H])([H])c2nc(N([H])c3c([H])c(C([H])([H])[H])c([H])c(C([H])([H])[H])c3[H])nc([H])c2[H])c2c([H])c([H])sc2n1


 28 31  0  0  0  0  0  0  0  0999 V2000
    4.6800    1.9987   21.4139 C   0  0  0  0  0  0  0  0  0  0  0  0
    3.6800    1.1677   21.8608 C   0  0  0  0  0  0  0  0  0  0  0  0
    2.9832    0.3914   20.9511 C   0  0  0  0  0  0  0  0  0  0  0  0
    3.3001    0.4720   19.6766 N   0  0  0  0  0  0  0  0  0  0  0  0
    4.2565    1.2614   19.2154 C   0  0  0  0  0  0  0  0  0  0  0  0
    4.9409    2.0243   20.1117 N   0  0  0  0  0  0  0  0  0  0  0  0
    4.5929    1.3470   17.8620 N   0  0  0  0  0  0  0  0  0  0  0  0
    5.4354    0.7368   17.5734 H   0  0  0  0  0  0  0  0  0  0  0  0
    4.0193    2.0813   16.8237 C   0  0  0  0  0  0  0  0  0  0  0  0
    4.3288    3.4502   16.7371 C   0  0  0  0  0  0  0  0  0  0  0  0
    3.8200    4.2466   15.7426 C   0  0  0  0  0  0  0  0  0  0  0  0
    4.1341    5.6880   15.6353 C   0  0  0  0  0  0  0  0  0  0  0  0
    2.9788    3.7076   14.7910 C   0  0  0  0  0  0  0  0  0  0  0  0
    2.6408    2.3737   14.8251 C   0  0  0  0  0  0  0  0  0  0  0  0
    1.7335    1.7597   13.8107 C   0  0  0  0  0  0  0  0  0  0  0  0
    3.1775    1.6062   15.8468 C   0  0  0  0  0  0  0  0  0  0  0  0
    5.4686    2.8677   22.3569 C   0  0  0  0  0  0  0  0  0  0  0  0
    3.7330    4.1364   23.5467 C   0  0  0  0  0  0  0  0  0  0  0  0
    4.8466    4.1222   22.5775 N   0  0  0  0  0  0  0  0  0  0  0  0
    5.1676    5.3801   22.0157 C   0  0  0  0  0  0  0  0  0  0  0  0
    6.1499    6.1250   22.5936 N   0  0  0  0  0  0  0  0  0  0  0  0
    6.5841    7.2913   22.1635 C   0  0  0  0  0  0  0  0  0  0  0  0
    6.0134    7.7998   21.0573 N   0  0  0  0  0  0  0  0  0  0  0  0
    5.0134    7.0994   20.4234 C   0  0  0  0  0  0  0  0  0  0  0  0
    4.0527    7.4078   19.0362 S   0  0  0  0  0  0  0  0  0  0  0  0
    3.0981    6.0023   19.0476 C   0  0  0  0  0  0  0  0  0  0  0  0
    3.5580    5.3220   20.1435 C   0  0  0  0  0  0  0  0  0  0  0  0
    4.5506    5.8863   20.8578 C   0  0  0  0  0  0  0  0  0  0  0  0
 18 19  1  0  0  0
 19 17  1  0  0  0
 17  1  1  0  0  0
  1  2  2  0  0  0
  2  3  1  0  0  0
  3  4  2  0  0  0
  4  5  1  0  0  0
  5  7  1  0  0  0
  7  9  1  0  0  0
  9 10  2  0  0  0
 10 11  1  0  0  0
 11 12  1  0  0  0
 11 13  2  0  0  0
 13 14  1  0  0  0
 14 15  1  0  0  0
 14 16  2  0  0  0
  5  6  2  0  0  0
 19 20  1  0  0  0
 20 21  2  0  0  0
 21 22  1  0  0  0
 22 23  2  0  0  0
 23 24  1  0  0  0
 24 25  1  0  0  0
 25 26  1  0  0  0
 26 27  2  0  0  0
 27 28  1  0  0  0
  6  1  1  0  0  0
 28 20  1  0  0  0
 16  9  1  0  0  0
 28 24  2  0  0  0
  7  8  1  0  0  0
M  END
> <minimizedAffinity>
-8.54726

> <CNNscore>
0.3066233695

> <CNNaffinity>
6.6490287781

> <CNN_VS>
2.0387475491

> <CNNaffinity_variance>
0.4778410494

$$$$
[H]c1nc(N(C([H])([H])[H])C([H])([H])c2nc(N([H])c3c([H])c(C([H])([H])[H])c([H])c(C([H])([H])[H])c3[H])nc([H])c2[H])c2c([H])c([H])sc2n1


 28 31  0  0  0  0  0  0  0  0999 V2000
    4.7129    2.0410   21.3701 C   0  0  0  0  0  0  0  0  0  0  0  0
    3.7275    1.2031   21.8363 C   0  0  0  0  0  0  0  0  0  0  0  0
    3.0215    0.4188   20.9408 C   0  0  0  0  0  0  0  0  0  0  0  0
    3.3157    0.4985   19.6608 N   0  0  0  0  0  0  0  0  0  0  0  0
    4.2576    1.2944   19.1812 C   0  0  0  0  0  0  0  0  0  0  0  0
    4.9511    2.0651   20.0636 N   0  0  0  0  0  0  0  0  0  0  0  0
    4.5700    1.3790   17.8219 N   0  0  0  0  0  0  0  0  0  0  0  0
    5.3254    0.6807   17.4946 H   0  0  0  0  0  0  0  0  0  0  0  0
    4.0652    2.2076   16.8194 C   0  0  0  0  0  0  0  0  0  0  0  0
    3.2200    1.6320   15.8541 C   0  0  0  0  0  0  0  0  0  0  0  0
    2.6687    2.3731   14.8397 C   0  0  0  0  0  0  0  0  0  0  0  0
    1.7778    1.7855   13.8155 C   0  0  0  0  0  0  0  0  0  0  0  0
    2.9393    3.7228   14.7468 C   0  0  0  0  0  0  0  0  0  0  0  0
    3.7595    4.3407   15.6634 C   0  0  0  0  0  0  0  0  0  0  0  0
    4.0720    5.7989   15.5911 C   0  0  0  0  0  0  0  0  0  0  0  0
    4.2946    3.5544   16.6717 C   0  0  0  0  0  0  0  0  0  0  0  0
    5.5104    2.9188   22.2972 C   0  0  0  0  0  0  0  0  0  0  0  0
    3.7674    4.1630   23.5020 C   0  0  0  0  0  0  0  0  0  0  0  0
    4.8790    4.1664   22.5304 N   0  0  0  0  0  0  0  0  0  0  0  0
    5.1887    5.4317   21.9793 C   0  0  0  0  0  0  0  0  0  0  0  0
    6.1667    6.1790   22.5614 N   0  0  0  0  0  0  0  0  0  0  0  0
    6.5908    7.3525   22.1409 C   0  0  0  0  0  0  0  0  0  0  0  0
    6.0133    7.8666   21.0408 N   0  0  0  0  0  0  0  0  0  0  0  0
    5.0171    7.1642   20.4031 C   0  0  0  0  0  0  0  0  0  0  0  0
    4.0505    7.4776   19.0211 S   0  0  0  0  0  0  0  0  0  0  0  0
    3.1068    6.0647   19.0221 C   0  0  0  0  0  0  0  0  0  0  0  0
    3.5748    5.3781   20.1107 C   0  0  0  0  0  0  0  0  0  0  0  0
    4.5649    5.9436   20.8276 C   0  0  0  0  0  0  0  0  0  0  0  0
 18 19  1  0  0  0
 19 17  1  0  0  0
 17  1  1  0  0  0
  1  2  2  0  0  0
  2  3  1  0  0  0
  3  4  2  0  0  0
  4  5  1  0  0  0
  5  7  1  0  0  0
  7  9  1  0  0  0
  9 10  2  0  0  0
 10 11  1  0  0  0
 11 12  1  0  0  0
 11 13  2  0  0  0
 13 14  1  0  0  0
 14 15  1  0  0  0
 14 16  2  0  0  0
  5  6  2  0  0  0
 19 20  1  0  0  0
 20 21  2  0  0  0
 21 22  1  0  0  0
 22 23  2  0  0  0
 23 24  1  0  0  0
 24 25  1  0  0  0
 25 26  1  0  0  0
 26 27  2  0  0  0
 27 28  1  0  0  0
  6  1  1  0  0  0
 28 20  1  0  0  0
 16  9  1  0  0  0
 28 24  2  0  0  0
  7  8  1  0  0  0
M  END
> <minimizedAffinity>
-8.56664

> <CNNscore>
0.3037981391

> <CNNaffinity>
6.6461396217

> <CNN_VS>
2.0190849304

> <CNNaffinity_variance>
0.4862601161

$$$$
[H]c1nc(N(C([H])([H])[H])C([H])([H])c2nc(N([H])c3c([H])c(C([H])([H])[H])c([H])c(C([H])([H])[H])c3[H])nc([H])c2[H])c2c([H])c([H])sc2n1


 28 31  0  0  0  0  0  0  0  0999 V2000
    5.3965    3.2970   22.5828 C   0  0  0  0  0  0  0  0  0  0  0  0
    4.1120    3.5259   23.0161 C   0  0  0  0  0  0  0  0  0  0  0  0
    3.5221    4.7549   22.7771 C   0  0  0  0  0  0  0  0  0  0  0  0
    4.2126    5.6747   22.1379 N   0  0  0  0  0  0  0  0  0  0  0  0
    5.4497    5.4854   21.7085 C   0  0  0  0  0  0  0  0  0  0  0  0
    6.0283    4.2757   21.9445 N   0  0  0  0  0  0  0  0  0  0  0  0
    6.1829    6.4621   21.0298 N   0  0  0  0  0  0  0  0  0  0  0  0
    6.9512    6.9343   21.6233 H   0  0  0  0  0  0  0  0  0  0  0  0
    6.0928    6.9222   19.7159 C   0  0  0  0  0  0  0  0  0  0  0  0
    5.0683    6.4016   18.9056 C   0  0  0  0  0  0  0  0  0  0  0  0
    4.8973    6.8050   17.6055 C   0  0  0  0  0  0  0  0  0  0  0  0
    3.8257    6.2688   16.7380 C   0  0  0  0  0  0  0  0  0  0  0  0
    5.7443    7.7472   17.0594 C   0  0  0  0  0  0  0  0  0  0  0  0
    6.7650    8.2922   17.8050 C   0  0  0  0  0  0  0  0  0  0  0  0
    7.6985    9.3135   17.2440 C   0  0  0  0  0  0  0  0  0  0  0  0
    6.9012    7.8561   19.1136 C   0  0  0  0  0  0  0  0  0  0  0  0
    6.0893    1.9812   22.8176 C   0  0  0  0  0  0  0  0  0  0  0  0
    7.3125    0.5089   21.2768 C   0  0  0  0  0  0  0  0  0  0  0  0
    6.0388    1.1377   21.6794 N   0  0  0  0  0  0  0  0  0  0  0  0
    4.9211    0.7872   20.8866 C   0  0  0  0  0  0  0  0  0  0  0  0
    4.0751   -0.1801   21.3367 N   0  0  0  0  0  0  0  0  0  0  0  0
    2.9777   -0.5841   20.7317 C   0  0  0  0  0  0  0  0  0  0  0  0
    2.6555    0.0041   19.5662 N   0  0  0  0  0  0  0  0  0  0  0  0
    3.4674    0.9889   19.0532 C   0  0  0  0  0  0  0  0  0  0  0  0
    3.4103    1.9429   17.6287 S   0  0  0  0  0  0  0  0  0  0  0  0
    4.8282    2.8520   17.8522 C   0  0  0  0  0  0  0  0  0  0  0  0
    5.3140    2.3838   19.0439 C   0  0  0  0  0  0  0  0  0  0  0  0
    4.6115    1.4199   19.6695 C   0  0  0  0  0  0  0  0  0  0  0  0
 18 19  1  0  0  0
 19 17  1  0  0  0
 17  1  1  0  0  0
  1  2  2  0  0  0
  2  3  1  0  0  0
  3  4  2  0  0  0
  4  5  1  0  0  0
  5  7  1  0  0  0
  7  9  1  0  0  0
  9 10  2  0  0  0
 10 11  1  0  0  0
 11 12  1  0  0  0
 11 13  2  0  0  0
 13 14  1  0  0  0
 14 15  1  0  0  0
 14 16  2  0  0  0
  5  6  2  0  0  0
 19 20  1  0  0  0
 20 21  2  0  0  0
 21 22  1  0  0  0
 22 23  2  0  0  0
 23 24  1  0  0  0
 24 25  1  0  0  0
 25 26  1  0  0  0
 26 27  2  0  0  0
 27 28  1  0  0  0
  6  1  1  0  0  0
 28 20  1  0  0  0
 16  9  1  0  0  0
 28 24  2  0  0  0
  7  8  1  0  0  0
M  END
> <minimizedAffinity>
-6.95873

> <CNNscore>
0.3028497696

> <CNNaffinity>
6.6832680702

> <CNN_VS>
2.0240261555

> <CNNaffinity_variance>
0.4546768665

$$$$
[H]c1nc(N(C([H])([H])[H])C([H])([H])c2nc(N([H])c3c([H])c(C([H])([H])[H])c([H])c(C([H])([H])[H])c3[H])nc([H])c2[H])c2c([H])c([H])sc2n1


 28 31  0  0  0  0  0  0  0  0999 V2000
    3.6967    2.4688   16.6062 C   0  0  0  0  0  0  0  0  0  0  0  0
    2.9906    1.5124   15.9155 C   0  0  0  0  0  0  0  0  0  0  0  0
    2.6336    0.3372   16.5535 C   0  0  0  0  0  0  0  0  0  0  0  0
    2.9826    0.1683   17.8108 N   0  0  0  0  0  0  0  0  0  0  0  0
    3.6617    1.0690   18.5024 C   0  0  0  0  0  0  0  0  0  0  0  0
    4.0120    2.2244   17.8732 N   0  0  0  0  0  0  0  0  0  0  0  0
    4.0324    0.8896   19.8376 N   0  0  0  0  0  0  0  0  0  0  0  0
    3.8416   -0.1005   20.2232 H   0  0  0  0  0  0  0  0  0  0  0  0
    4.6125    1.7713   20.7499 C   0  0  0  0  0  0  0  0  0  0  0  0
    4.9576    3.0561   20.2945 C   0  0  0  0  0  0  0  0  0  0  0  0
    5.5213    3.9918   21.1246 C   0  0  0  0  0  0  0  0  0  0  0  0
    5.8909    5.3479   20.6638 C   0  0  0  0  0  0  0  0  0  0  0  0
    5.7644    3.6824   22.4470 C   0  0  0  0  0  0  0  0  0  0  0  0
    5.4472    2.4405   22.9489 C   0  0  0  0  0  0  0  0  0  0  0  0
    5.6973    2.0742   24.3746 C   0  0  0  0  0  0  0  0  0  0  0  0
    4.8794    1.5262   22.0755 C   0  0  0  0  0  0  0  0  0  0  0  0
    4.1145    3.7640   15.9627 C   0  0  0  0  0  0  0  0  0  0  0  0
    2.4886    5.1861   17.1339 C   0  0  0  0  0  0  0  0  0  0  0  0
    3.0404    4.6832   15.8602 N   0  0  0  0  0  0  0  0  0  0  0  0
    2.4381    5.2142   14.6957 C   0  0  0  0  0  0  0  0  0  0  0  0
    1.6158    4.4161   13.9604 N   0  0  0  0  0  0  0  0  0  0  0  0
    0.9565    4.7791   12.8800 C   0  0  0  0  0  0  0  0  0  0  0  0
    1.1017    6.0474   12.4575 N   0  0  0  0  0  0  0  0  0  0  0  0
    1.9189    6.9077   13.1535 C   0  0  0  0  0  0  0  0  0  0  0  0
    2.3651    8.5494   12.9339 S   0  0  0  0  0  0  0  0  0  0  0  0
    3.4097    8.7282   14.2619 C   0  0  0  0  0  0  0  0  0  0  0  0
    3.3830    7.4909   14.8483 C   0  0  0  0  0  0  0  0  0  0  0  0
    2.6112    6.5459   14.2780 C   0  0  0  0  0  0  0  0  0  0  0  0
 18 19  1  0  0  0
 19 17  1  0  0  0
 17  1  1  0  0  0
  1  2  2  0  0  0
  2  3  1  0  0  0
  3  4  2  0  0  0
  4  5  1  0  0  0
  5  7  1  0  0  0
  7  9  1  0  0  0
  9 10  2  0  0  0
 10 11  1  0  0  0
 11 12  1  0  0  0
 11 13  2  0  0  0
 13 14  1  0  0  0
 14 15  1  0  0  0
 14 16  2  0  0  0
  5  6  2  0  0  0
 19 20  1  0  0  0
 20 21  2  0  0  0
 21 22  1  0  0  0
 22 23  2  0  0  0
 23 24  1  0  0  0
 24 25  1  0  0  0
 25 26  1  0  0  0
 26 27  2  0  0  0
 27 28  1  0  0  0
  6  1  1  0  0  0
 28 20  1  0  0  0
 16  9  1  0  0  0
 28 24  2  0  0  0
  7  8  1  0  0  0
M  END
> <minimizedAffinity>
-7.73079

> <CNNscore>
0.2784167230

> <CNNaffinity>
6.3867979050

> <CNN_VS>
1.7781913280

> <CNNaffinity_variance>
0.3759823740

$$$$
[H]c1nc(N(C([H])([H])[H])C([H])([H])c2nc(N([H])c3c([H])c(C([H])([H])[H])c([H])c(C([H])([H])[H])c3[H])nc([H])c2[H])c2c([H])c([H])sc2n1


 28 31  0  0  0  0  0  0  0  0999 V2000
    4.0868    2.9507   16.7110 C   0  0  0  0  0  0  0  0  0  0  0  0
    3.3060    2.0855   15.9816 C   0  0  0  0  0  0  0  0  0  0  0  0
    2.9223    0.8790   16.5410 C   0  0  0  0  0  0  0  0  0  0  0  0
    3.3189    0.5934   17.7627 N   0  0  0  0  0  0  0  0  0  0  0  0
    4.0702    1.4042   18.4898 C   0  0  0  0  0  0  0  0  0  0  0  0
    4.4465    2.5905   17.9379 N   0  0  0  0  0  0  0  0  0  0  0  0
    4.4912    1.1007   19.7870 N   0  0  0  0  0  0  0  0  0  0  0  0
    4.7670    0.0676   19.9351 H   0  0  0  0  0  0  0  0  0  0  0  0
    4.6211    1.9089   20.9168 C   0  0  0  0  0  0  0  0  0  0  0  0
    4.1705    3.2380   20.8299 C   0  0  0  0  0  0  0  0  0  0  0  0
    4.2478    4.1002   21.8943 C   0  0  0  0  0  0  0  0  0  0  0  0
    3.7791    5.5013   21.8220 C   0  0  0  0  0  0  0  0  0  0  0  0
    4.7795    3.6697   23.0924 C   0  0  0  0  0  0  0  0  0  0  0  0
    5.2365    2.3793   23.2363 C   0  0  0  0  0  0  0  0  0  0  0  0
    5.8171    1.8823   24.5189 C   0  0  0  0  0  0  0  0  0  0  0  0
    5.1390    1.5423   22.1358 C   0  0  0  0  0  0  0  0  0  0  0  0
    4.5365    4.2744   16.1526 C   0  0  0  0  0  0  0  0  0  0  0  0
    2.5328    5.1605   17.2651 C   0  0  0  0  0  0  0  0  0  0  0  0
    3.9208    5.3702   16.8080 N   0  0  0  0  0  0  0  0  0  0  0  0
    4.4671    6.6383   17.1150 C   0  0  0  0  0  0  0  0  0  0  0  0
    4.0359    7.7248   16.4167 N   0  0  0  0  0  0  0  0  0  0  0  0
    4.4209    8.9683   16.6144 C   0  0  0  0  0  0  0  0  0  0  0  0
    5.3188    9.1955   17.5892 N   0  0  0  0  0  0  0  0  0  0  0  0
    5.7974    8.1421   18.3333 C   0  0  0  0  0  0  0  0  0  0  0  0
    6.9288    8.0212   19.6170 S   0  0  0  0  0  0  0  0  0  0  0  0
    6.8773    6.3417   19.8688 C   0  0  0  0  0  0  0  0  0  0  0  0
    5.9699    5.9145   18.9363 C   0  0  0  0  0  0  0  0  0  0  0  0
    5.4076    6.8439   18.1401 C   0  0  0  0  0  0  0  0  0  0  0  0
 18 19  1  0  0  0
 19 17  1  0  0  0
 17  1  1  0  0  0
  1  2  2  0  0  0
  2  3  1  0  0  0
  3  4  2  0  0  0
  4  5  1  0  0  0
  5  7  1  0  0  0
  7  9  1  0  0  0
  9 10  2  0  0  0
 10 11  1  0  0  0
 11 12  1  0  0  0
 11 13  2  0  0  0
 13 14  1  0  0  0
 14 15  1  0  0  0
 14 16  2  0  0  0
  5  6  2  0  0  0
 19 20  1  0  0  0
 20 21  2  0  0  0
 21 22  1  0  0  0
 22 23  2  0  0  0
 23 24  1  0  0  0
 24 25  1  0  0  0
 25 26  1  0  0  0
 26 27  2  0  0  0
 27 28  1  0  0  0
  6  1  1  0  0  0
 28 20  1  0  0  0
 16  9  1  0  0  0
 28 24  2  0  0  0
  7  8  1  0  0  0
M  END
> <minimizedAffinity>
-7.56858

> <CNNscore>
0.2613972425

> <CNNaffinity>
6.5310869217

> <CNN_VS>
1.7072081566

> <CNNaffinity_variance>
0.2429384440

$$$$
[H]c1nc(N(C([H])([H])[H])C([H])([H])c2nc(N([H])c3c([H])c(C([H])([H])[H])c([H])c(C([H])([H])[H])c3[H])nc([H])c2[H])c2c([H])c([H])sc2n1


 28 31  0  0  0  0  0  0  0  0999 V2000
    4.8586    2.7993   21.5302 C   0  0  0  0  0  0  0  0  0  0  0  0
    4.6148    2.3746   22.8149 C   0  0  0  0  0  0  0  0  0  0  0  0
    4.2201    3.2933   23.7718 C   0  0  0  0  0  0  0  0  0  0  0  0
    4.0889    4.5549   23.4219 N   0  0  0  0  0  0  0  0  0  0  0  0
    4.3160    4.9948   22.1949 C   0  0  0  0  0  0  0  0  0  0  0  0
    4.7041    4.0896   21.2549 N   0  0  0  0  0  0  0  0  0  0  0  0
    4.1767    6.3345   21.8234 N   0  0  0  0  0  0  0  0  0  0  0  0
    3.4027    6.8659   22.3563 H   0  0  0  0  0  0  0  0  0  0  0  0
    4.8734    7.0991   20.8873 C   0  0  0  0  0  0  0  0  0  0  0  0
    4.3158    7.2353   19.6036 C   0  0  0  0  0  0  0  0  0  0  0  0
    4.9253    7.9779   18.6241 C   0  0  0  0  0  0  0  0  0  0  0  0
    4.3542    8.1327   17.2684 C   0  0  0  0  0  0  0  0  0  0  0  0
    6.1198    8.6166   18.8866 C   0  0  0  0  0  0  0  0  0  0  0  0
    6.7126    8.5192   20.1251 C   0  0  0  0  0  0  0  0  0  0  0  0
    8.0043    9.1979   20.4412 C   0  0  0  0  0  0  0  0  0  0  0  0
    6.0624    7.7592   21.0847 C   0  0  0  0  0  0  0  0  0  0  0  0
    5.2933    1.8458   20.4495 C   0  0  0  0  0  0  0  0  0  0  0  0
    3.2990    0.4243   20.6494 C   0  0  0  0  0  0  0  0  0  0  0  0
    4.1923    1.2349   19.7982 N   0  0  0  0  0  0  0  0  0  0  0  0
    3.8098    1.3199   18.4391 C   0  0  0  0  0  0  0  0  0  0  0  0
    3.0610    0.3162   17.9045 N   0  0  0  0  0  0  0  0  0  0  0  0
    2.5988    0.2743   16.6723 C   0  0  0  0  0  0  0  0  0  0  0  0
    2.8864    1.3088   15.8629 N   0  0  0  0  0  0  0  0  0  0  0  0
    3.6401    2.3567   16.3387 C   0  0  0  0  0  0  0  0  0  0  0  0
    4.2170    3.8109   15.6354 S   0  0  0  0  0  0  0  0  0  0  0  0
    5.0555    4.4455   16.9699 C   0  0  0  0  0  0  0  0  0  0  0  0
    4.8616    3.4977   17.9392 C   0  0  0  0  0  0  0  0  0  0  0  0
    4.1282    2.4152   17.6165 C   0  0  0  0  0  0  0  0  0  0  0  0
 18 19  1  0  0  0
 19 17  1  0  0  0
 17  1  1  0  0  0
  1  2  2  0  0  0
  2  3  1  0  0  0
  3  4  2  0  0  0
  4  5  1  0  0  0
  5  7  1  0  0  0
  7  9  1  0  0  0
  9 10  2  0  0  0
 10 11  1  0  0  0
 11 12  1  0  0  0
 11 13  2  0  0  0
 13 14  1  0  0  0
 14 15  1  0  0  0
 14 16  2  0  0  0
  5  6  2  0  0  0
 19 20  1  0  0  0
 20 21  2  0  0  0
 21 22  1  0  0  0
 22 23  2  0  0  0
 23 24  1  0  0  0
 24 25  1  0  0  0
 25 26  1  0  0  0
 26 27  2  0  0  0
 27 28  1  0  0  0
  6  1  1  0  0  0
 28 20  1  0  0  0
 16  9  1  0  0  0
 28 24  2  0  0  0
  7  8  1  0  0  0
M  END
> <minimizedAffinity>
-8.51174

> <CNNscore>
0.2544423938

> <CNNaffinity>
6.3969812393

> <CNN_VS>
1.6276632547

> <CNNaffinity_variance>
0.5427054763

$$$$
[H]c1nc2c([H])c(OC([H])([H])C([H])([H])C([H])([H])N3C([H])([H])C([H])([H])N(C([H])([H])[H])C([H])([H])C3([H])[H])c(OC([H])([H])[H])c([H])c2c(Oc2c([H])c([H])c(N([H])C(=O)c3c([H])n(C([H])([H])C([H])([H])c4c([H])c([H])c(F)c([H])c4[H])c(=O)c4c([H])c(F)c([H])c([H])c34)c([H])c2F)c1[H]


 56 62  0  0  0  0  0  0  0  0999 V2000
    4.9043    2.7204   22.0029 C   0  0  0  0  0  0  0  0  0  0  0  0
    3.9711    3.6912   22.2485 C   0  0  0  0  0  0  0  0  0  0  0  0
    4.3007    5.0141   22.5127 C   0  0  0  0  0  0  0  0  0  0  0  0
    5.6307    5.3431   22.5226 C   0  0  0  0  0  0  0  0  0  0  0  0
    6.5947    4.3749   22.2767 C   0  0  0  0  0  0  0  0  0  0  0  0
    6.2593    3.0863   22.0205 C   0  0  0  0  0  0  0  0  0  0  0  0
    7.2188    2.1495   21.7626 F   0  0  0  0  0  0  0  0  0  0  0  0
    6.0518    6.6646   22.7408 N   0  0  0  0  0  0  0  0  0  0  0  0
    6.9769    7.4227   22.0123 C   0  0  0  0  0  0  0  0  0  0  0  0
    7.5440    7.0060   20.9916 O   0  0  0  0  0  0  0  0  0  0  0  0
    5.5915    7.1735   23.5670 H   0  0  0  0  0  0  0  0  0  0  0  0
    7.2954    8.7790   22.4770 C   0  0  0  0  0  0  0  0  0  0  0  0
    6.9210    9.8281   21.6885 C   0  0  0  0  0  0  0  0  0  0  0  0
    7.1386   11.0981   22.1091 N   0  0  0  0  0  0  0  0  0  0  0  0
    7.7194   11.3327   23.2811 C   0  0  0  0  0  0  0  0  0  0  0  0
    7.9480   12.5179   23.7069 O   0  0  0  0  0  0  0  0  0  0  0  0
    8.1324   10.3183   24.1411 C   0  0  0  0  0  0  0  0  0  0  0  0
    8.7500   10.5862   25.3366 C   0  0  0  0  0  0  0  0  0  0  0  0
    9.1422    9.5210   26.1072 C   0  0  0  0  0  0  0  0  0  0  0  0
    9.7772    9.7220   27.3130 F   0  0  0  0  0  0  0  0  0  0  0  0
    8.9297    8.2198   25.7069 C   0  0  0  0  0  0  0  0  0  0  0  0
    8.3059    7.9892   24.4981 C   0  0  0  0  0  0  0  0  0  0  0  0
    7.8904    9.0133   23.6821 C   0  0  0  0  0  0  0  0  0  0  0  0
    6.6362   12.1630   21.2707 C   0  0  0  0  0  0  0  0  0  0  0  0
    6.3893   11.6672   19.8540 C   0  0  0  0  0  0  0  0  0  0  0  0
    4.9999   11.7145   19.4128 C   0  0  0  0  0  0  0  0  0  0  0  0
    4.4180   10.6054   18.8530 C   0  0  0  0  0  0  0  0  0  0  0  0
    3.1271   10.5620   18.4225 C   0  0  0  0  0  0  0  0  0  0  0  0
    2.3695   11.7194   18.5661 C   0  0  0  0  0  0  0  0  0  0  0  0
    1.0710   11.7309   18.1569 F   0  0  0  0  0  0  0  0  0  0  0  0
    2.9070   12.8358   19.1144 C   0  0  0  0  0  0  0  0  0  0  0  0
    4.2256   12.8483   19.5444 C   0  0  0  0  0  0  0  0  0  0  0  0
    4.6152    1.4318   21.7397 O   0  0  0  0  0  0  0  0  0  0  0  0
    4.6507    2.9187   17.9534 C   0  0  0  0  0  0  0  0  0  0  0  0
    4.6201    2.3557   19.1894 C   0  0  0  0  0  0  0  0  0  0  0  0
    3.8789    1.2380   19.4909 C   0  0  0  0  0  0  0  0  0  0  0  0
    3.8933    0.7616   20.8200 C   0  0  0  0  0  0  0  0  0  0  0  0
    3.1096   -0.3502   21.0071 C   0  0  0  0  0  0  0  0  0  0  0  0
    2.3849   -0.9204   19.9886 C   0  0  0  0  0  0  0  0  0  0  0  0
    2.4044   -0.4140   18.7535 N   0  0  0  0  0  0  0  0  0  0  0  0
    3.1513    0.6800   18.4838 C   0  0  0  0  0  0  0  0  0  0  0  0
    3.1602    1.2337   17.2145 C   0  0  0  0  0  0  0  0  0  0  0  0
    3.8739    2.3484   16.8701 C   0  0  0  0  0  0  0  0  0  0  0  0
    5.1966    5.2894   18.2322 C   0  0  0  0  0  0  0  0  0  0  0  0
    5.4156    4.0368   17.6759 O   0  0  0  0  0  0  0  0  0  0  0  0
    3.9497    2.9694   15.7287 O   0  0  0  0  0  0  0  0  0  0  0  0
    4.0273    3.5795   14.6082 C   0  0  0  0  0  0  0  0  0  0  0  0
    3.0832    3.5458   13.4808 C   0  0  0  0  0  0  0  0  0  0  0  0
    1.7878    4.1759   13.4633 C   0  0  0  0  0  0  0  0  0  0  0  0
    1.5449    5.5144   13.0076 N   0  0  0  0  0  0  0  0  0  0  0  0
    0.0588    5.5384   12.8020 C   0  0  0  0  0  0  0  0  0  0  0  0
   -0.3906    6.8101   12.1884 C   0  0  0  0  0  0  0  0  0  0  0  0
    0.2447    7.0635   10.9042 N   0  0  0  0  0  0  0  0  0  0  0  0
   -0.4360    6.4601    9.7990 C   0  0  0  0  0  0  0  0  0  0  0  0
    1.6469    6.8002   10.9339 C   0  0  0  0  0  0  0  0  0  0  0  0
    1.9906    5.5067   11.5842 C   0  0  0  0  0  0  0  0  0  0  0  0
 44 45  1  0  0  0
 45 34  1  0  0  0
 34 35  2  0  0  0
 35 36  1  0  0  0
 36 37  2  0  0  0
 37 33  1  0  0  0
 33  1  1  0  0  0
  1  2  2  0  0  0
  2  3  1  0  0  0
  3  4  2  0  0  0
  4  8  1  0  0  0
  8  9  1  0  0  0
  9 10  2  0  0  0
  9 12  1  0  0  0
 12 13  2  0  0  0
 13 14  1  0  0  0
 14 24  1  0  0  0
 24 25  1  0  0  0
 25 26  1  0  0  0
 26 27  2  0  0  0
 27 28  1  0  0  0
 28 29  2  0  0  0
 29 30  1  0  0  0
 29 31  1  0  0  0
 31 32  2  0  0  0
 14 15  1  0  0  0
 15 16  2  0  0  0
 15 17  1  0  0  0
 17 18  2  0  0  0
 18 19  1  0  0  0
 19 20  1  0  0  0
 19 21  2  0  0  0
 21 22  1  0  0  0
 22 23  2  0  0  0
  4  5  1  0  0  0
  5  6  2  0  0  0
  6  7  1  0  0  0
 37 38  1  0  0  0
 38 39  2  0  0  0
 39 40  1  0  0  0
 40 41  2  0  0  0
 41 42  1  0  0  0
 42 43  2  0  0  0
 43 46  1  0  0  0
 46 47  1  0  0  0
 47 48  1  0  0  0
 48 49  1  0  0  0
 49 50  1  0  0  0
 50 51  1  0  0  0
 51 52  1  0  0  0
 52 53  1  0  0  0
 53 54  1  0  0  0
 53 55  1  0  0  0
 55 56  1  0  0  0
 43 34  1  0  0  0
 56 50  1  0  0  0
 41 36  1  0  0  0
  6  1  1  0  0  0
 23 12  1  0  0  0
 32 26  1  0  0  0
 23 17  1  0  0  0
  8 11  1  0  0  0
M  END
> <minimizedAffinity>
-10.58868

> <CNNscore>
0.4058976769

> <CNNaffinity>
7.7347502708

> <CNN_VS>
3.1395170689

> <CNNaffinity_variance>
0.2958963513

$$$$
[H]c1nc2c([H])c(OC([H])([H])C([H])([H])C([H])([H])N3C([H])([H])C([H])([H])N(C([H])([H])[H])C([H])([H])C3([H])[H])c(OC([H])([H])[H])c([H])c2c(Oc2c([H])c([H])c(N([H])C(=O)c3c([H])n(C([H])([H])C([H])([H])c4c([H])c([H])c(F)c([H])c4[H])c(=O)c4c([H])c(F)c([H])c([H])c34)c([H])c2F)c1[H]


 56 62  0  0  0  0  0  0  0  0999 V2000
    5.0836    3.8064   21.7959 C   0  0  0  0  0  0  0  0  0  0  0  0
    4.0404    4.6730   21.6106 C   0  0  0  0  0  0  0  0  0  0  0  0
    4.1859    6.0540   21.6283 C   0  0  0  0  0  0  0  0  0  0  0  0
    5.4438    6.5531   21.8426 C   0  0  0  0  0  0  0  0  0  0  0  0
    6.5168    5.6931   22.0334 C   0  0  0  0  0  0  0  0  0  0  0  0
    6.3608    4.3463   22.0142 C   0  0  0  0  0  0  0  0  0  0  0  0
    7.4295    3.5137   22.1855 F   0  0  0  0  0  0  0  0  0  0  0  0
    5.6888    7.9355   21.8361 N   0  0  0  0  0  0  0  0  0  0  0  0
    6.2176    8.7285   20.8100 C   0  0  0  0  0  0  0  0  0  0  0  0
    6.5145    8.2840   19.6914 O   0  0  0  0  0  0  0  0  0  0  0  0
    5.4193    8.4642   22.7313 H   0  0  0  0  0  0  0  0  0  0  0  0
    6.4341   10.1582   21.0671 C   0  0  0  0  0  0  0  0  0  0  0  0
    5.7873   11.0554   20.2677 C   0  0  0  0  0  0  0  0  0  0  0  0
    5.9087   12.3835   20.5101 N   0  0  0  0  0  0  0  0  0  0  0  0
    6.6575   12.8221   21.5165 C   0  0  0  0  0  0  0  0  0  0  0  0
    6.8018   14.0683   21.7702 O   0  0  0  0  0  0  0  0  0  0  0  0
    7.3504   11.9720   22.3747 C   0  0  0  0  0  0  0  0  0  0  0  0
    8.1350   12.4503   23.3936 C   0  0  0  0  0  0  0  0  0  0  0  0
    8.7981   11.5370   24.1736 C   0  0  0  0  0  0  0  0  0  0  0  0
    9.6103   11.9525   25.2056 F   0  0  0  0  0  0  0  0  0  0  0  0
    8.6894   10.1812   23.9531 C   0  0  0  0  0  0  0  0  0  0  0  0
    7.8914    9.7374   22.9188 C   0  0  0  0  0  0  0  0  0  0  0  0
    7.2028   10.6020   22.1031 C   0  0  0  0  0  0  0  0  0  0  0  0
    5.1259   13.2761   19.6855 C   0  0  0  0  0  0  0  0  0  0  0  0
    5.4893   13.1164   18.2171 C   0  0  0  0  0  0  0  0  0  0  0  0
    4.3628   13.1511   17.2913 C   0  0  0  0  0  0  0  0  0  0  0  0
    3.0993   12.8517   17.7343 C   0  0  0  0  0  0  0  0  0  0  0  0
    1.9937   12.8677   16.9399 C   0  0  0  0  0  0  0  0  0  0  0  0
    2.1752   13.2089   15.6039 C   0  0  0  0  0  0  0  0  0  0  0  0
    1.1034   13.2454   14.7652 F   0  0  0  0  0  0  0  0  0  0  0  0
    3.4070   13.5116   15.1273 C   0  0  0  0  0  0  0  0  0  0  0  0
    4.5142   13.4873   15.9623 C   0  0  0  0  0  0  0  0  0  0  0  0
    4.9742    2.4644   21.7798 O   0  0  0  0  0  0  0  0  0  0  0  0
    4.6025    3.0972   17.7786 C   0  0  0  0  0  0  0  0  0  0  0  0
    4.7130    2.8134   19.1025 C   0  0  0  0  0  0  0  0  0  0  0  0
    4.1140    1.7265   19.6934 C   0  0  0  0  0  0  0  0  0  0  0  0
    4.2663    1.5511   21.0862 C   0  0  0  0  0  0  0  0  0  0  0  0
    3.6169    0.4415   21.5682 C   0  0  0  0  0  0  0  0  0  0  0  0
    2.8894   -0.3962   20.7578 C   0  0  0  0  0  0  0  0  0  0  0  0
    2.7737   -0.1683   19.4475 N   0  0  0  0  0  0  0  0  0  0  0  0
    3.3830    0.9030   18.8919 C   0  0  0  0  0  0  0  0  0  0  0  0
    3.2498    1.1685   17.5394 C   0  0  0  0  0  0  0  0  0  0  0  0
    3.8189    2.2410   16.9096 C   0  0  0  0  0  0  0  0  0  0  0  0
    5.8643    5.1900   17.9321 C   0  0  0  0  0  0  0  0  0  0  0  0
    5.2266    4.1918   17.2088 O   0  0  0  0  0  0  0  0  0  0  0  0
    3.7535    2.6054   15.6617 O   0  0  0  0  0  0  0  0  0  0  0  0
    3.6901    2.9663   14.4373 C   0  0  0  0  0  0  0  0  0  0  0  0
    2.9063    4.0612   13.8454 C   0  0  0  0  0  0  0  0  0  0  0  0
    2.2420    5.1022   14.5873 C   0  0  0  0  0  0  0  0  0  0  0  0
    1.7700    6.3297   14.0138 N   0  0  0  0  0  0  0  0  0  0  0  0
    0.4156    5.9586   13.4856 C   0  0  0  0  0  0  0  0  0  0  0  0
   -0.1971    7.0674   12.7168 C   0  0  0  0  0  0  0  0  0  0  0  0
    0.6250    7.4851   11.5914 N   0  0  0  0  0  0  0  0  0  0  0  0
    0.3936    6.7265   10.3997 C   0  0  0  0  0  0  0  0  0  0  0  0
    2.0029    7.6037   11.9435 C   0  0  0  0  0  0  0  0  0  0  0  0
    2.5135    6.4457   12.7260 C   0  0  0  0  0  0  0  0  0  0  0  0
 44 45  1  0  0  0
 45 34  1  0  0  0
 34 35  2  0  0  0
 35 36  1  0  0  0
 36 37  2  0  0  0
 37 33  1  0  0  0
 33  1  1  0  0  0
  1  2  2  0  0  0
  2  3  1  0  0  0
  3  4  2  0  0  0
  4  8  1  0  0  0
  8  9  1  0  0  0
  9 10  2  0  0  0
  9 12  1  0  0  0
 12 13  2  0  0  0
 13 14  1  0  0  0
 14 24  1  0  0  0
 24 25  1  0  0  0
 25 26  1  0  0  0
 26 27  2  0  0  0
 27 28  1  0  0  0
 28 29  2  0  0  0
 29 30  1  0  0  0
 29 31  1  0  0  0
 31 32  2  0  0  0
 14 15  1  0  0  0
 15 16  2  0  0  0
 15 17  1  0  0  0
 17 18  2  0  0  0
 18 19  1  0  0  0
 19 20  1  0  0  0
 19 21  2  0  0  0
 21 22  1  0  0  0
 22 23  2  0  0  0
  4  5  1  0  0  0
  5  6  2  0  0  0
  6  7  1  0  0  0
 37 38  1  0  0  0
 38 39  2  0  0  0
 39 40  1  0  0  0
 40 41  2  0  0  0
 41 42  1  0  0  0
 42 43  2  0  0  0
 43 46  1  0  0  0
 46 47  1  0  0  0
 47 48  1  0  0  0
 48 49  1  0  0  0
 49 50  1  0  0  0
 50 51  1  0  0  0
 51 52  1  0  0  0
 52 53  1  0  0  0
 53 54  1  0  0  0
 53 55  1  0  0  0
 55 56  1  0  0  0
 43 34  1  0  0  0
 56 50  1  0  0  0
 41 36  1  0  0  0
  6  1  1  0  0  0
 23 12  1  0  0  0
 32 26  1  0  0  0
 23 17  1  0  0  0
  8 11  1  0  0  0
M  END
> <minimizedAffinity>
-9.83522

> <CNNscore>
0.3218339682

> <CNNaffinity>
7.5819916725

> <CNN_VS>
2.4401423931

> <CNNaffinity_variance>
0.3097257018

$$$$
[H]c1nc2c([H])c(OC([H])([H])C([H])([H])C([H])([H])N3C([H])([H])C([H])([H])N(C([H])([H])[H])C([H])([H])C3([H])[H])c(OC([H])([H])[H])c([H])c2c(Oc2c([H])c([H])c(N([H])C(=O)c3c([H])n(C([H])([H])C([H])([H])c4c([H])c([H])c(F)c([H])c4[H])c(=O)c4c([H])c(F)c([H])c([H])c34)c([H])c2F)c1[H]


 56 62  0  0  0  0  0  0  0  0999 V2000
    4.0500    1.6196   17.5569 C   0  0  0  0  0  0  0  0  0  0  0  0
    4.3242    2.6777   16.7331 C   0  0  0  0  0  0  0  0  0  0  0  0
    3.7411    2.8400   15.4831 C   0  0  0  0  0  0  0  0  0  0  0  0
    2.8499    1.8832   15.0736 C   0  0  0  0  0  0  0  0  0  0  0  0
    2.5569    0.8011   15.8924 C   0  0  0  0  0  0  0  0  0  0  0  0
    3.1338    0.6543   17.1107 C   0  0  0  0  0  0  0  0  0  0  0  0
    2.8212   -0.4065   17.9118 F   0  0  0  0  0  0  0  0  0  0  0  0
    2.1836    1.9889   13.8424 N   0  0  0  0  0  0  0  0  0  0  0  0
    2.4045    2.8977   12.8000 C   0  0  0  0  0  0  0  0  0  0  0  0
    3.3042    3.7505   12.8204 O   0  0  0  0  0  0  0  0  0  0  0  0
    1.4103    1.2655   13.6635 H   0  0  0  0  0  0  0  0  0  0  0  0
    1.5289    2.8427   11.6222 C   0  0  0  0  0  0  0  0  0  0  0  0
    0.4719    3.7046   11.5720 C   0  0  0  0  0  0  0  0  0  0  0  0
   -0.3241    3.7312   10.4752 N   0  0  0  0  0  0  0  0  0  0  0  0
   -0.0890    2.9208    9.4486 C   0  0  0  0  0  0  0  0  0  0  0  0
   -0.8238    2.9125    8.4006 O   0  0  0  0  0  0  0  0  0  0  0  0
    0.9660    2.0122    9.4239 C   0  0  0  0  0  0  0  0  0  0  0  0
    1.1747    1.1704    8.3607 C   0  0  0  0  0  0  0  0  0  0  0  0
    2.2267    0.2929    8.4360 C   0  0  0  0  0  0  0  0  0  0  0  0
    2.4836   -0.5863    7.4072 F   0  0  0  0  0  0  0  0  0  0  0  0
    3.0548    0.2471    9.5365 C   0  0  0  0  0  0  0  0  0  0  0  0
    2.8138    1.1088   10.5866 C   0  0  0  0  0  0  0  0  0  0  0  0
    1.7765    2.0095   10.5707 C   0  0  0  0  0  0  0  0  0  0  0  0
   -1.3692    4.7293   10.4460 C   0  0  0  0  0  0  0  0  0  0  0  0
   -2.2551    4.6230   11.6780 C   0  0  0  0  0  0  0  0  0  0  0  0
   -3.6811    4.8101   11.4354 C   0  0  0  0  0  0  0  0  0  0  0  0
   -4.2543    6.0426   11.6213 C   0  0  0  0  0  0  0  0  0  0  0  0
   -5.5736    6.3048   11.4105 C   0  0  0  0  0  0  0  0  0  0  0  0
   -6.3716    5.2491   10.9828 C   0  0  0  0  0  0  0  0  0  0  0  0
   -7.6973    5.4558   10.7520 F   0  0  0  0  0  0  0  0  0  0  0  0
   -5.8436    4.0166   10.7871 C   0  0  0  0  0  0  0  0  0  0  0  0
   -4.4950    3.7813   11.0096 C   0  0  0  0  0  0  0  0  0  0  0  0
    4.5957    1.4378   18.7745 O   0  0  0  0  0  0  0  0  0  0  0  0
    5.2918    5.2409   20.0392 C   0  0  0  0  0  0  0  0  0  0  0  0
    5.0082    3.9644   19.6710 C   0  0  0  0  0  0  0  0  0  0  0  0
    4.4776    3.0318   20.5301 C   0  0  0  0  0  0  0  0  0  0  0  0
    4.2584    1.7230   20.0477 C   0  0  0  0  0  0  0  0  0  0  0  0
    3.7377    0.8753   20.9941 C   0  0  0  0  0  0  0  0  0  0  0  0
    3.4725    1.2806   22.2798 C   0  0  0  0  0  0  0  0  0  0  0  0
    3.7136    2.5318   22.6780 N   0  0  0  0  0  0  0  0  0  0  0  0
    4.2258    3.4306   21.8078 C   0  0  0  0  0  0  0  0  0  0  0  0
    4.5075    4.7245   22.2130 C   0  0  0  0  0  0  0  0  0  0  0  0
    5.0434    5.6830   21.3976 C   0  0  0  0  0  0  0  0  0  0  0  0
    6.0934    5.8880   17.8179 C   0  0  0  0  0  0  0  0  0  0  0  0
    5.8141    6.1618   19.1496 O   0  0  0  0  0  0  0  0  0  0  0  0
    5.3670    6.9157   21.6619 O   0  0  0  0  0  0  0  0  0  0  0  0
    5.6818    8.1270   21.9216 C   0  0  0  0  0  0  0  0  0  0  0  0
    5.1730    9.3584   21.2983 C   0  0  0  0  0  0  0  0  0  0  0  0
    5.2395    9.6662   19.8926 C   0  0  0  0  0  0  0  0  0  0  0  0
    4.1203    9.6060   18.9971 N   0  0  0  0  0  0  0  0  0  0  0  0
    4.7687    9.4361   17.6547 C   0  0  0  0  0  0  0  0  0  0  0  0
    3.7776    9.4932   16.5545 C   0  0  0  0  0  0  0  0  0  0  0  0
    3.0344   10.7439   16.5393 N   0  0  0  0  0  0  0  0  0  0  0  0
    3.6860   11.7889   15.8096 C   0  0  0  0  0  0  0  0  0  0  0  0
    2.6019   11.1311   17.8429 C   0  0  0  0  0  0  0  0  0  0  0  0
    3.6683   11.0221   18.8749 C   0  0  0  0  0  0  0  0  0  0  0  0
 44 45  1  0  0  0
 45 34  1  0  0  0
 34 35  2  0  0  0
 35 36  1  0  0  0
 36 37  2  0  0  0
 37 33  1  0  0  0
 33  1  1  0  0  0
  1  2  2  0  0  0
  2  3  1  0  0  0
  3  4  2  0  0  0
  4  8  1  0  0  0
  8  9  1  0  0  0
  9 10  2  0  0  0
  9 12  1  0  0  0
 12 13  2  0  0  0
 13 14  1  0  0  0
 14 24  1  0  0  0
 24 25  1  0  0  0
 25 26  1  0  0  0
 26 27  2  0  0  0
 27 28  1  0  0  0
 28 29  2  0  0  0
 29 30  1  0  0  0
 29 31  1  0  0  0
 31 32  2  0  0  0
 14 15  1  0  0  0
 15 16  2  0  0  0
 15 17  1  0  0  0
 17 18  2  0  0  0
 18 19  1  0  0  0
 19 20  1  0  0  0
 19 21  2  0  0  0
 21 22  1  0  0  0
 22 23  2  0  0  0
  4  5  1  0  0  0
  5  6  2  0  0  0
  6  7  1  0  0  0
 37 38  1  0  0  0
 38 39  2  0  0  0
 39 40  1  0  0  0
 40 41  2  0  0  0
 41 42  1  0  0  0
 42 43  2  0  0  0
 43 46  1  0  0  0
 46 47  1  0  0  0
 47 48  1  0  0  0
 48 49  1  0  0  0
 49 50  1  0  0  0
 50 51  1  0  0  0
 51 52  1  0  0  0
 52 53  1  0  0  0
 53 54  1  0  0  0
 53 55  1  0  0  0
 55 56  1  0  0  0
 43 34  1  0  0  0
 56 50  1  0  0  0
 41 36  1  0  0  0
  6  1  1  0  0  0
 23 12  1  0  0  0
 32 26  1  0  0  0
 23 17  1  0  0  0
  8 11  1  0  0  0
M  END
> <minimizedAffinity>
-10.99466

> <CNNscore>
0.2503949702

> <CNNaffinity>
7.4869356155

> <CNN_VS>
1.8746910095

> <CNNaffinity_variance>
0.4900950789

$$$$
[H]c1nc2c([H])c(OC([H])([H])C([H])([H])C([H])([H])N3C([H])([H])C([H])([H])N(C([H])([H])[H])C([H])([H])C3([H])[H])c(OC([H])([H])[H])c([H])c2c(Oc2c([H])c([H])c(N([H])C(=O)c3c([H])n(C([H])([H])C([H])([H])c4c([H])c([H])c(F)c([H])c4[H])c(=O)c4c([H])c(F)c([H])c([H])c34)c([H])c2F)c1[H]


 56 62  0  0  0  0  0  0  0  0999 V2000
    2.6114    2.4322   14.7268 C   0  0  0  0  0  0  0  0  0  0  0  0
    1.8325    1.6880   13.8825 C   0  0  0  0  0  0  0  0  0  0  0  0
    1.0066    2.2483   12.9168 C   0  0  0  0  0  0  0  0  0  0  0  0
    0.9856    3.6149   12.8205 C   0  0  0  0  0  0  0  0  0  0  0  0
    1.7670    4.3900   13.6666 C   0  0  0  0  0  0  0  0  0  0  0  0
    2.5688    3.8300   14.6058 C   0  0  0  0  0  0  0  0  0  0  0  0
    3.3452    4.6057   15.4185 F   0  0  0  0  0  0  0  0  0  0  0  0
    0.2105    4.2638   11.8461 N   0  0  0  0  0  0  0  0  0  0  0  0
   -0.8183    5.1976   12.0216 C   0  0  0  0  0  0  0  0  0  0  0  0
   -1.1654    5.6264   13.1318 O   0  0  0  0  0  0  0  0  0  0  0  0
    0.4468    4.0286   10.8251 H   0  0  0  0  0  0  0  0  0  0  0  0
   -1.5251    5.6960   10.8345 C   0  0  0  0  0  0  0  0  0  0  0  0
   -0.7748    6.1256    9.7786 C   0  0  0  0  0  0  0  0  0  0  0  0
   -1.3860    6.5338    8.6398 N   0  0  0  0  0  0  0  0  0  0  0  0
   -2.7114    6.5258    8.5428 C   0  0  0  0  0  0  0  0  0  0  0  0
   -3.3229    6.9116    7.4866 O   0  0  0  0  0  0  0  0  0  0  0  0
   -3.5462    6.1052    9.5749 C   0  0  0  0  0  0  0  0  0  0  0  0
   -4.9131    6.1270    9.4580 C   0  0  0  0  0  0  0  0  0  0  0  0
   -5.6544    5.7149   10.5365 C   0  0  0  0  0  0  0  0  0  0  0  0
   -7.0309    5.7233   10.4875 F   0  0  0  0  0  0  0  0  0  0  0  0
   -5.0597    5.2905   11.7048 C   0  0  0  0  0  0  0  0  0  0  0  0
   -3.6825    5.2826   11.7856 C   0  0  0  0  0  0  0  0  0  0  0  0
   -2.8860    5.6836   10.7405 C   0  0  0  0  0  0  0  0  0  0  0  0
   -0.5337    6.8889    7.5277 C   0  0  0  0  0  0  0  0  0  0  0  0
    0.9102    6.4985    7.8048 C   0  0  0  0  0  0  0  0  0  0  0  0
    1.9105    7.4614    7.3579 C   0  0  0  0  0  0  0  0  0  0  0  0
    1.5232    8.7043    6.9251 C   0  0  0  0  0  0  0  0  0  0  0  0
    2.3908    9.6633    6.4994 C   0  0  0  0  0  0  0  0  0  0  0  0
    3.7449    9.3461    6.5101 C   0  0  0  0  0  0  0  0  0  0  0  0
    4.6574   10.2691    6.0993 F   0  0  0  0  0  0  0  0  0  0  0  0
    4.1682    8.1294    6.9306 C   0  0  0  0  0  0  0  0  0  0  0  0
    3.2593    7.1736    7.3594 C   0  0  0  0  0  0  0  0  0  0  0  0
    3.4244    1.9177   15.6690 O   0  0  0  0  0  0  0  0  0  0  0  0
    5.1164    3.8068   18.8496 C   0  0  0  0  0  0  0  0  0  0  0  0
    4.5049    3.1418   17.8350 C   0  0  0  0  0  0  0  0  0  0  0  0
    3.8411    1.9504   18.0061 C   0  0  0  0  0  0  0  0  0  0  0  0
    3.2745    1.3289   16.8719 C   0  0  0  0  0  0  0  0  0  0  0  0
    2.6479    0.1415   17.1593 C   0  0  0  0  0  0  0  0  0  0  0  0
    2.5975   -0.3758   18.4311 C   0  0  0  0  0  0  0  0  0  0  0  0
    3.1644    0.2560   19.4616 N   0  0  0  0  0  0  0  0  0  0  0  0
    3.8014    1.4320   19.2650 C   0  0  0  0  0  0  0  0  0  0  0  0
    4.4183    2.0857   20.3184 C   0  0  0  0  0  0  0  0  0  0  0  0
    5.0972    3.2666   20.1950 C   0  0  0  0  0  0  0  0  0  0  0  0
    6.1952    5.4701   17.4125 C   0  0  0  0  0  0  0  0  0  0  0  0
    5.7669    5.0107   18.6501 O   0  0  0  0  0  0  0  0  0  0  0  0
    5.7281    3.9630   21.0957 O   0  0  0  0  0  0  0  0  0  0  0  0
    6.3491    4.6443   21.9810 C   0  0  0  0  0  0  0  0  0  0  0  0
    6.2930    6.0936   22.2262 C   0  0  0  0  0  0  0  0  0  0  0  0
    6.3101    7.1097   21.2052 C   0  0  0  0  0  0  0  0  0  0  0  0
    5.3195    8.1388   21.0708 N   0  0  0  0  0  0  0  0  0  0  0  0
    4.7289    7.8667   19.7186 C   0  0  0  0  0  0  0  0  0  0  0  0
    3.7651    8.9185   19.3181 C   0  0  0  0  0  0  0  0  0  0  0  0
    4.3674   10.2426   19.2870 N   0  0  0  0  0  0  0  0  0  0  0  0
    5.0009   10.5550   18.0419 C   0  0  0  0  0  0  0  0  0  0  0  0
    5.1841   10.4915   20.4304 C   0  0  0  0  0  0  0  0  0  0  0  0
    6.1037    9.3675   20.7545 C   0  0  0  0  0  0  0  0  0  0  0  0
 44 45  1  0  0  0
 45 34  1  0  0  0
 34 35  2  0  0  0
 35 36  1  0  0  0
 36 37  2  0  0  0
 37 33  1  0  0  0
 33  1  1  0  0  0
  1  2  2  0  0  0
  2  3  1  0  0  0
  3  4  2  0  0  0
  4  8  1  0  0  0
  8  9  1  0  0  0
  9 10  2  0  0  0
  9 12  1  0  0  0
 12 13  2  0  0  0
 13 14  1  0  0  0
 14 24  1  0  0  0
 24 25  1  0  0  0
 25 26  1  0  0  0
 26 27  2  0  0  0
 27 28  1  0  0  0
 28 29  2  0  0  0
 29 30  1  0  0  0
 29 31  1  0  0  0
 31 32  2  0  0  0
 14 15  1  0  0  0
 15 16  2  0  0  0
 15 17  1  0  0  0
 17 18  2  0  0  0
 18 19  1  0  0  0
 19 20  1  0  0  0
 19 21  2  0  0  0
 21 22  1  0  0  0
 22 23  2  0  0  0
  4  5  1  0  0  0
  5  6  2  0  0  0
  6  7  1  0  0  0
 37 38  1  0  0  0
 38 39  2  0  0  0
 39 40  1  0  0  0
 40 41  2  0  0  0
 41 42  1  0  0  0
 42 43  2  0  0  0
 43 46  1  0  0  0
 46 47  1  0  0  0
 47 48  1  0  0  0
 48 49  1  0  0  0
 49 50  1  0  0  0
 50 51  1  0  0  0
 51 52  1  0  0  0
 52 53  1  0  0  0
 53 54  1  0  0  0
 53 55  1  0  0  0
 55 56  1  0  0  0
 43 34  1  0  0  0
 56 50  1  0  0  0
 41 36  1  0  0  0
  6  1  1  0  0  0
 23 12  1  0  0  0
 32 26  1  0  0  0
 23 17  1  0  0  0
  8 11  1  0  0  0
M  END
> <minimizedAffinity>
-10.09450

> <CNNscore>
0.2468644679

> <CNNaffinity>
7.4799208641

> <CNN_VS>
1.8465267420

> <CNNaffinity_variance>
0.1864050478

$$$$
[H]c1nc2c([H])c(OC([H])([H])C([H])([H])C([H])([H])N3C([H])([H])C([H])([H])N(C([H])([H])[H])C([H])([H])C3([H])[H])c(OC([H])([H])[H])c([H])c2c(Oc2c([H])c([H])c(N([H])C(=O)c3c([H])n(C([H])([H])C([H])([H])c4c([H])c([H])c(F)c([H])c4[H])c(=O)c4c([H])c(F)c([H])c([H])c34)c([H])c2F)c1[H]


 56 62  0  0  0  0  0  0  0  0999 V2000
    3.9122    1.7786   17.5740 C   0  0  0  0  0  0  0  0  0  0  0  0
    2.8242    1.0120   17.2543 C   0  0  0  0  0  0  0  0  0  0  0  0
    2.1564    1.1073   16.0404 C   0  0  0  0  0  0  0  0  0  0  0  0
    2.6260    2.0190   15.1318 C   0  0  0  0  0  0  0  0  0  0  0  0
    3.7278    2.8075   15.4346 C   0  0  0  0  0  0  0  0  0  0  0  0
    4.3705    2.7048   16.6240 C   0  0  0  0  0  0  0  0  0  0  0  0
    5.4641    3.4750   16.8995 F   0  0  0  0  0  0  0  0  0  0  0  0
    2.0365    2.1534   13.8647 N   0  0  0  0  0  0  0  0  0  0  0  0
    1.7197    3.3236   13.1635 C   0  0  0  0  0  0  0  0  0  0  0  0
    1.9772    4.4603   13.5861 O   0  0  0  0  0  0  0  0  0  0  0  0
    1.8122    1.2368   13.3517 H   0  0  0  0  0  0  0  0  0  0  0  0
    1.0480    3.2036   11.8630 C   0  0  0  0  0  0  0  0  0  0  0  0
   -0.1003    3.9154   11.6699 C   0  0  0  0  0  0  0  0  0  0  0  0
   -0.7178    3.8835   10.4637 N   0  0  0  0  0  0  0  0  0  0  0  0
   -0.2189    3.1598    9.4669 C   0  0  0  0  0  0  0  0  0  0  0  0
   -0.7789    3.0995    8.3176 O   0  0  0  0  0  0  0  0  0  0  0  0
    0.9453    2.4049    9.5847 C   0  0  0  0  0  0  0  0  0  0  0  0
    1.4284    1.6483    8.5471 C   0  0  0  0  0  0  0  0  0  0  0  0
    2.5702    0.9192    8.7640 C   0  0  0  0  0  0  0  0  0  0  0  0
    3.1004    0.1306    7.7668 F   0  0  0  0  0  0  0  0  0  0  0  0
    3.2212    0.9364    9.9783 C   0  0  0  0  0  0  0  0  0  0  0  0
    2.7057    1.7089   10.9985 C   0  0  0  0  0  0  0  0  0  0  0  0
    1.5661    2.4603   10.8432 C   0  0  0  0  0  0  0  0  0  0  0  0
   -1.8768    4.7308   10.2963 C   0  0  0  0  0  0  0  0  0  0  0  0
   -2.8092    4.6169   11.4928 C   0  0  0  0  0  0  0  0  0  0  0  0
   -4.2086    4.9255   11.2212 C   0  0  0  0  0  0  0  0  0  0  0  0
   -5.1260    3.9122   11.1044 C   0  0  0  0  0  0  0  0  0  0  0  0
   -6.4503    4.1128   10.8599 C   0  0  0  0  0  0  0  0  0  0  0  0
   -6.8796    5.4285   10.7225 C   0  0  0  0  0  0  0  0  0  0  0  0
   -8.1943    5.6876   10.4818 F   0  0  0  0  0  0  0  0  0  0  0  0
   -6.0049    6.4577   10.8313 C   0  0  0  0  0  0  0  0  0  0  0  0
   -4.6615    6.2208   11.0819 C   0  0  0  0  0  0  0  0  0  0  0  0
    4.5823    1.7057   18.7397 O   0  0  0  0  0  0  0  0  0  0  0  0
    4.9246    5.5639   19.9828 C   0  0  0  0  0  0  0  0  0  0  0  0
    4.7646    4.2630   19.6254 C   0  0  0  0  0  0  0  0  0  0  0  0
    4.4138    3.2745   20.5138 C   0  0  0  0  0  0  0  0  0  0  0  0
    4.3125    1.9492   20.0375 C   0  0  0  0  0  0  0  0  0  0  0  0
    3.9683    1.0461   21.0128 C   0  0  0  0  0  0  0  0  0  0  0  0
    3.7568    1.4173   22.3186 C   0  0  0  0  0  0  0  0  0  0  0  0
    3.8801    2.6881   22.7089 N   0  0  0  0  0  0  0  0  0  0  0  0
    4.2158    3.6409   21.8106 C   0  0  0  0  0  0  0  0  0  0  0  0
    4.3747    4.9587   22.2050 C   0  0  0  0  0  0  0  0  0  0  0  0
    4.7311    5.9735   21.3601 C   0  0  0  0  0  0  0  0  0  0  0  0
    6.2890    6.4121   18.1349 C   0  0  0  0  0  0  0  0  0  0  0  0
    5.2663    6.5397   19.0645 O   0  0  0  0  0  0  0  0  0  0  0  0
    4.9279    7.2356   21.6103 O   0  0  0  0  0  0  0  0  0  0  0  0
    5.1210    8.4756   21.8529 C   0  0  0  0  0  0  0  0  0  0  0  0
    6.3194    9.2848   21.5838 C   0  0  0  0  0  0  0  0  0  0  0  0
    7.6785    8.8357   21.7467 C   0  0  0  0  0  0  0  0  0  0  0  0
    8.0879    7.8114   22.6641 N   0  0  0  0  0  0  0  0  0  0  0  0
    9.5197    8.1606   22.9456 C   0  0  0  0  0  0  0  0  0  0  0  0
   10.1835    7.1296   23.7775 C   0  0  0  0  0  0  0  0  0  0  0  0
   10.1555    5.8128   23.1592 N   0  0  0  0  0  0  0  0  0  0  0  0
   11.2446    5.5785   22.2603 C   0  0  0  0  0  0  0  0  0  0  0  0
    8.8753    5.5004   22.6114 C   0  0  0  0  0  0  0  0  0  0  0  0
    8.2917    6.6078   21.8070 C   0  0  0  0  0  0  0  0  0  0  0  0
 44 45  1  0  0  0
 45 34  1  0  0  0
 34 35  2  0  0  0
 35 36  1  0  0  0
 36 37  2  0  0  0
 37 33  1  0  0  0
 33  1  1  0  0  0
  1  2  2  0  0  0
  2  3  1  0  0  0
  3  4  2  0  0  0
  4  8  1  0  0  0
  8  9  1  0  0  0
  9 10  2  0  0  0
  9 12  1  0  0  0
 12 13  2  0  0  0
 13 14  1  0  0  0
 14 24  1  0  0  0
 24 25  1  0  0  0
 25 26  1  0  0  0
 26 27  2  0  0  0
 27 28  1  0  0  0
 28 29  2  0  0  0
 29 30  1  0  0  0
 29 31  1  0  0  0
 31 32  2  0  0  0
 14 15  1  0  0  0
 15 16  2  0  0  0
 15 17  1  0  0  0
 17 18  2  0  0  0
 18 19  1  0  0  0
 19 20  1  0  0  0
 19 21  2  0  0  0
 21 22  1  0  0  0
 22 23  2  0  0  0
  4  5  1  0  0  0
  5  6  2  0  0  0
  6  7  1  0  0  0
 37 38  1  0  0  0
 38 39  2  0  0  0
 39 40  1  0  0  0
 40 41  2  0  0  0
 41 42  1  0  0  0
 42 43  2  0  0  0
 43 46  1  0  0  0
 46 47  1  0  0  0
 47 48  1  0  0  0
 48 49  1  0  0  0
 49 50  1  0  0  0
 50 51  1  0  0  0
 51 52  1  0  0  0
 52 53  1  0  0  0
 53 54  1  0  0  0
 53 55  1  0  0  0
 55 56  1  0  0  0
 43 34  1  0  0  0
 56 50  1  0  0  0
 41 36  1  0  0  0
  6  1  1  0  0  0
 23 12  1  0  0  0
 32 26  1  0  0  0
 23 17  1  0  0  0
  8 11  1  0  0  0
M  END
> <minimizedAffinity>
-10.35031

> <CNNscore>
0.2052671164

> <CNNaffinity>
7.3377556801

> <CNN_VS>
1.5061999559

> <CNNaffinity_variance>
0.2864572704

$$$$
[H]c1nc2c([H])c(OC([H])([H])C([H])([H])C([H])([H])N3C([H])([H])C([H])([H])N(C([H])([H])[H])C([H])([H])C3([H])[H])c(OC([H])([H])[H])c([H])c2c(Oc2c([H])c([H])c(N([H])C(=O)c3c([H])n(C([H])([H])C([H])([H])c4c([H])c([H])c(F)c([H])c4[H])c(=O)c4c([H])c(F)c([H])c([H])c34)c([H])c2F)c1[H]


 56 62  0  0  0  0  0  0  0  0999 V2000
    2.7549    3.5348   13.8468 C   0  0  0  0  0  0  0  0  0  0  0  0
    1.5586    3.0253   13.4190 C   0  0  0  0  0  0  0  0  0  0  0  0
    0.7903    3.6185   12.4259 C   0  0  0  0  0  0  0  0  0  0  0  0
    1.2715    4.7692   11.8587 C   0  0  0  0  0  0  0  0  0  0  0  0
    2.4822    5.3044   12.2771 C   0  0  0  0  0  0  0  0  0  0  0  0
    3.2225    4.7153   13.2484 C   0  0  0  0  0  0  0  0  0  0  0  0
    4.4202    5.2445   13.6360 F   0  0  0  0  0  0  0  0  0  0  0  0
    0.5799    5.4129   10.8203 N   0  0  0  0  0  0  0  0  0  0  0  0
    0.6395    5.1688    9.4425 C   0  0  0  0  0  0  0  0  0  0  0  0
    1.3246    4.2653    8.9410 O   0  0  0  0  0  0  0  0  0  0  0  0
   -0.1022    6.1866   11.1195 H   0  0  0  0  0  0  0  0  0  0  0  0
   -0.1457    6.0236    8.5427 C   0  0  0  0  0  0  0  0  0  0  0  0
   -1.4582    5.7062    8.3451 C   0  0  0  0  0  0  0  0  0  0  0  0
   -2.2354    6.5044    7.5729 N   0  0  0  0  0  0  0  0  0  0  0  0
   -1.7298    7.5918    7.0001 C   0  0  0  0  0  0  0  0  0  0  0  0
   -2.4312    8.3640    6.2585 O   0  0  0  0  0  0  0  0  0  0  0  0
   -0.4015    7.9820    7.1504 C   0  0  0  0  0  0  0  0  0  0  0  0
    0.1023    9.0975    6.5306 C   0  0  0  0  0  0  0  0  0  0  0  0
    1.4294    9.3902    6.7192 C   0  0  0  0  0  0  0  0  0  0  0  0
    1.9991   10.4897    6.1160 F   0  0  0  0  0  0  0  0  0  0  0  0
    2.2416    8.5993    7.5025 C   0  0  0  0  0  0  0  0  0  0  0  0
    1.6998    7.4853    8.1097 C   0  0  0  0  0  0  0  0  0  0  0  0
    0.3787    7.1395    7.9589 C   0  0  0  0  0  0  0  0  0  0  0  0
   -3.6370    6.1641    7.4786 C   0  0  0  0  0  0  0  0  0  0  0  0
   -4.4616    6.9861    8.4576 C   0  0  0  0  0  0  0  0  0  0  0  0
   -5.0030    6.2433    9.5901 C   0  0  0  0  0  0  0  0  0  0  0  0
   -4.1637    5.7724   10.5679 C   0  0  0  0  0  0  0  0  0  0  0  0
   -4.5863    5.0780   11.6601 C   0  0  0  0  0  0  0  0  0  0  0  0
   -5.9520    4.8411   11.7739 C   0  0  0  0  0  0  0  0  0  0  0  0
   -6.4306    4.1557   12.8485 F   0  0  0  0  0  0  0  0  0  0  0  0
   -6.8142    5.2898   10.8297 C   0  0  0  0  0  0  0  0  0  0  0  0
   -6.3526    5.9954    9.7285 C   0  0  0  0  0  0  0  0  0  0  0  0
    3.5233    2.9802   14.8035 O   0  0  0  0  0  0  0  0  0  0  0  0
    5.0366    4.1061   18.4077 C   0  0  0  0  0  0  0  0  0  0  0  0
    4.4838    3.6852   17.2404 C   0  0  0  0  0  0  0  0  0  0  0  0
    3.8438    2.4766   17.1015 C   0  0  0  0  0  0  0  0  0  0  0  0
    3.3396    2.1264   15.8299 C   0  0  0  0  0  0  0  0  0  0  0  0
    2.7321    0.8953   15.8066 C   0  0  0  0  0  0  0  0  0  0  0  0
    2.6432    0.0967   16.9210 C   0  0  0  0  0  0  0  0  0  0  0  0
    3.1517    0.4809   18.0941 N   0  0  0  0  0  0  0  0  0  0  0  0
    3.7663    1.6800   18.2035 C   0  0  0  0  0  0  0  0  0  0  0  0
    4.3233    2.0810   19.4062 C   0  0  0  0  0  0  0  0  0  0  0  0
    4.9766    3.2685   19.5897 C   0  0  0  0  0  0  0  0  0  0  0  0
    5.9430    6.1687   17.4488 C   0  0  0  0  0  0  0  0  0  0  0  0
    5.6641    5.3331   18.5213 O   0  0  0  0  0  0  0  0  0  0  0  0
    5.5527    3.7466   20.6545 O   0  0  0  0  0  0  0  0  0  0  0  0
    6.1158    4.2180   21.7006 C   0  0  0  0  0  0  0  0  0  0  0  0
    6.8596    5.4782   21.8503 C   0  0  0  0  0  0  0  0  0  0  0  0
    6.4286    6.7606   21.3553 C   0  0  0  0  0  0  0  0  0  0  0  0
    7.1802    7.9750   21.4920 N   0  0  0  0  0  0  0  0  0  0  0  0
    6.2198    8.8913   22.1915 C   0  0  0  0  0  0  0  0  0  0  0  0
    6.7579   10.2672   22.3067 C   0  0  0  0  0  0  0  0  0  0  0  0
    7.0741   10.8513   21.0122 N   0  0  0  0  0  0  0  0  0  0  0  0
    5.9598   11.4969   20.3871 C   0  0  0  0  0  0  0  0  0  0  0  0
    7.7653    9.9375   20.1615 C   0  0  0  0  0  0  0  0  0  0  0  0
    7.1522    8.5820   20.1298 C   0  0  0  0  0  0  0  0  0  0  0  0
 44 45  1  0  0  0
 45 34  1  0  0  0
 34 35  2  0  0  0
 35 36  1  0  0  0
 36 37  2  0  0  0
 37 33  1  0  0  0
 33  1  1  0  0  0
  1  2  2  0  0  0
  2  3  1  0  0  0
  3  4  2  0  0  0
  4  8  1  0  0  0
  8  9  1  0  0  0
  9 10  2  0  0  0
  9 12  1  0  0  0
 12 13  2  0  0  0
 13 14  1  0  0  0
 14 24  1  0  0  0
 24 25  1  0  0  0
 25 26  1  0  0  0
 26 27  2  0  0  0
 27 28  1  0  0  0
 28 29  2  0  0  0
 29 30  1  0  0  0
 29 31  1  0  0  0
 31 32  2  0  0  0
 14 15  1  0  0  0
 15 16  2  0  0  0
 15 17  1  0  0  0
 17 18  2  0  0  0
 18 19  1  0  0  0
 19 20  1  0  0  0
 19 21  2  0  0  0
 21 22  1  0  0  0
 22 23  2  0  0  0
  4  5  1  0  0  0
  5  6  2  0  0  0
  6  7  1  0  0  0
 37 38  1  0  0  0
 38 39  2  0  0  0
 39 40  1  0  0  0
 40 41  2  0  0  0
 41 42  1  0  0  0
 42 43  2  0  0  0
 43 46  1  0  0  0
 46 47  1  0  0  0
 47 48  1  0  0  0
 48 49  1  0  0  0
 49 50  1  0  0  0
 50 51  1  0  0  0
 51 52  1  0  0  0
 52 53  1  0  0  0
 53 54  1  0  0  0
 53 55  1  0  0  0
 55 56  1  0  0  0
 43 34  1  0  0  0
 56 50  1  0  0  0
 41 36  1  0  0  0
  6  1  1  0  0  0
 23 12  1  0  0  0
 32 26  1  0  0  0
 23 17  1  0  0  0
  8 11  1  0  0  0
M  END
> <minimizedAffinity>
-9.37295

> <CNNscore>
0.1930571795

> <CNNaffinity>
7.2645988464

> <CNN_VS>
1.4024829865

> <CNNaffinity_variance>
0.1566356122

$$$$
[H]c1nc2c([H])c(OC([H])([H])C([H])([H])C([H])([H])N3C([H])([H])C([H])([H])N(C([H])([H])[H])C([H])([H])C3([H])[H])c(OC([H])([H])[H])c([H])c2c(Oc2c([H])c([H])c(N([H])C(=O)c3c([H])n(C([H])([H])C([H])([H])c4c([H])c([H])c(F)c([H])c4[H])c(=O)c4c([H])c(F)c([H])c([H])c34)c([H])c2F)c1[H]


 56 62  0  0  0  0  0  0  0  0999 V2000
    3.9863    2.1095   17.3915 C   0  0  0  0  0  0  0  0  0  0  0  0
    4.5514    3.2042   16.7949 C   0  0  0  0  0  0  0  0  0  0  0  0
    4.0541    3.7791   15.6327 C   0  0  0  0  0  0  0  0  0  0  0  0
    2.9422    3.2077   15.0720 C   0  0  0  0  0  0  0  0  0  0  0  0
    2.3524    2.0967   15.6594 C   0  0  0  0  0  0  0  0  0  0  0  0
    2.8485    1.5448   16.7942 C   0  0  0  0  0  0  0  0  0  0  0  0
    2.2460    0.4628   17.3698 F   0  0  0  0  0  0  0  0  0  0  0  0
    2.3491    3.7479   13.9198 N   0  0  0  0  0  0  0  0  0  0  0  0
    1.5840    4.9138   13.7907 C   0  0  0  0  0  0  0  0  0  0  0  0
    1.3570    5.6861   14.7336 O   0  0  0  0  0  0  0  0  0  0  0  0
    2.5169    3.2065   13.0075 H   0  0  0  0  0  0  0  0  0  0  0  0
    1.0192    5.2417   12.4752 C   0  0  0  0  0  0  0  0  0  0  0  0
   -0.2233    4.7624   12.1768 C   0  0  0  0  0  0  0  0  0  0  0  0
   -0.8082    5.0937   10.9997 N   0  0  0  0  0  0  0  0  0  0  0  0
   -0.1804    5.8771   10.1289 C   0  0  0  0  0  0  0  0  0  0  0  0
   -0.6982    6.2040    9.0049 O   0  0  0  0  0  0  0  0  0  0  0  0
    1.0882    6.4036   10.3576 C   0  0  0  0  0  0  0  0  0  0  0  0
    1.7247    7.1925    9.4328 C   0  0  0  0  0  0  0  0  0  0  0  0
    2.9830    7.6469    9.7369 C   0  0  0  0  0  0  0  0  0  0  0  0
    3.6801    8.4338    8.8468 F   0  0  0  0  0  0  0  0  0  0  0  0
    3.5999    7.3299   10.9275 C   0  0  0  0  0  0  0  0  0  0  0  0
    2.9291    6.5339   11.8329 C   0  0  0  0  0  0  0  0  0  0  0  0
    1.6680    6.0479   11.5863 C   0  0  0  0  0  0  0  0  0  0  0  0
   -2.1601    4.6297   10.7844 C   0  0  0  0  0  0  0  0  0  0  0  0
   -3.1113    5.2390   11.8032 C   0  0  0  0  0  0  0  0  0  0  0  0
   -4.5166    5.2480   11.4129 C   0  0  0  0  0  0  0  0  0  0  0  0
   -5.1698    6.4394   11.2226 C   0  0  0  0  0  0  0  0  0  0  0  0
   -6.4760    6.5371   10.8511 C   0  0  0  0  0  0  0  0  0  0  0  0
   -7.1731    5.3492   10.6587 C   0  0  0  0  0  0  0  0  0  0  0  0
   -8.4809    5.3878   10.2822 F   0  0  0  0  0  0  0  0  0  0  0  0
   -6.5641    4.1518   10.8362 C   0  0  0  0  0  0  0  0  0  0  0  0
   -5.2313    4.0853   11.2141 C   0  0  0  0  0  0  0  0  0  0  0  0
    4.4428    1.5333   18.5197 O   0  0  0  0  0  0  0  0  0  0  0  0
    5.6783    4.9370   20.3736 C   0  0  0  0  0  0  0  0  0  0  0  0
    5.2158    3.7910   19.8093 C   0  0  0  0  0  0  0  0  0  0  0  0
    4.5916    2.7967   20.5244 C   0  0  0  0  0  0  0  0  0  0  0  0
    4.1852    1.6311   19.8389 C   0  0  0  0  0  0  0  0  0  0  0  0
    3.5847    0.7033   20.6537 C   0  0  0  0  0  0  0  0  0  0  0  0
    3.4148    0.9071   22.0017 C   0  0  0  0  0  0  0  0  0  0  0  0
    3.8328    2.0285   22.5935 N   0  0  0  0  0  0  0  0  0  0  0  0
    4.4340    2.9940   21.8628 C   0  0  0  0  0  0  0  0  0  0  0  0
    4.8981    4.1506   22.4664 C   0  0  0  0  0  0  0  0  0  0  0  0
    5.5323    5.1617   21.7985 C   0  0  0  0  0  0  0  0  0  0  0  0
    6.1888    6.0392   18.2475 C   0  0  0  0  0  0  0  0  0  0  0  0
    6.2919    5.9260   19.6269 O   0  0  0  0  0  0  0  0  0  0  0  0
    6.0255    6.2782   22.2509 O   0  0  0  0  0  0  0  0  0  0  0  0
    6.5106    7.3752   22.6921 C   0  0  0  0  0  0  0  0  0  0  0  0
    6.1962    8.7493   22.2720 C   0  0  0  0  0  0  0  0  0  0  0  0
    5.1001    9.1258   21.4164 C   0  0  0  0  0  0  0  0  0  0  0  0
    5.2345    9.4558   20.0266 N   0  0  0  0  0  0  0  0  0  0  0  0
    4.9065   10.9196   19.9923 C   0  0  0  0  0  0  0  0  0  0  0  0
    4.8492   11.4375   18.6052 C   0  0  0  0  0  0  0  0  0  0  0  0
    3.8679   10.7381   17.7900 N   0  0  0  0  0  0  0  0  0  0  0  0
    2.5472   11.2811   17.8910 C   0  0  0  0  0  0  0  0  0  0  0  0
    3.9272    9.3234   17.9682 C   0  0  0  0  0  0  0  0  0  0  0  0
    3.9973    8.9112   19.3962 C   0  0  0  0  0  0  0  0  0  0  0  0
 44 45  1  0  0  0
 45 34  1  0  0  0
 34 35  2  0  0  0
 35 36  1  0  0  0
 36 37  2  0  0  0
 37 33  1  0  0  0
 33  1  1  0  0  0
  1  2  2  0  0  0
  2  3  1  0  0  0
  3  4  2  0  0  0
  4  8  1  0  0  0
  8  9  1  0  0  0
  9 10  2  0  0  0
  9 12  1  0  0  0
 12 13  2  0  0  0
 13 14  1  0  0  0
 14 24  1  0  0  0
 24 25  1  0  0  0
 25 26  1  0  0  0
 26 27  2  0  0  0
 27 28  1  0  0  0
 28 29  2  0  0  0
 29 30  1  0  0  0
 29 31  1  0  0  0
 31 32  2  0  0  0
 14 15  1  0  0  0
 15 16  2  0  0  0
 15 17  1  0  0  0
 17 18  2  0  0  0
 18 19  1  0  0  0
 19 20  1  0  0  0
 19 21  2  0  0  0
 21 22  1  0  0  0
 22 23  2  0  0  0
  4  5  1  0  0  0
  5  6  2  0  0  0
  6  7  1  0  0  0
 37 38  1  0  0  0
 38 39  2  0  0  0
 39 40  1  0  0  0
 40 41  2  0  0  0
 41 42  1  0  0  0
 42 43  2  0  0  0
 43 46  1  0  0  0
 46 47  1  0  0  0
 47 48  1  0  0  0
 48 49  1  0  0  0
 49 50  1  0  0  0
 50 51  1  0  0  0
 51 52  1  0  0  0
 52 53  1  0  0  0
 53 54  1  0  0  0
 53 55  1  0  0  0
 55 56  1  0  0  0
 43 34  1  0  0  0
 56 50  1  0  0  0
 41 36  1  0  0  0
  6  1  1  0  0  0
 23 12  1  0  0  0
 32 26  1  0  0  0
 23 17  1  0  0  0
  8 11  1  0  0  0
M  END
> <minimizedAffinity>
-10.84899

> <CNNscore>
0.1815026104

> <CNNaffinity>
7.5837354660

> <CNN_VS>
1.3764678240

> <CNNaffinity_variance>
0.3311396837

$$$$
[H]c1nc2c([H])c(OC([H])([H])C([H])([H])C([H])([H])N3C([H])([H])C([H])([H])N(C([H])([H])[H])C([H])([H])C3([H])[H])c(OC([H])([H])[H])c([H])c2c(Oc2c([H])c([H])c(N([H])C(=O)c3c([H])n(C([H])([H])C([H])([H])c4c([H])c([H])c(F)c([H])c4[H])c(=O)c4c([H])c(F)c([H])c([H])c34)c([H])c2F)c1[H]


 56 62  0  0  0  0  0  0  0  0999 V2000
    3.9972    1.9657   17.4916 C   0  0  0  0  0  0  0  0  0  0  0  0
    2.8644    1.3466   17.0366 C   0  0  0  0  0  0  0  0  0  0  0  0
    2.3089    1.5975   15.7888 C   0  0  0  0  0  0  0  0  0  0  0  0
    2.9416    2.5126   14.9890 C   0  0  0  0  0  0  0  0  0  0  0  0
    4.0916    3.1532   15.4299 C   0  0  0  0  0  0  0  0  0  0  0  0
    4.6234    2.8992   16.6510 C   0  0  0  0  0  0  0  0  0  0  0  0
    5.7656    3.5244   17.0627 F   0  0  0  0  0  0  0  0  0  0  0  0
    2.4720    2.7974   13.6969 N   0  0  0  0  0  0  0  0  0  0  0  0
    1.7221    3.8956   13.2577 C   0  0  0  0  0  0  0  0  0  0  0  0
    1.3953    4.8354   13.9973 O   0  0  0  0  0  0  0  0  0  0  0  0
    2.7363    2.0885   12.9346 H   0  0  0  0  0  0  0  0  0  0  0  0
    1.2984    3.9404   11.8522 C   0  0  0  0  0  0  0  0  0  0  0  0
   -0.0403    3.9128   11.5881 C   0  0  0  0  0  0  0  0  0  0  0  0
   -0.4768    4.0162   10.3091 N   0  0  0  0  0  0  0  0  0  0  0  0
    0.3873    4.1383    9.3068 C   0  0  0  0  0  0  0  0  0  0  0  0
    0.0120    4.2302    8.0866 O   0  0  0  0  0  0  0  0  0  0  0  0
    1.7669    4.1718    9.4930 C   0  0  0  0  0  0  0  0  0  0  0  0
    2.6396    4.2766    8.4394 C   0  0  0  0  0  0  0  0  0  0  0  0
    3.9828    4.2787    8.7187 C   0  0  0  0  0  0  0  0  0  0  0  0
    4.9111    4.3701    7.7051 F   0  0  0  0  0  0  0  0  0  0  0  0
    4.4547    4.1797   10.0095 C   0  0  0  0  0  0  0  0  0  0  0  0
    3.5472    4.0756   11.0433 C   0  0  0  0  0  0  0  0  0  0  0  0
    2.1904    4.0675   10.8279 C   0  0  0  0  0  0  0  0  0  0  0  0
   -1.9067    4.0731   10.1055 C   0  0  0  0  0  0  0  0  0  0  0  0
   -2.5965    4.7392   11.2864 C   0  0  0  0  0  0  0  0  0  0  0  0
   -4.0112    5.0365   11.0922 C   0  0  0  0  0  0  0  0  0  0  0  0
   -4.9665    4.2566   11.6932 C   0  0  0  0  0  0  0  0  0  0  0  0
   -6.3058    4.4689   11.5707 C   0  0  0  0  0  0  0  0  0  0  0  0
   -6.7103    5.5433   10.7857 C   0  0  0  0  0  0  0  0  0  0  0  0
   -8.0376    5.8048   10.6323 F   0  0  0  0  0  0  0  0  0  0  0  0
   -5.7980    6.3378   10.1753 C   0  0  0  0  0  0  0  0  0  0  0  0
   -4.4399    6.0961   10.3204 C   0  0  0  0  0  0  0  0  0  0  0  0
    4.5610    1.7400   18.6935 O   0  0  0  0  0  0  0  0  0  0  0  0
    4.8715    5.6391   19.8110 C   0  0  0  0  0  0  0  0  0  0  0  0
    4.7212    4.3264   19.4952 C   0  0  0  0  0  0  0  0  0  0  0  0
    4.3588    3.3671   20.4106 C   0  0  0  0  0  0  0  0  0  0  0  0
    4.2692    2.0261   19.9777 C   0  0  0  0  0  0  0  0  0  0  0  0
    3.9116    1.1553   20.9772 C   0  0  0  0  0  0  0  0  0  0  0  0
    3.6776    1.5695   22.2661 C   0  0  0  0  0  0  0  0  0  0  0  0
    3.7908    2.8531   22.6152 N   0  0  0  0  0  0  0  0  0  0  0  0
    4.1384    3.7763   21.6909 C   0  0  0  0  0  0  0  0  0  0  0  0
    4.2870    5.1072   22.0431 C   0  0  0  0  0  0  0  0  0  0  0  0
    4.6542    6.0942   21.1704 C   0  0  0  0  0  0  0  0  0  0  0  0
    4.3329    7.1785   17.9847 C   0  0  0  0  0  0  0  0  0  0  0  0
    5.2255    6.5846   18.8660 O   0  0  0  0  0  0  0  0  0  0  0  0
    4.8432    7.3647   21.3810 O   0  0  0  0  0  0  0  0  0  0  0  0
    5.0260    8.6129   21.5868 C   0  0  0  0  0  0  0  0  0  0  0  0
    5.0247    9.7113   20.6085 C   0  0  0  0  0  0  0  0  0  0  0  0
    5.9200   10.8397   20.6257 C   0  0  0  0  0  0  0  0  0  0  0  0
    5.6876   12.0681   19.9219 N   0  0  0  0  0  0  0  0  0  0  0  0
    4.2691   11.9275   19.4535 C   0  0  0  0  0  0  0  0  0  0  0  0
    3.8683   13.0480   18.5705 C   0  0  0  0  0  0  0  0  0  0  0  0
    4.7197   13.1632   17.3963 N   0  0  0  0  0  0  0  0  0  0  0  0
    4.2994   12.3431   16.3009 C   0  0  0  0  0  0  0  0  0  0  0  0
    6.1040   13.0343   17.7180 C   0  0  0  0  0  0  0  0  0  0  0  0
    6.3954   11.8883   18.6214 C   0  0  0  0  0  0  0  0  0  0  0  0
 44 45  1  0  0  0
 45 34  1  0  0  0
 34 35  2  0  0  0
 35 36  1  0  0  0
 36 37  2  0  0  0
 37 33  1  0  0  0
 33  1  1  0  0  0
  1  2  2  0  0  0
  2  3  1  0  0  0
  3  4  2  0  0  0
  4  8  1  0  0  0
  8  9  1  0  0  0
  9 10  2  0  0  0
  9 12  1  0  0  0
 12 13  2  0  0  0
 13 14  1  0  0  0
 14 24  1  0  0  0
 24 25  1  0  0  0
 25 26  1  0  0  0
 26 27  2  0  0  0
 27 28  1  0  0  0
 28 29  2  0  0  0
 29 30  1  0  0  0
 29 31  1  0  0  0
 31 32  2  0  0  0
 14 15  1  0  0  0
 15 16  2  0  0  0
 15 17  1  0  0  0
 17 18  2  0  0  0
 18 19  1  0  0  0
 19 20  1  0  0  0
 19 21  2  0  0  0
 21 22  1  0  0  0
 22 23  2  0  0  0
  4  5  1  0  0  0
  5  6  2  0  0  0
  6  7  1  0  0  0
 37 38  1  0  0  0
 38 39  2  0  0  0
 39 40  1  0  0  0
 40 41  2  0  0  0
 41 42  1  0  0  0
 42 43  2  0  0  0
 43 46  1  0  0  0
 46 47  1  0  0  0
 47 48  1  0  0  0
 48 49  1  0  0  0
 49 50  1  0  0  0
 50 51  1  0  0  0
 51 52  1  0  0  0
 52 53  1  0  0  0
 53 54  1  0  0  0
 53 55  1  0  0  0
 55 56  1  0  0  0
 43 34  1  0  0  0
 56 50  1  0  0  0
 41 36  1  0  0  0
  6  1  1  0  0  0
 23 12  1  0  0  0
 32 26  1  0  0  0
 23 17  1  0  0  0
  8 11  1  0  0  0
M  END
> <minimizedAffinity>
-10.01709

> <CNNscore>
0.1809916049

> <CNNaffinity>
7.2230634689

> <CNN_VS>
1.3073137999

> <CNNaffinity_variance>
0.3067740798

$$$$
[H]c1nc2c([H])c(OC([H])([H])C([H])([H])C([H])([H])N3C([H])([H])C([H])([H])N(C([H])([H])[H])C([H])([H])C3([H])[H])c(OC([H])([H])[H])c([H])c2c(Oc2c([H])c([H])c(N([H])C(=O)c3c([H])n(C([H])([H])C([H])([H])c4c([H])c([H])c(F)c([H])c4[H])c(=O)c4c([H])c(F)c([H])c([H])c34)c([H])c2F)c1[H]


 56 62  0  0  0  0  0  0  0  0999 V2000
    2.7604    3.5080   13.8050 C   0  0  0  0  0  0  0  0  0  0  0  0
    1.4943    3.0946   13.4895 C   0  0  0  0  0  0  0  0  0  0  0  0
    0.7171    3.7014   12.5116 C   0  0  0  0  0  0  0  0  0  0  0  0
    1.2633    4.7640   11.8409 C   0  0  0  0  0  0  0  0  0  0  0  0
    2.5456    5.2010   12.1444 C   0  0  0  0  0  0  0  0  0  0  0  0
    3.2937    4.5997   13.1021 C   0  0  0  0  0  0  0  0  0  0  0  0
    4.5604    5.0302   13.3763 F   0  0  0  0  0  0  0  0  0  0  0  0
    0.5638    5.4108   10.8096 N   0  0  0  0  0  0  0  0  0  0  0  0
    0.5240    5.0975    9.4452 C   0  0  0  0  0  0  0  0  0  0  0  0
    1.1069    4.1194    8.9547 O   0  0  0  0  0  0  0  0  0  0  0  0
   -0.0380    6.2498   11.1050 H   0  0  0  0  0  0  0  0  0  0  0  0
   -0.2443    5.9685    8.5463 C   0  0  0  0  0  0  0  0  0  0  0  0
   -1.5614    5.6737    8.3437 C   0  0  0  0  0  0  0  0  0  0  0  0
   -2.3229    6.4876    7.5724 N   0  0  0  0  0  0  0  0  0  0  0  0
   -1.7976    7.5685    7.0050 C   0  0  0  0  0  0  0  0  0  0  0  0
   -2.4839    8.3549    6.2642 O   0  0  0  0  0  0  0  0  0  0  0  0
   -0.4635    7.9359    7.1606 C   0  0  0  0  0  0  0  0  0  0  0  0
    0.0606    9.0452    6.5463 C   0  0  0  0  0  0  0  0  0  0  0  0
    1.3918    9.3151    6.7398 C   0  0  0  0  0  0  0  0  0  0  0  0
    1.9815   10.4071    6.1423 F   0  0  0  0  0  0  0  0  0  0  0  0
    2.1885    8.5080    7.5225 C   0  0  0  0  0  0  0  0  0  0  0  0
    1.6264    7.4009    8.1240 C   0  0  0  0  0  0  0  0  0  0  0  0
    0.3003    7.0777    7.9682 C   0  0  0  0  0  0  0  0  0  0  0  0
   -3.7297    6.1710    7.4728 C   0  0  0  0  0  0  0  0  0  0  0  0
   -4.5409    6.9867    8.4680 C   0  0  0  0  0  0  0  0  0  0  0  0
   -5.0777    6.2343    9.5963 C   0  0  0  0  0  0  0  0  0  0  0  0
   -4.2419    5.8028   10.5951 C   0  0  0  0  0  0  0  0  0  0  0  0
   -4.6611    5.1028   11.6850 C   0  0  0  0  0  0  0  0  0  0  0  0
   -6.0193    4.8168   11.7735 C   0  0  0  0  0  0  0  0  0  0  0  0
   -6.4944    4.1235   12.8446 F   0  0  0  0  0  0  0  0  0  0  0  0
   -6.8778    5.2255   10.8081 C   0  0  0  0  0  0  0  0  0  0  0  0
   -6.4199    5.9382    9.7098 C   0  0  0  0  0  0  0  0  0  0  0  0
    3.5387    2.9375   14.7442 O   0  0  0  0  0  0  0  0  0  0  0  0
    4.9701    4.2014   18.3360 C   0  0  0  0  0  0  0  0  0  0  0  0
    4.4450    3.7345   17.1734 C   0  0  0  0  0  0  0  0  0  0  0  0
    3.8325    2.5091   17.0609 C   0  0  0  0  0  0  0  0  0  0  0  0
    3.3562    2.1108   15.7927 C   0  0  0  0  0  0  0  0  0  0  0  0
    2.7747    0.8670   15.7969 C   0  0  0  0  0  0  0  0  0  0  0  0
    2.6843    0.1000   16.9333 C   0  0  0  0  0  0  0  0  0  0  0  0
    3.1658    0.5295   18.1020 N   0  0  0  0  0  0  0  0  0  0  0  0
    3.7537    1.7440   18.1850 C   0  0  0  0  0  0  0  0  0  0  0  0
    4.2828    2.1922   19.3836 C   0  0  0  0  0  0  0  0  0  0  0  0
    4.9083    3.3981   19.5415 C   0  0  0  0  0  0  0  0  0  0  0  0
    5.8776    6.2398   17.3276 C   0  0  0  0  0  0  0  0  0  0  0  0
    5.5702    5.4443   18.4225 O   0  0  0  0  0  0  0  0  0  0  0  0
    5.4571    3.9197   20.6003 O   0  0  0  0  0  0  0  0  0  0  0  0
    5.9937    4.4340   21.6401 C   0  0  0  0  0  0  0  0  0  0  0  0
    6.9977    5.5063   21.7163 C   0  0  0  0  0  0  0  0  0  0  0  0
    8.1316    5.5205   22.6048 C   0  0  0  0  0  0  0  0  0  0  0  0
    9.1380    6.5430   22.6163 N   0  0  0  0  0  0  0  0  0  0  0  0
   10.4081    5.7712   22.4101 C   0  0  0  0  0  0  0  0  0  0  0  0
   11.6038    6.6381   22.5313 C   0  0  0  0  0  0  0  0  0  0  0  0
   11.6841    7.2976   23.8256 N   0  0  0  0  0  0  0  0  0  0  0  0
   12.3335    6.5114   24.8302 C   0  0  0  0  0  0  0  0  0  0  0  0
   10.4284    7.8379   24.2355 C   0  0  0  0  0  0  0  0  0  0  0  0
    9.2933    6.8923   24.0580 C   0  0  0  0  0  0  0  0  0  0  0  0
 44 45  1  0  0  0
 45 34  1  0  0  0
 34 35  2  0  0  0
 35 36  1  0  0  0
 36 37  2  0  0  0
 37 33  1  0  0  0
 33  1  1  0  0  0
  1  2  2  0  0  0
  2  3  1  0  0  0
  3  4  2  0  0  0
  4  8  1  0  0  0
  8  9  1  0  0  0
  9 10  2  0  0  0
  9 12  1  0  0  0
 12 13  2  0  0  0
 13 14  1  0  0  0
 14 24  1  0  0  0
 24 25  1  0  0  0
 25 26  1  0  0  0
 26 27  2  0  0  0
 27 28  1  0  0  0
 28 29  2  0  0  0
 29 30  1  0  0  0
 29 31  1  0  0  0
 31 32  2  0  0  0
 14 15  1  0  0  0
 15 16  2  0  0  0
 15 17  1  0  0  0
 17 18  2  0  0  0
 18 19  1  0  0  0
 19 20  1  0  0  0
 19 21  2  0  0  0
 21 22  1  0  0  0
 22 23  2  0  0  0
  4  5  1  0  0  0
  5  6  2  0  0  0
  6  7  1  0  0  0
 37 38  1  0  0  0
 38 39  2  0  0  0
 39 40  1  0  0  0
 40 41  2  0  0  0
 41 42  1  0  0  0
 42 43  2  0  0  0
 43 46  1  0  0  0
 46 47  1  0  0  0
 47 48  1  0  0  0
 48 49  1  0  0  0
 49 50  1  0  0  0
 50 51  1  0  0  0
 51 52  1  0  0  0
 52 53  1  0  0  0
 53 54  1  0  0  0
 53 55  1  0  0  0
 55 56  1  0  0  0
 43 34  1  0  0  0
 56 50  1  0  0  0
 41 36  1  0  0  0
  6  1  1  0  0  0
 23 12  1  0  0  0
 32 26  1  0  0  0
 23 17  1  0  0  0
  8 11  1  0  0  0
M  END
> <minimizedAffinity>
-9.14531

> <CNNscore>
0.1622690111

> <CNNaffinity>
6.9941849709

> <CNN_VS>
1.1349394321

> <CNNaffinity_variance>
0.1517302096

$$$$
[H]c1nc2c([H])c(OC([H])([H])[H])c(OC([H])([H])[H])c([H])c2c(Oc2c([H])c([H])c(N([H])C(=O)N([H])c3c([H])c(C([H])([H])[H])c([H])c([H])c3F)c(C([H])([H])[H])c2[H])c1[H]


 36 39  0  0  0  0  0  0  0  0999 V2000
    3.0152    4.5782   14.9053 C   0  0  0  0  0  0  0  0  0  0  0  0
    3.7991    4.3408   13.8206 C   0  0  0  0  0  0  0  0  0  0  0  0
    3.6909    5.0739   12.6423 C   0  0  0  0  0  0  0  0  0  0  0  0
    2.7616    6.0837   12.5405 C   0  0  0  0  0  0  0  0  0  0  0  0
    1.9302    6.3773   13.6384 C   0  0  0  0  0  0  0  0  0  0  0  0
    1.0063    7.5286   13.5675 C   0  0  0  0  0  0  0  0  0  0  0  0
    2.0823    5.6382   14.7379 C   0  0  0  0  0  0  0  0  0  0  0  0
    2.4193    6.7185   11.3433 N   0  0  0  0  0  0  0  0  0  0  0  0
    2.0976    7.3245   10.2212 C   0  0  0  0  0  0  0  0  0  0  0  0
    1.9747    8.6108   10.0728 O   0  0  0  0  0  0  0  0  0  0  0  0
    1.8421    6.5492    9.0037 N   0  0  0  0  0  0  0  0  0  0  0  0
    2.1941    7.8572   12.0510 H   0  0  0  0  0  0  0  0  0  0  0  0
    1.9708    5.5247    9.0811 H   0  0  0  0  0  0  0  0  0  0  0  0
    1.4678    7.0968    7.7781 C   0  0  0  0  0  0  0  0  0  0  0  0
    0.2099    7.3720    7.3112 C   0  0  0  0  0  0  0  0  0  0  0  0
   -0.0503    7.9169    6.0477 C   0  0  0  0  0  0  0  0  0  0  0  0
   -1.4291    8.2454    5.6105 C   0  0  0  0  0  0  0  0  0  0  0  0
    1.0162    8.1981    5.1948 C   0  0  0  0  0  0  0  0  0  0  0  0
    2.2442    7.9202    5.6685 C   0  0  0  0  0  0  0  0  0  0  0  0
    2.5608    7.4043    6.8712 C   0  0  0  0  0  0  0  0  0  0  0  0
    3.8030    7.1832    7.3002 F   0  0  0  0  0  0  0  0  0  0  0  0
    2.9495    3.9967   16.1096 O   0  0  0  0  0  0  0  0  0  0  0  0
    5.0875    2.3509   20.2150 C   0  0  0  0  0  0  0  0  0  0  0  0
    4.5086    1.3042   19.5839 C   0  0  0  0  0  0  0  0  0  0  0  0
    3.8213    1.3927   18.4289 C   0  0  0  0  0  0  0  0  0  0  0  0
    3.3106    0.3321   17.7868 N   0  0  0  0  0  0  0  0  0  0  0  0
    2.6870    0.4038   16.6318 C   0  0  0  0  0  0  0  0  0  0  0  0
    2.5166    1.6202   15.9936 C   0  0  0  0  0  0  0  0  0  0  0  0
    2.9995    2.7574   16.5663 C   0  0  0  0  0  0  0  0  0  0  0  0
    3.6797    2.6494   17.8344 C   0  0  0  0  0  0  0  0  0  0  0  0
    4.2548    3.7179   18.4567 C   0  0  0  0  0  0  0  0  0  0  0  0
    4.9615    3.6574   19.6166 C   0  0  0  0  0  0  0  0  0  0  0  0
    6.7479    1.4132   21.7506 C   0  0  0  0  0  0  0  0  0  0  0  0
    5.7946    2.3319   21.3498 O   0  0  0  0  0  0  0  0  0  0  0  0
    5.6076    4.6677   20.2994 O   0  0  0  0  0  0  0  0  0  0  0  0
    5.0198    5.7179   21.0061 C   0  0  0  0  0  0  0  0  0  0  0  0
 33 34  1  0  0  0
 34 23  1  0  0  0
 23 24  2  0  0  0
 24 25  1  0  0  0
 25 26  2  0  0  0
 26 27  1  0  0  0
 27 28  2  0  0  0
 28 29  1  0  0  0
 29 22  1  0  0  0
 22  1  1  0  0  0
  1  2  2  0  0  0
  2  3  1  0  0  0
  3  4  2  0  0  0
  4  8  1  0  0  0
  8  9  1  0  0  0
  9 10  2  0  0  0
  9 11  1  0  0  0
 11 14  1  0  0  0
 14 15  2  0  0  0
 15 16  1  0  0  0
 16 17  1  0  0  0
 16 18  2  0  0  0
 18 19  1  0  0  0
 19 20  2  0  0  0
 20 21  1  0  0  0
  4  5  1  0  0  0
  5  6  1  0  0  0
  5  7  2  0  0  0
 29 30  2  0  0  0
 30 31  1  0  0  0
 31 32  2  0  0  0
 32 35  1  0  0  0
 35 36  1  0  0  0
 32 23  1  0  0  0
 30 25  1  0  0  0
  7  1  1  0  0  0
 20 14  1  0  0  0
  8 12  1  0  0  0
 11 13  1  0  0  0
M  END
> <minimizedAffinity>
-7.44672

> <CNNscore>
0.3007888794

> <CNNaffinity>
6.2010550499

> <CNN_VS>
1.8652083874

> <CNNaffinity_variance>
0.5442449450

$$$$
[H]c1nc2c([H])c(OC([H])([H])[H])c(OC([H])([H])[H])c([H])c2c(Oc2c([H])c([H])c(N([H])C(=O)N([H])c3c([H])c(C([H])([H])[H])c([H])c([H])c3F)c(C([H])([H])[H])c2[H])c1[H]


 36 39  0  0  0  0  0  0  0  0999 V2000
    3.8317    4.8972   15.3997 C   0  0  0  0  0  0  0  0  0  0  0  0
    3.6617    6.2187   15.1315 C   0  0  0  0  0  0  0  0  0  0  0  0
    3.5540    6.7129   13.8347 C   0  0  0  0  0  0  0  0  0  0  0  0
    3.6206    5.8546   12.7612 C   0  0  0  0  0  0  0  0  0  0  0  0
    3.7869    4.4742   12.9835 C   0  0  0  0  0  0  0  0  0  0  0  0
    3.7525    3.5407   11.8383 C   0  0  0  0  0  0  0  0  0  0  0  0
    3.8847    4.0640   14.2486 C   0  0  0  0  0  0  0  0  0  0  0  0
    3.7520    6.2674   11.4324 N   0  0  0  0  0  0  0  0  0  0  0  0
    3.8778    6.6467   10.1793 C   0  0  0  0  0  0  0  0  0  0  0  0
    4.1719    5.8619    9.1847 O   0  0  0  0  0  0  0  0  0  0  0  0
    3.6864    8.0507    9.8042 N   0  0  0  0  0  0  0  0  0  0  0  0
    4.3342    5.0709   11.1538 H   0  0  0  0  0  0  0  0  0  0  0  0
    3.4125    8.6929   10.5689 H   0  0  0  0  0  0  0  0  0  0  0  0
    3.8266    8.5531    8.5119 C   0  0  0  0  0  0  0  0  0  0  0  0
    4.9327    9.1063    7.9232 C   0  0  0  0  0  0  0  0  0  0  0  0
    4.9556    9.5919    6.6098 C   0  0  0  0  0  0  0  0  0  0  0  0
    6.1953   10.1340    6.0018 C   0  0  0  0  0  0  0  0  0  0  0  0
    3.7957    9.5254    5.8390 C   0  0  0  0  0  0  0  0  0  0  0  0
    2.7187    8.9809    6.4332 C   0  0  0  0  0  0  0  0  0  0  0  0
    2.6334    8.4914    7.6847 C   0  0  0  0  0  0  0  0  0  0  0  0
    1.5446    7.9291    8.2083 F   0  0  0  0  0  0  0  0  0  0  0  0
    3.9651    4.2247   16.5498 O   0  0  0  0  0  0  0  0  0  0  0  0
    4.9133    2.2351   20.9404 C   0  0  0  0  0  0  0  0  0  0  0  0
    4.3293    1.2963   20.1614 C   0  0  0  0  0  0  0  0  0  0  0  0
    3.9231    1.4996   18.8934 C   0  0  0  0  0  0  0  0  0  0  0  0
    3.4052    0.5366   18.1173 N   0  0  0  0  0  0  0  0  0  0  0  0
    3.0579    0.7134   16.8619 C   0  0  0  0  0  0  0  0  0  0  0  0
    3.2121    1.9461   16.2514 C   0  0  0  0  0  0  0  0  0  0  0  0
    3.7295    2.9896   16.9570 C   0  0  0  0  0  0  0  0  0  0  0  0
    4.1020    2.7673   18.3333 C   0  0  0  0  0  0  0  0  0  0  0  0
    4.6875    3.7283   19.1037 C   0  0  0  0  0  0  0  0  0  0  0  0
    5.1156    3.5496   20.3817 C   0  0  0  0  0  0  0  0  0  0  0  0
    4.6276    1.7756   23.3282 C   0  0  0  0  0  0  0  0  0  0  0  0
    5.3535    2.0975   22.1956 O   0  0  0  0  0  0  0  0  0  0  0  0
    5.7481    4.4415   21.2237 O   0  0  0  0  0  0  0  0  0  0  0  0
    5.1553    5.4571   21.9753 C   0  0  0  0  0  0  0  0  0  0  0  0
 33 34  1  0  0  0
 34 23  1  0  0  0
 23 24  2  0  0  0
 24 25  1  0  0  0
 25 26  2  0  0  0
 26 27  1  0  0  0
 27 28  2  0  0  0
 28 29  1  0  0  0
 29 22  1  0  0  0
 22  1  1  0  0  0
  1  2  2  0  0  0
  2  3  1  0  0  0
  3  4  2  0  0  0
  4  8  1  0  0  0
  8  9  1  0  0  0
  9 10  2  0  0  0
  9 11  1  0  0  0
 11 14  1  0  0  0
 14 15  2  0  0  0
 15 16  1  0  0  0
 16 17  1  0  0  0
 16 18  2  0  0  0
 18 19  1  0  0  0
 19 20  2  0  0  0
 20 21  1  0  0  0
  4  5  1  0  0  0
  5  6  1  0  0  0
  5  7  2  0  0  0
 29 30  2  0  0  0
 30 31  1  0  0  0
 31 32  2  0  0  0
 32 35  1  0  0  0
 35 36  1  0  0  0
 32 23  1  0  0  0
 30 25  1  0  0  0
  7  1  1  0  0  0
 20 14  1  0  0  0
  8 12  1  0  0  0
 11 13  1  0  0  0
M  END
> <minimizedAffinity>
-8.45525

> <CNNscore>
0.2752734125

> <CNNaffinity>
6.1940612793

> <CNN_VS>
1.7050603628

> <CNNaffinity_variance>
0.5679886937

$$$$
[H]c1nc2c([H])c(OC([H])([H])[H])c(OC([H])([H])[H])c([H])c2c(Oc2c([H])c([H])c(N([H])C(=O)N([H])c3c([H])c(C([H])([H])[H])c([H])c([H])c3F)c(C([H])([H])[H])c2[H])c1[H]


 36 39  0  0  0  0  0  0  0  0999 V2000
    2.7947    2.2805   14.8714 C   0  0  0  0  0  0  0  0  0  0  0  0
    2.2732    1.7742   13.7230 C   0  0  0  0  0  0  0  0  0  0  0  0
    1.4556    2.5195   12.8782 C   0  0  0  0  0  0  0  0  0  0  0  0
    1.1435    3.8224   13.1924 C   0  0  0  0  0  0  0  0  0  0  0  0
    1.6650    4.3990   14.3664 C   0  0  0  0  0  0  0  0  0  0  0  0
    1.4175    5.8280   14.6504 C   0  0  0  0  0  0  0  0  0  0  0  0
    2.4407    3.6325   15.1339 C   0  0  0  0  0  0  0  0  0  0  0  0
    0.1610    4.5737   12.5415 N   0  0  0  0  0  0  0  0  0  0  0  0
   -0.7605    5.2886   11.9337 C   0  0  0  0  0  0  0  0  0  0  0  0
   -0.9396    6.5676   12.0881 O   0  0  0  0  0  0  0  0  0  0  0  0
   -1.6940    4.6572   10.9963 N   0  0  0  0  0  0  0  0  0  0  0  0
    0.4071    5.5876   13.4129 H   0  0  0  0  0  0  0  0  0  0  0  0
   -1.5508    3.6465   10.8228 H   0  0  0  0  0  0  0  0  0  0  0  0
   -2.7197    5.3232   10.3281 C   0  0  0  0  0  0  0  0  0  0  0  0
   -3.9920    5.5893   10.7597 C   0  0  0  0  0  0  0  0  0  0  0  0
   -4.9504    6.2625    9.9920 C   0  0  0  0  0  0  0  0  0  0  0  0
   -6.2988    6.5722   10.5269 C   0  0  0  0  0  0  0  0  0  0  0  0
   -4.6159    6.6909    8.7080 C   0  0  0  0  0  0  0  0  0  0  0  0
   -3.3632    6.4198    8.2996 C   0  0  0  0  0  0  0  0  0  0  0  0
   -2.3961    5.7851    8.9887 C   0  0  0  0  0  0  0  0  0  0  0  0
   -1.1576    5.5764    8.5434 F   0  0  0  0  0  0  0  0  0  0  0  0
    3.5805    1.7437   15.8133 O   0  0  0  0  0  0  0  0  0  0  0  0
    5.0778    3.2999   20.2259 C   0  0  0  0  0  0  0  0  0  0  0  0
    4.3923    2.1454   20.3884 C   0  0  0  0  0  0  0  0  0  0  0  0
    3.8264    1.4447   19.3869 C   0  0  0  0  0  0  0  0  0  0  0  0
    3.2067    0.2687   19.5627 N   0  0  0  0  0  0  0  0  0  0  0  0
    2.7007   -0.4477   18.5835 C   0  0  0  0  0  0  0  0  0  0  0  0
    2.7818   -0.0119   17.2722 C   0  0  0  0  0  0  0  0  0  0  0  0
    3.3923    1.1722   16.9901 C   0  0  0  0  0  0  0  0  0  0  0  0
    3.9387    1.9382   18.0843 C   0  0  0  0  0  0  0  0  0  0  0  0
    4.6247    3.1023   17.9001 C   0  0  0  0  0  0  0  0  0  0  0  0
    5.2138    3.8253   18.8894 C   0  0  0  0  0  0  0  0  0  0  0  0
    6.4426    3.6020   22.2360 C   0  0  0  0  0  0  0  0  0  0  0  0
    5.6761    4.0351   21.1692 O   0  0  0  0  0  0  0  0  0  0  0  0
    5.9552    4.9858   18.8001 O   0  0  0  0  0  0  0  0  0  0  0  0
    5.5900    6.1729   18.1635 C   0  0  0  0  0  0  0  0  0  0  0  0
 33 34  1  0  0  0
 34 23  1  0  0  0
 23 24  2  0  0  0
 24 25  1  0  0  0
 25 26  2  0  0  0
 26 27  1  0  0  0
 27 28  2  0  0  0
 28 29  1  0  0  0
 29 22  1  0  0  0
 22  1  1  0  0  0
  1  2  2  0  0  0
  2  3  1  0  0  0
  3  4  2  0  0  0
  4  8  1  0  0  0
  8  9  1  0  0  0
  9 10  2  0  0  0
  9 11  1  0  0  0
 11 14  1  0  0  0
 14 15  2  0  0  0
 15 16  1  0  0  0
 16 17  1  0  0  0
 16 18  2  0  0  0
 18 19  1  0  0  0
 19 20  2  0  0  0
 20 21  1  0  0  0
  4  5  1  0  0  0
  5  6  1  0  0  0
  5  7  2  0  0  0
 29 30  2  0  0  0
 30 31  1  0  0  0
 31 32  2  0  0  0
 32 35  1  0  0  0
 35 36  1  0  0  0
 32 23  1  0  0  0
 30 25  1  0  0  0
  7  1  1  0  0  0
 20 14  1  0  0  0
  8 12  1  0  0  0
 11 13  1  0  0  0
M  END
> <minimizedAffinity>
-8.58153

> <CNNscore>
0.2578469217

> <CNNaffinity>
6.2003674507

> <CNN_VS>
1.5987457037

> <CNNaffinity_variance>
0.2123112679

$$$$
[H]c1nc2c([H])c(OC([H])([H])[H])c(OC([H])([H])[H])c([H])c2c(Oc2c([H])c([H])c(N([H])C(=O)N([H])c3c([H])c(C([H])([H])[H])c([H])c([H])c3F)c(C([H])([H])[H])c2[H])c1[H]


 36 39  0  0  0  0  0  0  0  0999 V2000
    4.1653    3.3288   16.1421 C   0  0  0  0  0  0  0  0  0  0  0  0
    4.0906    4.6548   16.4310 C   0  0  0  0  0  0  0  0  0  0  0  0
    3.7354    5.6100   15.4827 C   0  0  0  0  0  0  0  0  0  0  0  0
    3.4449    5.2276   14.1932 C   0  0  0  0  0  0  0  0  0  0  0  0
    3.4982    3.8649   13.8429 C   0  0  0  0  0  0  0  0  0  0  0  0
    3.0845    3.4423   12.4885 C   0  0  0  0  0  0  0  0  0  0  0  0
    3.8461    2.9997   14.7962 C   0  0  0  0  0  0  0  0  0  0  0  0
    3.3032    6.1159   13.1235 N   0  0  0  0  0  0  0  0  0  0  0  0
    3.1664    6.9585   12.1229 C   0  0  0  0  0  0  0  0  0  0  0  0
    2.7041    8.1702   12.2214 O   0  0  0  0  0  0  0  0  0  0  0  0
    3.5438    6.5652   10.7621 N   0  0  0  0  0  0  0  0  0  0  0  0
    2.5348    6.9026   13.9226 H   0  0  0  0  0  0  0  0  0  0  0  0
    3.9522    5.6193   10.6585 H   0  0  0  0  0  0  0  0  0  0  0  0
    3.4089    7.3747    9.6358 C   0  0  0  0  0  0  0  0  0  0  0  0
    4.3517    8.1601    9.0275 C   0  0  0  0  0  0  0  0  0  0  0  0
    4.0987    8.9469    7.8969 C   0  0  0  0  0  0  0  0  0  0  0  0
    5.1695    9.7394    7.2445 C   0  0  0  0  0  0  0  0  0  0  0  0
    2.8188    8.9527    7.3441 C   0  0  0  0  0  0  0  0  0  0  0  0
    1.9049    8.1773    7.9549 C   0  0  0  0  0  0  0  0  0  0  0  0
    2.0853    7.3955    9.0363 C   0  0  0  0  0  0  0  0  0  0  0  0
    1.1474    6.6187    9.5774 F   0  0  0  0  0  0  0  0  0  0  0  0
    4.4897    2.2649   16.8876 O   0  0  0  0  0  0  0  0  0  0  0  0
    4.6845    1.7671   21.7711 C   0  0  0  0  0  0  0  0  0  0  0  0
    3.8039    0.8641   21.2829 C   0  0  0  0  0  0  0  0  0  0  0  0
    3.4924    0.7272   19.9797 C   0  0  0  0  0  0  0  0  0  0  0  0
    2.6650   -0.2179   19.5104 N   0  0  0  0  0  0  0  0  0  0  0  0
    2.3993   -0.3931   18.2349 C   0  0  0  0  0  0  0  0  0  0  0  0
    2.9782    0.4170   17.2733 C   0  0  0  0  0  0  0  0  0  0  0  0
    3.8333    1.4076   17.6498 C   0  0  0  0  0  0  0  0  0  0  0  0
    4.1068    1.5775   19.0565 C   0  0  0  0  0  0  0  0  0  0  0  0
    4.9967    2.4963   19.5295 C   0  0  0  0  0  0  0  0  0  0  0  0
    5.3374    2.6510   20.8366 C   0  0  0  0  0  0  0  0  0  0  0  0
    4.4143    2.6862   24.0242 C   0  0  0  0  0  0  0  0  0  0  0  0
    5.0510    1.9456   23.0446 O   0  0  0  0  0  0  0  0  0  0  0  0
    6.2469    3.5192   21.4052 O   0  0  0  0  0  0  0  0  0  0  0  0
    6.1281    4.9045   21.5268 C   0  0  0  0  0  0  0  0  0  0  0  0
 33 34  1  0  0  0
 34 23  1  0  0  0
 23 24  2  0  0  0
 24 25  1  0  0  0
 25 26  2  0  0  0
 26 27  1  0  0  0
 27 28  2  0  0  0
 28 29  1  0  0  0
 29 22  1  0  0  0
 22  1  1  0  0  0
  1  2  2  0  0  0
  2  3  1  0  0  0
  3  4  2  0  0  0
  4  8  1  0  0  0
  8  9  1  0  0  0
  9 10  2  0  0  0
  9 11  1  0  0  0
 11 14  1  0  0  0
 14 15  2  0  0  0
 15 16  1  0  0  0
 16 17  1  0  0  0
 16 18  2  0  0  0
 18 19  1  0  0  0
 19 20  2  0  0  0
 20 21  1  0  0  0
  4  5  1  0  0  0
  5  6  1  0  0  0
  5  7  2  0  0  0
 29 30  2  0  0  0
 30 31  1  0  0  0
 31 32  2  0  0  0
 32 35  1  0  0  0
 35 36  1  0  0  0
 32 23  1  0  0  0
 30 25  1  0  0  0
  7  1  1  0  0  0
 20 14  1  0  0  0
  8 12  1  0  0  0
 11 13  1  0  0  0
M  END
> <minimizedAffinity>
-8.42138

> <CNNscore>
0.2227585912

> <CNNaffinity>
6.2216687202

> <CNN_VS>
1.3859301805

> <CNNaffinity_variance>
0.2156141996

$$$$
[H]c1nc2c([H])c(OC([H])([H])[H])c(OC([H])([H])[H])c([H])c2c(Oc2c([H])c([H])c(N([H])C(=O)N([H])c3c([H])c(C([H])([H])[H])c([H])c([H])c3F)c(C([H])([H])[H])c2[H])c1[H]


 36 39  0  0  0  0  0  0  0  0999 V2000
    2.9443    3.1827   14.8771 C   0  0  0  0  0  0  0  0  0  0  0  0
    2.3707    2.3337   13.9841 C   0  0  0  0  0  0  0  0  0  0  0  0
    1.3851    2.7404   13.0892 C   0  0  0  0  0  0  0  0  0  0  0  0
    0.9523    4.0466   13.0859 C   0  0  0  0  0  0  0  0  0  0  0  0
    1.5201    4.9699   13.9847 C   0  0  0  0  0  0  0  0  0  0  0  0
    1.1325    6.3941   13.9106 C   0  0  0  0  0  0  0  0  0  0  0  0
    2.4588    4.5178   14.8170 C   0  0  0  0  0  0  0  0  0  0  0  0
   -0.1766    4.4984   12.3967 N   0  0  0  0  0  0  0  0  0  0  0  0
   -1.2332    4.9294   11.7429 C   0  0  0  0  0  0  0  0  0  0  0  0
   -1.2174    5.8270   10.8017 O   0  0  0  0  0  0  0  0  0  0  0  0
   -2.5653    4.4003   12.0500 N   0  0  0  0  0  0  0  0  0  0  0  0
    0.5700    5.5284   11.9175 H   0  0  0  0  0  0  0  0  0  0  0  0
   -2.6046    3.6553   12.7682 H   0  0  0  0  0  0  0  0  0  0  0  0
   -3.7450    4.8142   11.4344 C   0  0  0  0  0  0  0  0  0  0  0  0
   -4.4038    4.2466   10.3762 C   0  0  0  0  0  0  0  0  0  0  0  0
   -5.5865    4.7594    9.8290 C   0  0  0  0  0  0  0  0  0  0  0  0
   -6.2894    4.0762    8.7157 C   0  0  0  0  0  0  0  0  0  0  0  0
   -6.1414    5.9177   10.3715 C   0  0  0  0  0  0  0  0  0  0  0  0
   -5.4807    6.4628   11.4087 C   0  0  0  0  0  0  0  0  0  0  0  0
   -4.3477    6.0171   11.9836 C   0  0  0  0  0  0  0  0  0  0  0  0
   -3.7565    6.5815   13.0362 F   0  0  0  0  0  0  0  0  0  0  0  0
    3.8834    2.9997   15.8138 O   0  0  0  0  0  0  0  0  0  0  0  0
    4.5034    2.0967   20.6029 C   0  0  0  0  0  0  0  0  0  0  0  0
    5.0698    3.2906   20.3149 C   0  0  0  0  0  0  0  0  0  0  0  0
    5.0974    3.8480   19.0890 C   0  0  0  0  0  0  0  0  0  0  0  0
    5.6074    5.0624   18.8380 N   0  0  0  0  0  0  0  0  0  0  0  0
    5.5883    5.6363   17.6555 C   0  0  0  0  0  0  0  0  0  0  0  0
    5.0218    4.9960   16.5668 C   0  0  0  0  0  0  0  0  0  0  0  0
    4.4773    3.7572   16.7195 C   0  0  0  0  0  0  0  0  0  0  0  0
    4.5123    3.1509   18.0286 C   0  0  0  0  0  0  0  0  0  0  0  0
    3.9375    1.9441   18.2984 C   0  0  0  0  0  0  0  0  0  0  0  0
    3.8863    1.3617   19.5259 C   0  0  0  0  0  0  0  0  0  0  0  0
    4.2725    2.0758   23.0402 C   0  0  0  0  0  0  0  0  0  0  0  0
    4.4262    1.4947   21.7944 O   0  0  0  0  0  0  0  0  0  0  0  0
    3.2999    0.1711   19.9040 O   0  0  0  0  0  0  0  0  0  0  0  0
    2.3247   -0.5465   19.2097 C   0  0  0  0  0  0  0  0  0  0  0  0
 33 34  1  0  0  0
 34 23  1  0  0  0
 23 24  2  0  0  0
 24 25  1  0  0  0
 25 26  2  0  0  0
 26 27  1  0  0  0
 27 28  2  0  0  0
 28 29  1  0  0  0
 29 22  1  0  0  0
 22  1  1  0  0  0
  1  2  2  0  0  0
  2  3  1  0  0  0
  3  4  2  0  0  0
  4  8  1  0  0  0
  8  9  1  0  0  0
  9 10  2  0  0  0
  9 11  1  0  0  0
 11 14  1  0  0  0
 14 15  2  0  0  0
 15 16  1  0  0  0
 16 17  1  0  0  0
 16 18  2  0  0  0
 18 19  1  0  0  0
 19 20  2  0  0  0
 20 21  1  0  0  0
  4  5  1  0  0  0
  5  6  1  0  0  0
  5  7  2  0  0  0
 29 30  2  0  0  0
 30 31  1  0  0  0
 31 32  2  0  0  0
 32 35  1  0  0  0
 35 36  1  0  0  0
 32 23  1  0  0  0
 30 25  1  0  0  0
  7  1  1  0  0  0
 20 14  1  0  0  0
  8 12  1  0  0  0
 11 13  1  0  0  0
M  END
> <minimizedAffinity>
-8.89157

> <CNNscore>
0.2161095589

> <CNNaffinity>
6.1283721924

> <CNN_VS>
1.3243998289

> <CNNaffinity_variance>
0.1317208409

$$$$
[H]c1nc2c([H])c(OC([H])([H])[H])c(OC([H])([H])[H])c([H])c2c(Oc2c([H])c([H])c(N([H])C(=O)N([H])c3c([H])c(C([H])([H])[H])c([H])c([H])c3F)c(C([H])([H])[H])c2[H])c1[H]


 36 39  0  0  0  0  0  0  0  0999 V2000
    3.5499    2.6858   15.4912 C   0  0  0  0  0  0  0  0  0  0  0  0
    3.1602    2.1165   14.3202 C   0  0  0  0  0  0  0  0  0  0  0  0
    2.6380    2.8570   13.2635 C   0  0  0  0  0  0  0  0  0  0  0  0
    2.4966    4.2208   13.3800 C   0  0  0  0  0  0  0  0  0  0  0  0
    2.8936    4.8624   14.5689 C   0  0  0  0  0  0  0  0  0  0  0  0
    2.8410    6.3368   14.6557 C   0  0  0  0  0  0  0  0  0  0  0  0
    3.3851    4.0972   15.5441 C   0  0  0  0  0  0  0  0  0  0  0  0
    1.7815    5.0161   12.4802 N   0  0  0  0  0  0  0  0  0  0  0  0
    1.1088    5.7719   11.6399 C   0  0  0  0  0  0  0  0  0  0  0  0
    0.7621    7.0068   11.8552 O   0  0  0  0  0  0  0  0  0  0  0  0
    0.6831    5.2431   10.3407 N   0  0  0  0  0  0  0  0  0  0  0  0
    1.5677    5.9039   13.4873 H   0  0  0  0  0  0  0  0  0  0  0  0
    0.9787    4.2746   10.1245 H   0  0  0  0  0  0  0  0  0  0  0  0
   -0.0566    5.9548    9.3981 C   0  0  0  0  0  0  0  0  0  0  0  0
    0.3917    6.8007    8.4185 C   0  0  0  0  0  0  0  0  0  0  0  0
   -0.4508    7.4759    7.5266 C   0  0  0  0  0  0  0  0  0  0  0  0
    0.0891    8.3405    6.4490 C   0  0  0  0  0  0  0  0  0  0  0  0
   -1.8301    7.2981    7.6259 C   0  0  0  0  0  0  0  0  0  0  0  0
   -2.2530    6.4656    8.5942 C   0  0  0  0  0  0  0  0  0  0  0  0
   -1.4976    5.7836    9.4758 C   0  0  0  0  0  0  0  0  0  0  0  0
   -1.9732    4.9424   10.3933 F   0  0  0  0  0  0  0  0  0  0  0  0
    4.0589    2.1669   16.6157 O   0  0  0  0  0  0  0  0  0  0  0  0
    4.7064    2.5623   21.4694 C   0  0  0  0  0  0  0  0  0  0  0  0
    3.9641    1.4586   21.2245 C   0  0  0  0  0  0  0  0  0  0  0  0
    3.5841    1.0492   19.9988 C   0  0  0  0  0  0  0  0  0  0  0  0
    2.9029   -0.0835   19.7735 N   0  0  0  0  0  0  0  0  0  0  0  0
    2.5767   -0.5179   18.5765 C   0  0  0  0  0  0  0  0  0  0  0  0
    2.9297    0.1953   17.4439 C   0  0  0  0  0  0  0  0  0  0  0  0
    3.6231    1.3608   17.5680 C   0  0  0  0  0  0  0  0  0  0  0  0
    3.9678    1.8140   18.8940 C   0  0  0  0  0  0  0  0  0  0  0  0
    4.7153    2.9320   19.1206 C   0  0  0  0  0  0  0  0  0  0  0  0
    5.1211    3.3639   20.3442 C   0  0  0  0  0  0  0  0  0  0  0  0
    4.9562    2.4466   23.9023 C   0  0  0  0  0  0  0  0  0  0  0  0
    5.1308    3.0158   22.6537 O   0  0  0  0  0  0  0  0  0  0  0  0
    5.9039    4.4525   20.6706 O   0  0  0  0  0  0  0  0  0  0  0  0
    5.8521    5.7280   20.1065 C   0  0  0  0  0  0  0  0  0  0  0  0
 33 34  1  0  0  0
 34 23  1  0  0  0
 23 24  2  0  0  0
 24 25  1  0  0  0
 25 26  2  0  0  0
 26 27  1  0  0  0
 27 28  2  0  0  0
 28 29  1  0  0  0
 29 22  1  0  0  0
 22  1  1  0  0  0
  1  2  2  0  0  0
  2  3  1  0  0  0
  3  4  2  0  0  0
  4  8  1  0  0  0
  8  9  1  0  0  0
  9 10  2  0  0  0
  9 11  1  0  0  0
 11 14  1  0  0  0
 14 15  2  0  0  0
 15 16  1  0  0  0
 16 17  1  0  0  0
 16 18  2  0  0  0
 18 19  1  0  0  0
 19 20  2  0  0  0
 20 21  1  0  0  0
  4  5  1  0  0  0
  5  6  1  0  0  0
  5  7  2  0  0  0
 29 30  2  0  0  0
 30 31  1  0  0  0
 31 32  2  0  0  0
 32 35  1  0  0  0
 35 36  1  0  0  0
 32 23  1  0  0  0
 30 25  1  0  0  0
  7  1  1  0  0  0
 20 14  1  0  0  0
  8 12  1  0  0  0
 11 13  1  0  0  0
M  END
> <minimizedAffinity>
-8.17976

> <CNNscore>
0.2126304954

> <CNNaffinity>
6.1987924576

> <CNN_VS>
1.3180522919

> <CNNaffinity_variance>
0.3064707816

$$$$
[H]c1nc2c([H])c(OC([H])([H])[H])c(OC([H])([H])[H])c([H])c2c(Oc2c([H])c([H])c(N([H])C(=O)N([H])c3c([H])c(C([H])([H])[H])c([H])c([H])c3F)c(C([H])([H])[H])c2[H])c1[H]


 36 39  0  0  0  0  0  0  0  0999 V2000
    4.1091    2.8078   16.3244 C   0  0  0  0  0  0  0  0  0  0  0  0
    4.2717    4.1398   16.1086 C   0  0  0  0  0  0  0  0  0  0  0  0
    3.8328    4.7704   14.9478 C   0  0  0  0  0  0  0  0  0  0  0  0
    3.2081    4.0428   13.9610 C   0  0  0  0  0  0  0  0  0  0  0  0
    3.0062    2.6605   14.1380 C   0  0  0  0  0  0  0  0  0  0  0  0
    2.2426    1.8989   13.1276 C   0  0  0  0  0  0  0  0  0  0  0  0
    3.4505    2.1159   15.2711 C   0  0  0  0  0  0  0  0  0  0  0  0
    2.9389    4.5280   12.6782 N   0  0  0  0  0  0  0  0  0  0  0  0
    2.6890    4.9764   11.4673 C   0  0  0  0  0  0  0  0  0  0  0  0
    2.9105    4.3219   10.3654 O   0  0  0  0  0  0  0  0  0  0  0  0
    2.1170    6.3118   11.2717 N   0  0  0  0  0  0  0  0  0  0  0  0
    3.6870    3.5114   12.1735 H   0  0  0  0  0  0  0  0  0  0  0  0
    1.8930    6.8415   12.1327 H   0  0  0  0  0  0  0  0  0  0  0  0
    1.8451    6.8847   10.0308 C   0  0  0  0  0  0  0  0  0  0  0  0
    0.7320    6.7399    9.2458 C   0  0  0  0  0  0  0  0  0  0  0  0
    0.5705    7.3605    8.0008 C   0  0  0  0  0  0  0  0  0  0  0  0
   -0.6779    7.2129    7.2136 C   0  0  0  0  0  0  0  0  0  0  0  0
    1.5909    8.1724    7.5073 C   0  0  0  0  0  0  0  0  0  0  0  0
    2.6772    8.3021    8.2901 C   0  0  0  0  0  0  0  0  0  0  0  0
    2.8905    7.7402    9.4950 C   0  0  0  0  0  0  0  0  0  0  0  0
    3.9761    7.9349   10.2429 F   0  0  0  0  0  0  0  0  0  0  0  0
    4.4579    2.0149   17.3455 O   0  0  0  0  0  0  0  0  0  0  0  0
    4.6073    2.3009   22.2476 C   0  0  0  0  0  0  0  0  0  0  0  0
    3.7564    1.3082   21.9018 C   0  0  0  0  0  0  0  0  0  0  0  0
    3.4641    0.9584   20.6343 C   0  0  0  0  0  0  0  0  0  0  0  0
    2.6673   -0.0714   20.3143 N   0  0  0  0  0  0  0  0  0  0  0  0
    2.4215   -0.4533   19.0806 C   0  0  0  0  0  0  0  0  0  0  0  0
    2.9906    0.2102   18.0074 C   0  0  0  0  0  0  0  0  0  0  0  0
    3.8150    1.2712   18.2288 C   0  0  0  0  0  0  0  0  0  0  0  0
    4.0672    1.6688   19.5929 C   0  0  0  0  0  0  0  0  0  0  0  0
    4.9271    2.6750   19.9213 C   0  0  0  0  0  0  0  0  0  0  0  0
    5.2480    3.0437   21.1900 C   0  0  0  0  0  0  0  0  0  0  0  0
    5.6547    1.9774   24.4368 C   0  0  0  0  0  0  0  0  0  0  0  0
    4.9537    2.6886   23.4796 O   0  0  0  0  0  0  0  0  0  0  0  0
    6.1278    4.0157   21.6209 O   0  0  0  0  0  0  0  0  0  0  0  0
    6.0851    5.3802   21.3309 C   0  0  0  0  0  0  0  0  0  0  0  0
 33 34  1  0  0  0
 34 23  1  0  0  0
 23 24  2  0  0  0
 24 25  1  0  0  0
 25 26  2  0  0  0
 26 27  1  0  0  0
 27 28  2  0  0  0
 28 29  1  0  0  0
 29 22  1  0  0  0
 22  1  1  0  0  0
  1  2  2  0  0  0
  2  3  1  0  0  0
  3  4  2  0  0  0
  4  8  1  0  0  0
  8  9  1  0  0  0
  9 10  2  0  0  0
  9 11  1  0  0  0
 11 14  1  0  0  0
 14 15  2  0  0  0
 15 16  1  0  0  0
 16 17  1  0  0  0
 16 18  2  0  0  0
 18 19  1  0  0  0
 19 20  2  0  0  0
 20 21  1  0  0  0
  4  5  1  0  0  0
  5  6  1  0  0  0
  5  7  2  0  0  0
 29 30  2  0  0  0
 30 31  1  0  0  0
 31 32  2  0  0  0
 32 35  1  0  0  0
 35 36  1  0  0  0
 32 23  1  0  0  0
 30 25  1  0  0  0
  7  1  1  0  0  0
 20 14  1  0  0  0
  8 12  1  0  0  0
 11 13  1  0  0  0
M  END
> <minimizedAffinity>
-8.45928

> <CNNscore>
0.2094800770

> <CNNaffinity>
6.2802953720

> <CNN_VS>
1.3155966997

> <CNNaffinity_variance>
0.1689392775

$$$$
[H]c1nc2c([H])c(OC([H])([H])[H])c(OC([H])([H])[H])c([H])c2c(Oc2c([H])c([H])c(N([H])C(=O)N([H])c3c([H])c(C([H])([H])[H])c([H])c([H])c3F)c(C([H])([H])[H])c2[H])c1[H]


 36 39  0  0  0  0  0  0  0  0999 V2000
    3.6854    3.0330   15.7735 C   0  0  0  0  0  0  0  0  0  0  0  0
    2.7917    2.0114   15.7046 C   0  0  0  0  0  0  0  0  0  0  0  0
    2.1605    1.6459   14.5190 C   0  0  0  0  0  0  0  0  0  0  0  0
    2.4298    2.3284   13.3549 C   0  0  0  0  0  0  0  0  0  0  0  0
    3.3550    3.3897   13.3688 C   0  0  0  0  0  0  0  0  0  0  0  0
    3.7239    4.0536   12.1010 C   0  0  0  0  0  0  0  0  0  0  0  0
    3.9248    3.6914   14.5361 C   0  0  0  0  0  0  0  0  0  0  0  0
    1.6908    2.1935   12.1763 N   0  0  0  0  0  0  0  0  0  0  0  0
    0.9958    2.0762   11.0659 C   0  0  0  0  0  0  0  0  0  0  0  0
    0.6459    3.0621   10.2931 O   0  0  0  0  0  0  0  0  0  0  0  0
    0.5460    0.7592   10.6052 N   0  0  0  0  0  0  0  0  0  0  0  0
    1.4927    3.5383   12.1866 H   0  0  0  0  0  0  0  0  0  0  0  0
    0.8432   -0.0497   11.1793 H   0  0  0  0  0  0  0  0  0  0  0  0
   -0.2178    0.5369    9.4611 C   0  0  0  0  0  0  0  0  0  0  0  0
   -1.5809    0.4856    9.3377 C   0  0  0  0  0  0  0  0  0  0  0  0
   -2.2453    0.2425    8.1291 C   0  0  0  0  0  0  0  0  0  0  0  0
   -3.7259    0.2496    8.0396 C   0  0  0  0  0  0  0  0  0  0  0  0
   -1.4974    0.0310    6.9716 C   0  0  0  0  0  0  0  0  0  0  0  0
   -0.1605    0.0833    7.1111 C   0  0  0  0  0  0  0  0  0  0  0  0
    0.5370    0.3183    8.2386 C   0  0  0  0  0  0  0  0  0  0  0  0
    1.8656    0.3939    8.3086 F   0  0  0  0  0  0  0  0  0  0  0  0
    4.3856    3.5457   16.7932 O   0  0  0  0  0  0  0  0  0  0  0  0
    4.1712    2.9952   21.6702 C   0  0  0  0  0  0  0  0  0  0  0  0
    3.9935    4.3038   21.3783 C   0  0  0  0  0  0  0  0  0  0  0  0
    4.0041    4.8177   20.1334 C   0  0  0  0  0  0  0  0  0  0  0  0
    3.7614    6.1082   19.8619 N   0  0  0  0  0  0  0  0  0  0  0  0
    3.7153    6.6063   18.6462 C   0  0  0  0  0  0  0  0  0  0  0  0
    3.9229    5.7983   17.5416 C   0  0  0  0  0  0  0  0  0  0  0  0
    4.1780    4.4716   17.7132 C   0  0  0  0  0  0  0  0  0  0  0  0
    4.2230    3.9518   19.0586 C   0  0  0  0  0  0  0  0  0  0  0  0
    4.4063    2.6285   19.3327 C   0  0  0  0  0  0  0  0  0  0  0  0
    4.3913    2.0804   20.5768 C   0  0  0  0  0  0  0  0  0  0  0  0
    5.1156    2.4844   23.8706 C   0  0  0  0  0  0  0  0  0  0  0  0
    4.1566    2.4173   22.8760 O   0  0  0  0  0  0  0  0  0  0  0  0
    4.5288    0.7592   20.9508 O   0  0  0  0  0  0  0  0  0  0  0  0
    3.5583   -0.2415   20.8840 C   0  0  0  0  0  0  0  0  0  0  0  0
 33 34  1  0  0  0
 34 23  1  0  0  0
 23 24  2  0  0  0
 24 25  1  0  0  0
 25 26  2  0  0  0
 26 27  1  0  0  0
 27 28  2  0  0  0
 28 29  1  0  0  0
 29 22  1  0  0  0
 22  1  1  0  0  0
  1  2  2  0  0  0
  2  3  1  0  0  0
  3  4  2  0  0  0
  4  8  1  0  0  0
  8  9  1  0  0  0
  9 10  2  0  0  0
  9 11  1  0  0  0
 11 14  1  0  0  0
 14 15  2  0  0  0
 15 16  1  0  0  0
 16 17  1  0  0  0
 16 18  2  0  0  0
 18 19  1  0  0  0
 19 20  2  0  0  0
 20 21  1  0  0  0
  4  5  1  0  0  0
  5  6  1  0  0  0
  5  7  2  0  0  0
 29 30  2  0  0  0
 30 31  1  0  0  0
 31 32  2  0  0  0
 32 35  1  0  0  0
 35 36  1  0  0  0
 32 23  1  0  0  0
 30 25  1  0  0  0
  7  1  1  0  0  0
 20 14  1  0  0  0
  8 12  1  0  0  0
 11 13  1  0  0  0
M  END
> <minimizedAffinity>
-7.68407

> <CNNscore>
0.1749922931

> <CNNaffinity>
6.2079262733

> <CNN_VS>
1.0863392353

> <CNNaffinity_variance>
0.2115500271

$$$$
[H]c1nc2c([H])c(OC([H])([H])[H])c(OC([H])([H])[H])c([H])c2c(Oc2c([H])c([H])c(N([H])C(=O)N([H])c3c([H])c(C([H])([H])[H])c([H])c([H])c3F)c(C([H])([H])[H])c2[H])c1[H]


 36 39  0  0  0  0  0  0  0  0999 V2000
    2.8876    2.9517   14.7833 C   0  0  0  0  0  0  0  0  0  0  0  0
    2.3415    2.1243   13.8535 C   0  0  0  0  0  0  0  0  0  0  0  0
    1.3729    2.5488   12.9484 C   0  0  0  0  0  0  0  0  0  0  0  0
    0.9290    3.8511   12.9728 C   0  0  0  0  0  0  0  0  0  0  0  0
    1.4685    4.7525   13.9104 C   0  0  0  0  0  0  0  0  0  0  0  0
    1.0704    6.1752   13.8684 C   0  0  0  0  0  0  0  0  0  0  0  0
    2.3921    4.2841   14.7505 C   0  0  0  0  0  0  0  0  0  0  0  0
   -0.1879    4.3136   12.2713 N   0  0  0  0  0  0  0  0  0  0  0  0
   -1.2331    4.7538   11.6053 C   0  0  0  0  0  0  0  0  0  0  0  0
   -1.1858    5.5475   10.5759 O   0  0  0  0  0  0  0  0  0  0  0  0
   -2.5881    4.3595   12.0018 N   0  0  0  0  0  0  0  0  0  0  0  0
    0.6134    5.2310   11.6677 H   0  0  0  0  0  0  0  0  0  0  0  0
   -2.6556    3.6963   12.7941 H   0  0  0  0  0  0  0  0  0  0  0  0
   -3.7558    4.7957   11.3788 C   0  0  0  0  0  0  0  0  0  0  0  0
   -4.4142    4.2454   10.3112 C   0  0  0  0  0  0  0  0  0  0  0  0
   -5.5840    4.7801    9.7573 C   0  0  0  0  0  0  0  0  0  0  0  0
   -6.2877    4.1152    8.6335 C   0  0  0  0  0  0  0  0  0  0  0  0
   -6.1256    5.9434   10.3027 C   0  0  0  0  0  0  0  0  0  0  0  0
   -5.4655    6.4713   11.3492 C   0  0  0  0  0  0  0  0  0  0  0  0
   -4.3446    6.0043   11.9308 C   0  0  0  0  0  0  0  0  0  0  0  0
   -3.7539    6.5525   12.9921 F   0  0  0  0  0  0  0  0  0  0  0  0
    3.8069    2.7491   15.7354 O   0  0  0  0  0  0  0  0  0  0  0  0
    5.5537    4.8145   19.8363 C   0  0  0  0  0  0  0  0  0  0  0  0
    5.0260    3.6104   20.1540 C   0  0  0  0  0  0  0  0  0  0  0  0
    4.4463    2.7731   19.2725 C   0  0  0  0  0  0  0  0  0  0  0  0
    3.9875    1.5558   19.5976 N   0  0  0  0  0  0  0  0  0  0  0  0
    3.4710    0.7111   18.7328 C   0  0  0  0  0  0  0  0  0  0  0  0
    3.3681    1.0438   17.3931 C   0  0  0  0  0  0  0  0  0  0  0  0
    3.8061    2.2594   16.9631 C   0  0  0  0  0  0  0  0  0  0  0  0
    4.3684    3.1669   17.9340 C   0  0  0  0  0  0  0  0  0  0  0  0
    4.8933    4.3788   17.5940 C   0  0  0  0  0  0  0  0  0  0  0  0
    5.4920    5.2398   18.4593 C   0  0  0  0  0  0  0  0  0  0  0  0
    5.9405    5.8799   22.0065 C   0  0  0  0  0  0  0  0  0  0  0  0
    6.1555    5.6847   20.6541 O   0  0  0  0  0  0  0  0  0  0  0  0
    6.0817    6.4618   18.2076 O   0  0  0  0  0  0  0  0  0  0  0  0
    5.4966    7.5698   17.5930 C   0  0  0  0  0  0  0  0  0  0  0  0
 33 34  1  0  0  0
 34 23  1  0  0  0
 23 24  2  0  0  0
 24 25  1  0  0  0
 25 26  2  0  0  0
 26 27  1  0  0  0
 27 28  2  0  0  0
 28 29  1  0  0  0
 29 22  1  0  0  0
 22  1  1  0  0  0
  1  2  2  0  0  0
  2  3  1  0  0  0
  3  4  2  0  0  0
  4  8  1  0  0  0
  8  9  1  0  0  0
  9 10  2  0  0  0
  9 11  1  0  0  0
 11 14  1  0  0  0
 14 15  2  0  0  0
 15 16  1  0  0  0
 16 17  1  0  0  0
 16 18  2  0  0  0
 18 19  1  0  0  0
 19 20  2  0  0  0
 20 21  1  0  0  0
  4  5  1  0  0  0
  5  6  1  0  0  0
  5  7  2  0  0  0
 29 30  2  0  0  0
 30 31  1  0  0  0
 31 32  2  0  0  0
 32 35  1  0  0  0
 35 36  1  0  0  0
 32 23  1  0  0  0
 30 25  1  0  0  0
  7  1  1  0  0  0
 20 14  1  0  0  0
  8 12  1  0  0  0
 11 13  1  0  0  0
M  END
> <minimizedAffinity>
-8.88553

> <CNNscore>
0.1638985425

> <CNNaffinity>
5.9522047043

> <CNN_VS>
0.9755576849

> <CNNaffinity_variance>
0.2665474415

$$$$
[H]c1nc(N([H])[H])c2c(-c3c([H])c([H])c(N([H])C(=O)[C@@]4([H])C([H])([H])[C@]4([H])C(F)(F)F)c([H])c3[H])c([H])sc2c1-c1nc([H])n(C([H])([H])[H])c1[H]


 35 39  0  0  0  0  0  0  0  0999 V2000
    3.8831    1.6754   18.8397 C   0  0  0  0  0  0  0  0  0  0  0  0
    3.1317    0.5507   18.4649 C   0  0  0  0  0  0  0  0  0  0  0  0
    2.6108    0.6038   17.2488 N   0  0  0  0  0  0  0  0  0  0  0  0
    2.7409    1.6103   16.3826 C   0  0  0  0  0  0  0  0  0  0  0  0
    2.1076    1.4083   15.1247 N   0  0  0  0  0  0  0  0  0  0  0  0
    3.4779    2.7633   16.6968 C   0  0  0  0  0  0  0  0  0  0  0  0
    3.7211    3.8468   15.9613 C   0  0  0  0  0  0  0  0  0  0  0  0
    4.5109    4.8368   16.5340 C   0  0  0  0  0  0  0  0  0  0  0  0
    4.8695    4.2075   18.0655 S   0  0  0  0  0  0  0  0  0  0  0  0
    4.0269    2.7209   17.9596 C   0  0  0  0  0  0  0  0  0  0  0  0
    1.0652    1.3693   15.1187 H   0  0  0  0  0  0  0  0  0  0  0  0
    2.6129    1.2989   14.2248 H   0  0  0  0  0  0  0  0  0  0  0  0
    4.8070    2.1442   23.7737 C   0  0  0  0  0  0  0  0  0  0  0  0
    4.9396    1.8614   22.3514 N   0  0  0  0  0  0  0  0  0  0  0  0
    6.0183    1.3613   21.7428 C   0  0  0  0  0  0  0  0  0  0  0  0
    5.7558    1.2442   20.4378 N   0  0  0  0  0  0  0  0  0  0  0  0
    4.4866    1.6725   20.1795 C   0  0  0  0  0  0  0  0  0  0  0  0
    4.0107    2.0493   21.3991 C   0  0  0  0  0  0  0  0  0  0  0  0
    3.2048    4.1584   14.6229 C   0  0  0  0  0  0  0  0  0  0  0  0
    3.9988    3.9442   13.5330 C   0  0  0  0  0  0  0  0  0  0  0  0
    3.6042    4.2103   12.2239 C   0  0  0  0  0  0  0  0  0  0  0  0
    2.3670    4.7112   11.9782 C   0  0  0  0  0  0  0  0  0  0  0  0
    1.5360    4.9379   13.0905 C   0  0  0  0  0  0  0  0  0  0  0  0
    1.9506    4.6661   14.3803 C   0  0  0  0  0  0  0  0  0  0  0  0
    1.8835    4.9930   10.6836 N   0  0  0  0  0  0  0  0  0  0  0  0
    1.8750    6.2028   10.0073 C   0  0  0  0  0  0  0  0  0  0  0  0
    2.3246    7.2535   10.4888 O   0  0  0  0  0  0  0  0  0  0  0  0
    1.4671    4.1567   10.1685 H   0  0  0  0  0  0  0  0  0  0  0  0
    1.2938    6.2630    8.6157 C   0  0  0  0  0  0  0  0  0  0  0  0
    1.6431    7.4266    7.7617 C   0  0  0  0  0  0  0  0  0  0  0  0
    2.2183    6.0810    7.4569 C   0  0  0  0  0  0  0  0  0  0  0  0
    1.6305    5.3280    6.2848 C   0  0  0  0  0  0  0  0  0  0  0  0
    2.1192    5.8502    5.0940 F   0  0  0  0  0  0  0  0  0  0  0  0
    1.8770    3.9859    6.3281 F   0  0  0  0  0  0  0  0  0  0  0  0
    0.2601    5.5271    6.2852 F   0  0  0  0  0  0  0  0  0  0  0  0
 13 14  1  0  0  0
 14 15  1  0  0  0
 15 16  2  0  0  0
 16 17  1  0  0  0
 17 18  2  0  0  0
 17  1  1  0  0  0
  1  2  2  0  0  0
  2  3  1  0  0  0
  3  4  2  0  0  0
  4  5  1  0  0  0
  4  6  1  0  0  0
  6  7  1  0  0  0
  7  8  2  0  0  0
  8  9  1  0  0  0
  9 10  1  0  0  0
  7 19  1  0  0  0
 19 20  2  0  0  0
 20 21  1  0  0  0
 21 22  2  0  0  0
 22 25  1  0  0  0
 25 26  1  0  0  0
 26 27  2  0  0  0
 26 29  1  0  0  0
 29 30  1  0  0  0
 30 31  1  0  0  0
 31 32  1  0  0  0
 32 33  1  0  0  0
 32 34  1  0  0  0
 32 35  1  0  0  0
 22 23  1  0  0  0
 23 24  2  0  0  0
 18 14  1  0  0  0
 10  1  1  0  0  0
 24 19  1  0  0  0
 10  6  2  0  0  0
 31 29  1  0  0  0
  5 11  1  0  0  0
  5 12  1  0  0  0
 25 28  1  0  0  0
M  END
> <minimizedAffinity>
-6.79729

> <CNNscore>
0.5880669951

> <CNNaffinity>
6.7497024536

> <CNN_VS>
3.9692771435

> <CNNaffinity_variance>
0.3942298591

$$$$
[H]c1nc(N([H])[H])c2c(-c3c([H])c([H])c(N([H])C(=O)[C@@]4([H])C([H])([H])[C@]4([H])C(F)(F)F)c([H])c3[H])c([H])sc2c1-c1nc([H])n(C([H])([H])[H])c1[H]


 35 39  0  0  0  0  0  0  0  0999 V2000
    4.1225    1.6697   19.1417 C   0  0  0  0  0  0  0  0  0  0  0  0
    3.3532    0.5403   18.8213 C   0  0  0  0  0  0  0  0  0  0  0  0
    2.7778    0.5731   17.6292 N   0  0  0  0  0  0  0  0  0  0  0  0
    2.8701    1.5639   16.7403 C   0  0  0  0  0  0  0  0  0  0  0  0
    2.1801    1.3413   15.5161 N   0  0  0  0  0  0  0  0  0  0  0  0
    3.6224    2.7205   17.0004 C   0  0  0  0  0  0  0  0  0  0  0  0
    3.8337    3.7904   16.2355 C   0  0  0  0  0  0  0  0  0  0  0  0
    4.6501    4.7884   16.7542 C   0  0  0  0  0  0  0  0  0  0  0  0
    5.0768    4.1854   18.2788 S   0  0  0  0  0  0  0  0  0  0  0  0
    4.2280    2.6992   18.2376 C   0  0  0  0  0  0  0  0  0  0  0  0
    1.1385    1.3046   15.5581 H   0  0  0  0  0  0  0  0  0  0  0  0
    2.6439    1.2149   14.5964 H   0  0  0  0  0  0  0  0  0  0  0  0
    5.2635    2.2055   24.0231 C   0  0  0  0  0  0  0  0  0  0  0  0
    5.3348    1.9079   22.5994 N   0  0  0  0  0  0  0  0  0  0  0  0
    6.3906    1.4131   21.9479 C   0  0  0  0  0  0  0  0  0  0  0  0
    6.0707    1.2781   20.6577 N   0  0  0  0  0  0  0  0  0  0  0  0
    4.7861    1.6889   20.4526 C   0  0  0  0  0  0  0  0  0  0  0  0
    4.3616    2.0744   21.6884 C   0  0  0  0  0  0  0  0  0  0  0  0
    3.2577    4.0795   14.9166 C   0  0  0  0  0  0  0  0  0  0  0  0
    2.0607    4.7316   14.8377 C   0  0  0  0  0  0  0  0  0  0  0  0
    1.4301    5.0487   13.6369 C   0  0  0  0  0  0  0  0  0  0  0  0
    2.0081    4.7068   12.4575 C   0  0  0  0  0  0  0  0  0  0  0  0
    3.2421    4.0341   12.5210 C   0  0  0  0  0  0  0  0  0  0  0  0
    3.8479    3.7302   13.7252 C   0  0  0  0  0  0  0  0  0  0  0  0
    1.4454    5.0042   11.1989 N   0  0  0  0  0  0  0  0  0  0  0  0
    1.1802    6.2449   10.6408 C   0  0  0  0  0  0  0  0  0  0  0  0
    1.4253    7.3154   11.2169 O   0  0  0  0  0  0  0  0  0  0  0  0
    1.1895    4.1526   10.6096 H   0  0  0  0  0  0  0  0  0  0  0  0
    0.5630    6.3155    9.2654 C   0  0  0  0  0  0  0  0  0  0  0  0
    0.4183    5.0523    8.4981 C   0  0  0  0  0  0  0  0  0  0  0  0
   -0.7919    5.7186    9.0689 C   0  0  0  0  0  0  0  0  0  0  0  0
   -1.6855    6.4688    8.1071 C   0  0  0  0  0  0  0  0  0  0  0  0
   -1.1511    7.7242    7.8462 F   0  0  0  0  0  0  0  0  0  0  0  0
   -1.8869    5.8065    6.9303 F   0  0  0  0  0  0  0  0  0  0  0  0
   -2.9115    6.6669    8.7195 F   0  0  0  0  0  0  0  0  0  0  0  0
 13 14  1  0  0  0
 14 15  1  0  0  0
 15 16  2  0  0  0
 16 17  1  0  0  0
 17 18  2  0  0  0
 17  1  1  0  0  0
  1  2  2  0  0  0
  2  3  1  0  0  0
  3  4  2  0  0  0
  4  5  1  0  0  0
  4  6  1  0  0  0
  6  7  1  0  0  0
  7  8  2  0  0  0
  8  9  1  0  0  0
  9 10  1  0  0  0
  7 19  1  0  0  0
 19 20  2  0  0  0
 20 21  1  0  0  0
 21 22  2  0  0  0
 22 25  1  0  0  0
 25 26  1  0  0  0
 26 27  2  0  0  0
 26 29  1  0  0  0
 29 30  1  0  0  0
 30 31  1  0  0  0
 31 32  1  0  0  0
 32 33  1  0  0  0
 32 34  1  0  0  0
 32 35  1  0  0  0
 22 23  1  0  0  0
 23 24  2  0  0  0
 18 14  1  0  0  0
 10  1  1  0  0  0
 24 19  1  0  0  0
 10  6  2  0  0  0
 31 29  1  0  0  0
  5 11  1  0  0  0
  5 12  1  0  0  0
 25 28  1  0  0  0
M  END
> <minimizedAffinity>
-7.43364

> <CNNscore>
0.5812534690

> <CNNaffinity>
6.7070403099

> <CNN_VS>
3.8984904289

> <CNNaffinity_variance>
0.3360756040

$$$$
[H]c1nc(N([H])[H])c2c(-c3c([H])c([H])c(N([H])C(=O)[C@@]4([H])C([H])([H])[C@]4([H])C(F)(F)F)c([H])c3[H])c([H])sc2c1-c1nc([H])n(C([H])([H])[H])c1[H]


 35 39  0  0  0  0  0  0  0  0999 V2000
    3.7026    1.5727   18.0316 C   0  0  0  0  0  0  0  0  0  0  0  0
    3.0873    0.4812   17.3990 C   0  0  0  0  0  0  0  0  0  0  0  0
    2.7330    0.6889   16.1403 N   0  0  0  0  0  0  0  0  0  0  0  0
    2.9098    1.8178   15.4513 C   0  0  0  0  0  0  0  0  0  0  0  0
    2.4674    1.7744   14.0998 N   0  0  0  0  0  0  0  0  0  0  0  0
    3.5171    2.9455   16.0265 C   0  0  0  0  0  0  0  0  0  0  0  0
    3.7828    4.1366   15.4926 C   0  0  0  0  0  0  0  0  0  0  0  0
    4.4184    5.0674   16.3057 C   0  0  0  0  0  0  0  0  0  0  0  0
    4.6091    4.2360   17.7694 S   0  0  0  0  0  0  0  0  0  0  0  0
    3.8922    2.7428   17.3365 C   0  0  0  0  0  0  0  0  0  0  0  0
    1.4406    1.6867   13.9389 H   0  0  0  0  0  0  0  0  0  0  0  0
    3.0959    1.8241   13.2754 H   0  0  0  0  0  0  0  0  0  0  0  0
    6.0773    1.7754   22.4742 C   0  0  0  0  0  0  0  0  0  0  0  0
    5.1334    1.4596   21.4113 N   0  0  0  0  0  0  0  0  0  0  0  0
    4.0645    0.6653   21.5146 C   0  0  0  0  0  0  0  0  0  0  0  0
    3.4484    0.6233   20.3296 N   0  0  0  0  0  0  0  0  0  0  0  0
    4.1184    1.4000   19.4304 C   0  0  0  0  0  0  0  0  0  0  0  0
    5.1635    1.9044   20.1440 C   0  0  0  0  0  0  0  0  0  0  0  0
    3.4318    4.6180   14.1510 C   0  0  0  0  0  0  0  0  0  0  0  0
    2.2758    5.3227   13.9743 C   0  0  0  0  0  0  0  0  0  0  0  0
    1.8525    5.8187   12.7435 C   0  0  0  0  0  0  0  0  0  0  0  0
    2.6058    5.6101   11.6340 C   0  0  0  0  0  0  0  0  0  0  0  0
    3.8003    4.8854   11.7986 C   0  0  0  0  0  0  0  0  0  0  0  0
    4.1988    4.4031   13.0307 C   0  0  0  0  0  0  0  0  0  0  0  0
    2.2583    6.0913   10.3545 N   0  0  0  0  0  0  0  0  0  0  0  0
    1.6638    5.4083    9.3051 C   0  0  0  0  0  0  0  0  0  0  0  0
    1.3402    4.2128    9.3691 O   0  0  0  0  0  0  0  0  0  0  0  0
    2.4939    7.1173   10.1821 H   0  0  0  0  0  0  0  0  0  0  0  0
    1.3894    6.1396    8.0137 C   0  0  0  0  0  0  0  0  0  0  0  0
    0.1989    7.0250    7.9508 C   0  0  0  0  0  0  0  0  0  0  0  0
    1.5686    7.6222    7.9911 C   0  0  0  0  0  0  0  0  0  0  0  0
    2.1180    8.1781    6.6967 C   0  0  0  0  0  0  0  0  0  0  0  0
    3.1680    7.3861    6.2497 F   0  0  0  0  0  0  0  0  0  0  0  0
    1.1771    8.2838    5.7131 F   0  0  0  0  0  0  0  0  0  0  0  0
    2.6363    9.4367    6.9511 F   0  0  0  0  0  0  0  0  0  0  0  0
 13 14  1  0  0  0
 14 15  1  0  0  0
 15 16  2  0  0  0
 16 17  1  0  0  0
 17 18  2  0  0  0
 17  1  1  0  0  0
  1  2  2  0  0  0
  2  3  1  0  0  0
  3  4  2  0  0  0
  4  5  1  0  0  0
  4  6  1  0  0  0
  6  7  1  0  0  0
  7  8  2  0  0  0
  8  9  1  0  0  0
  9 10  1  0  0  0
  7 19  1  0  0  0
 19 20  2  0  0  0
 20 21  1  0  0  0
 21 22  2  0  0  0
 22 25  1  0  0  0
 25 26  1  0  0  0
 26 27  2  0  0  0
 26 29  1  0  0  0
 29 30  1  0  0  0
 30 31  1  0  0  0
 31 32  1  0  0  0
 32 33  1  0  0  0
 32 34  1  0  0  0
 32 35  1  0  0  0
 22 23  1  0  0  0
 23 24  2  0  0  0
 18 14  1  0  0  0
 10  1  1  0  0  0
 24 19  1  0  0  0
 10  6  2  0  0  0
 31 29  1  0  0  0
  5 11  1  0  0  0
  5 12  1  0  0  0
 25 28  1  0  0  0
M  END
> <minimizedAffinity>
-7.08602

> <CNNscore>
0.3836917281

> <CNNaffinity>
6.4397687912

> <CNN_VS>
2.4708859921

> <CNNaffinity_variance>
0.3722574115

$$$$
[H]c1nc(N([H])[H])c2c(-c3c([H])c([H])c(N([H])C(=O)[C@@]4([H])C([H])([H])[C@]4([H])C(F)(F)F)c([H])c3[H])c([H])sc2c1-c1nc([H])n(C([H])([H])[H])c1[H]


 35 39  0  0  0  0  0  0  0  0999 V2000
    4.4442    3.5331   19.4734 C   0  0  0  0  0  0  0  0  0  0  0  0
    4.5888    2.1504   19.6663 C   0  0  0  0  0  0  0  0  0  0  0  0
    4.2589    1.4012   18.6255 N   0  0  0  0  0  0  0  0  0  0  0  0
    3.8145    1.8453   17.4483 C   0  0  0  0  0  0  0  0  0  0  0  0
    3.5587    0.8342   16.4806 N   0  0  0  0  0  0  0  0  0  0  0  0
    3.6467    3.2156   17.1925 C   0  0  0  0  0  0  0  0  0  0  0  0
    3.2311    3.8322   16.0874 C   0  0  0  0  0  0  0  0  0  0  0  0
    3.1822    5.2208   16.1174 C   0  0  0  0  0  0  0  0  0  0  0  0
    3.7143    5.5928   17.6822 S   0  0  0  0  0  0  0  0  0  0  0  0
    3.9877    4.0072   18.2672 C   0  0  0  0  0  0  0  0  0  0  0  0
    2.7706    0.1792   16.6752 H   0  0  0  0  0  0  0  0  0  0  0  0
    4.1013    0.7104   15.6047 H   0  0  0  0  0  0  0  0  0  0  0  0
    6.6803    6.8080   22.5866 C   0  0  0  0  0  0  0  0  0  0  0  0
    5.7469    5.8558   22.0014 N   0  0  0  0  0  0  0  0  0  0  0  0
    4.6072    5.4276   22.5508 C   0  0  0  0  0  0  0  0  0  0  0  0
    4.0291    4.5617   21.7132 N   0  0  0  0  0  0  0  0  0  0  0  0
    4.7964    4.4150   20.5949 C   0  0  0  0  0  0  0  0  0  0  0  0
    5.8592    5.2388   20.8133 C   0  0  0  0  0  0  0  0  0  0  0  0
    2.7556    3.2189   14.8414 C   0  0  0  0  0  0  0  0  0  0  0  0
    3.4753    3.3910   13.6939 C   0  0  0  0  0  0  0  0  0  0  0  0
    3.1077    2.8544   12.4622 C   0  0  0  0  0  0  0  0  0  0  0  0
    1.9764    2.1119   12.3575 C   0  0  0  0  0  0  0  0  0  0  0  0
    1.2230    1.9248   13.5308 C   0  0  0  0  0  0  0  0  0  0  0  0
    1.6085    2.4681   14.7415 C   0  0  0  0  0  0  0  0  0  0  0  0
    1.5417    1.5199   11.1535 N   0  0  0  0  0  0  0  0  0  0  0  0
    0.6150    1.9969   10.2397 C   0  0  0  0  0  0  0  0  0  0  0  0
    0.0188    3.0756   10.3769 O   0  0  0  0  0  0  0  0  0  0  0  0
    1.9892    0.5776   10.9299 H   0  0  0  0  0  0  0  0  0  0  0  0
    0.3041    1.1764    9.0117 C   0  0  0  0  0  0  0  0  0  0  0  0
   -0.2365   -0.1932    9.2043 C   0  0  0  0  0  0  0  0  0  0  0  0
   -1.1282    0.8937    8.6966 C   0  0  0  0  0  0  0  0  0  0  0  0
   -1.4655    0.8783    7.2227 C   0  0  0  0  0  0  0  0  0  0  0  0
   -0.3352    1.1845    6.4756 F   0  0  0  0  0  0  0  0  0  0  0  0
   -1.9812   -0.3130    6.8002 F   0  0  0  0  0  0  0  0  0  0  0  0
   -2.3962    1.8747    6.9808 F   0  0  0  0  0  0  0  0  0  0  0  0
 13 14  1  0  0  0
 14 15  1  0  0  0
 15 16  2  0  0  0
 16 17  1  0  0  0
 17 18  2  0  0  0
 17  1  1  0  0  0
  1  2  2  0  0  0
  2  3  1  0  0  0
  3  4  2  0  0  0
  4  5  1  0  0  0
  4  6  1  0  0  0
  6  7  1  0  0  0
  7  8  2  0  0  0
  8  9  1  0  0  0
  9 10  1  0  0  0
  7 19  1  0  0  0
 19 20  2  0  0  0
 20 21  1  0  0  0
 21 22  2  0  0  0
 22 25  1  0  0  0
 25 26  1  0  0  0
 26 27  2  0  0  0
 26 29  1  0  0  0
 29 30  1  0  0  0
 30 31  1  0  0  0
 31 32  1  0  0  0
 32 33  1  0  0  0
 32 34  1  0  0  0
 32 35  1  0  0  0
 22 23  1  0  0  0
 23 24  2  0  0  0
 18 14  1  0  0  0
 10  1  1  0  0  0
 24 19  1  0  0  0
 10  6  2  0  0  0
 31 29  1  0  0  0
  5 11  1  0  0  0
  5 12  1  0  0  0
 25 28  1  0  0  0
M  END
> <minimizedAffinity>
-6.90895

> <CNNscore>
0.2293743640

> <CNNaffinity>
6.3286719322

> <CNN_VS>
1.4516351223

> <CNNaffinity_variance>
0.6022211313

$$$$
[H]c1nc(N([H])[H])c2c(-c3c([H])c([H])c(N([H])C(=O)[C@@]4([H])C([H])([H])[C@]4([H])C(F)(F)F)c([H])c3[H])c([H])sc2c1-c1nc([H])n(C([H])([H])[H])c1[H]


 35 39  0  0  0  0  0  0  0  0999 V2000
    3.7687    2.5788   17.9405 C   0  0  0  0  0  0  0  0  0  0  0  0
    3.2640    1.3387   17.5193 C   0  0  0  0  0  0  0  0  0  0  0  0
    2.5672    1.3696   16.3938 N   0  0  0  0  0  0  0  0  0  0  0  0
    2.3167    2.4523   15.6554 C   0  0  0  0  0  0  0  0  0  0  0  0
    1.5676    2.2128   14.4698 N   0  0  0  0  0  0  0  0  0  0  0  0
    2.7916    3.7216   16.0225 C   0  0  0  0  0  0  0  0  0  0  0  0
    2.6506    4.8952   15.4086 C   0  0  0  0  0  0  0  0  0  0  0  0
    3.2547    5.9971   16.0025 C   0  0  0  0  0  0  0  0  0  0  0  0
    3.9834    5.3407   17.3839 S   0  0  0  0  0  0  0  0  0  0  0  0
    3.5198    3.7039   17.1918 C   0  0  0  0  0  0  0  0  0  0  0  0
    0.5772    1.9071   14.5875 H   0  0  0  0  0  0  0  0  0  0  0  0
    1.9415    2.3223   13.5079 H   0  0  0  0  0  0  0  0  0  0  0  0
    6.4584    1.3952   22.0371 C   0  0  0  0  0  0  0  0  0  0  0  0
    5.7423    2.1307   21.0043 N   0  0  0  0  0  0  0  0  0  0  0  0
    5.5883    3.4560   20.9414 C   0  0  0  0  0  0  0  0  0  0  0  0
    4.8742    3.7510   19.8513 N   0  0  0  0  0  0  0  0  0  0  0  0
    4.5513    2.6058   19.1840 C   0  0  0  0  0  0  0  0  0  0  0  0
    5.1112    1.6170   19.9353 C   0  0  0  0  0  0  0  0  0  0  0  0
    1.8771    5.1873   14.1957 C   0  0  0  0  0  0  0  0  0  0  0  0
    0.6727    5.8208   14.3067 C   0  0  0  0  0  0  0  0  0  0  0  0
   -0.1374    6.1389   13.2191 C   0  0  0  0  0  0  0  0  0  0  0  0
    0.2599    5.8173   11.9619 C   0  0  0  0  0  0  0  0  0  0  0  0
    1.4988    5.1639   11.8298 C   0  0  0  0  0  0  0  0  0  0  0  0
    2.2846    4.8586   12.9247 C   0  0  0  0  0  0  0  0  0  0  0  0
   -0.4916    6.1172   10.8067 N   0  0  0  0  0  0  0  0  0  0  0  0
   -1.7089    5.5899   10.4050 C   0  0  0  0  0  0  0  0  0  0  0  0
   -2.3282    4.7365   11.0578 O   0  0  0  0  0  0  0  0  0  0  0  0
   -0.0517    6.8444   10.1618 H   0  0  0  0  0  0  0  0  0  0  0  0
   -2.3257    6.0662    9.1125 C   0  0  0  0  0  0  0  0  0  0  0  0
   -2.8200    5.0442    8.1552 C   0  0  0  0  0  0  0  0  0  0  0  0
   -3.7951    5.8789    8.9212 C   0  0  0  0  0  0  0  0  0  0  0  0
   -4.4876    6.9947    8.1717 C   0  0  0  0  0  0  0  0  0  0  0  0
   -4.9306    6.5327    6.9389 F   0  0  0  0  0  0  0  0  0  0  0  0
   -5.5362    7.5357    8.8584 F   0  0  0  0  0  0  0  0  0  0  0  0
   -3.5589    7.9915    7.9237 F   0  0  0  0  0  0  0  0  0  0  0  0
 13 14  1  0  0  0
 14 15  1  0  0  0
 15 16  2  0  0  0
 16 17  1  0  0  0
 17 18  2  0  0  0
 17  1  1  0  0  0
  1  2  2  0  0  0
  2  3  1  0  0  0
  3  4  2  0  0  0
  4  5  1  0  0  0
  4  6  1  0  0  0
  6  7  1  0  0  0
  7  8  2  0  0  0
  8  9  1  0  0  0
  9 10  1  0  0  0
  7 19  1  0  0  0
 19 20  2  0  0  0
 20 21  1  0  0  0
 21 22  2  0  0  0
 22 25  1  0  0  0
 25 26  1  0  0  0
 26 27  2  0  0  0
 26 29  1  0  0  0
 29 30  1  0  0  0
 30 31  1  0  0  0
 31 32  1  0  0  0
 32 33  1  0  0  0
 32 34  1  0  0  0
 32 35  1  0  0  0
 22 23  1  0  0  0
 23 24  2  0  0  0
 18 14  1  0  0  0
 10  1  1  0  0  0
 24 19  1  0  0  0
 10  6  2  0  0  0
 31 29  1  0  0  0
  5 11  1  0  0  0
  5 12  1  0  0  0
 25 28  1  0  0  0
M  END
> <minimizedAffinity>
-7.23228

> <CNNscore>
0.2172194868

> <CNNaffinity>
6.1147127151

> <CNN_VS>
1.3282347918

> <CNNaffinity_variance>
0.4384887218

$$$$
[H]c1nc(N([H])[H])c2c(-c3c([H])c([H])c(N([H])C(=O)[C@@]4([H])C([H])([H])[C@]4([H])C(F)(F)F)c([H])c3[H])c([H])sc2c1-c1nc([H])n(C([H])([H])[H])c1[H]


 35 39  0  0  0  0  0  0  0  0999 V2000
    4.4467    8.1254   13.9121 C   0  0  0  0  0  0  0  0  0  0  0  0
    5.3254    9.2147   13.8068 C   0  0  0  0  0  0  0  0  0  0  0  0
    5.8912    9.5911   14.9433 N   0  0  0  0  0  0  0  0  0  0  0  0
    5.6959    9.0333   16.1395 C   0  0  0  0  0  0  0  0  0  0  0  0
    6.4495    9.6061   17.2017 N   0  0  0  0  0  0  0  0  0  0  0  0
    4.8290    7.9424   16.3121 C   0  0  0  0  0  0  0  0  0  0  0  0
    4.5256    7.2603   17.4153 C   0  0  0  0  0  0  0  0  0  0  0  0
    3.6375    6.1999   17.2799 C   0  0  0  0  0  0  0  0  0  0  0  0
    3.2708    6.2113   15.6260 S   0  0  0  0  0  0  0  0  0  0  0  0
    4.2341    7.5393   15.1367 C   0  0  0  0  0  0  0  0  0  0  0  0
    6.2139   10.5842   17.4774 H   0  0  0  0  0  0  0  0  0  0  0  0
    7.2092    9.1167   17.7119 H   0  0  0  0  0  0  0  0  0  0  0  0
    3.2853    5.8719    9.5544 C   0  0  0  0  0  0  0  0  0  0  0  0
    3.2331    6.6900   10.7579 N   0  0  0  0  0  0  0  0  0  0  0  0
    2.2188    7.4715   11.1382 C   0  0  0  0  0  0  0  0  0  0  0  0
    2.5437    8.0599   12.2930 N   0  0  0  0  0  0  0  0  0  0  0  0
    3.7894    7.6625   12.6820 C   0  0  0  0  0  0  0  0  0  0  0  0
    4.1857    6.8081   11.6977 C   0  0  0  0  0  0  0  0  0  0  0  0
    4.9727    7.5272   18.7878 C   0  0  0  0  0  0  0  0  0  0  0  0
    6.0153    6.8115   19.3027 C   0  0  0  0  0  0  0  0  0  0  0  0
    6.5114    6.9862   20.5925 C   0  0  0  0  0  0  0  0  0  0  0  0
    5.9528    7.9114   21.4134 C   0  0  0  0  0  0  0  0  0  0  0  0
    4.8771    8.6576   20.8982 C   0  0  0  0  0  0  0  0  0  0  0  0
    4.4025    8.4655   19.6147 C   0  0  0  0  0  0  0  0  0  0  0  0
    6.4042    8.1625   22.7258 N   0  0  0  0  0  0  0  0  0  0  0  0
    7.2118    9.1930   23.1809 C   0  0  0  0  0  0  0  0  0  0  0  0
    7.6623   10.0805   22.4411 O   0  0  0  0  0  0  0  0  0  0  0  0
    6.0782    7.4555   23.4551 H   0  0  0  0  0  0  0  0  0  0  0  0
    7.5706    9.2536   24.6456 C   0  0  0  0  0  0  0  0  0  0  0  0
    8.4331    8.1790   25.1994 C   0  0  0  0  0  0  0  0  0  0  0  0
    8.9866    9.5549   25.0129 C   0  0  0  0  0  0  0  0  0  0  0  0
    9.1566   10.4047   26.2519 C   0  0  0  0  0  0  0  0  0  0  0  0
    7.9175   10.8521   26.6924 F   0  0  0  0  0  0  0  0  0  0  0  0
    9.7930    9.7533   27.2691 F   0  0  0  0  0  0  0  0  0  0  0  0
    9.8968   11.5243   25.9112 F   0  0  0  0  0  0  0  0  0  0  0  0
 13 14  1  0  0  0
 14 15  1  0  0  0
 15 16  2  0  0  0
 16 17  1  0  0  0
 17 18  2  0  0  0
 17  1  1  0  0  0
  1  2  2  0  0  0
  2  3  1  0  0  0
  3  4  2  0  0  0
  4  5  1  0  0  0
  4  6  1  0  0  0
  6  7  1  0  0  0
  7  8  2  0  0  0
  8  9  1  0  0  0
  9 10  1  0  0  0
  7 19  1  0  0  0
 19 20  2  0  0  0
 20 21  1  0  0  0
 21 22  2  0  0  0
 22 25  1  0  0  0
 25 26  1  0  0  0
 26 27  2  0  0  0
 26 29  1  0  0  0
 29 30  1  0  0  0
 30 31  1  0  0  0
 31 32  1  0  0  0
 32 33  1  0  0  0
 32 34  1  0  0  0
 32 35  1  0  0  0
 22 23  1  0  0  0
 23 24  2  0  0  0
 18 14  1  0  0  0
 10  1  1  0  0  0
 24 19  1  0  0  0
 10  6  2  0  0  0
 31 29  1  0  0  0
  5 11  1  0  0  0
  5 12  1  0  0  0
 25 28  1  0  0  0
M  END
> <minimizedAffinity>
-6.71280

> <CNNscore>
0.1987512708

> <CNNaffinity>
5.6683726311

> <CNN_VS>
1.1265962124

> <CNNaffinity_variance>
0.3937470615

$$$$
[H]c1nc(N([H])[H])c2c(-c3c([H])c([H])c(N([H])C(=O)[C@@]4([H])C([H])([H])[C@]4([H])C(F)(F)F)c([H])c3[H])c([H])sc2c1-c1nc([H])n(C([H])([H])[H])c1[H]


 35 39  0  0  0  0  0  0  0  0999 V2000
    2.1789    5.2881   10.0996 C   0  0  0  0  0  0  0  0  0  0  0  0
    3.1104    6.3336   10.1961 C   0  0  0  0  0  0  0  0  0  0  0  0
    3.7173    6.4380   11.3682 N   0  0  0  0  0  0  0  0  0  0  0  0
    3.5175    5.6524   12.4281 C   0  0  0  0  0  0  0  0  0  0  0  0
    4.3207    5.9555   13.5627 N   0  0  0  0  0  0  0  0  0  0  0  0
    2.5992    4.5908   12.3967 C   0  0  0  0  0  0  0  0  0  0  0  0
    2.2831    3.7083   13.3431 C   0  0  0  0  0  0  0  0  0  0  0  0
    1.3391    2.7416   13.0176 C   0  0  0  0  0  0  0  0  0  0  0  0
    0.9405    3.1149   11.4139 S   0  0  0  0  0  0  0  0  0  0  0  0
    1.9610    4.4698   11.1819 C   0  0  0  0  0  0  0  0  0  0  0  0
    4.1413    6.8643   14.0423 H   0  0  0  0  0  0  0  0  0  0  0  0
    5.0641    5.3358   13.9370 H   0  0  0  0  0  0  0  0  0  0  0  0
    0.9174    4.3158    5.3163 C   0  0  0  0  0  0  0  0  0  0  0  0
    0.8713    4.7078    6.7179 N   0  0  0  0  0  0  0  0  0  0  0  0
   -0.1987    5.1613    7.3764 C   0  0  0  0  0  0  0  0  0  0  0  0
    0.1536    5.4135    8.6403 N   0  0  0  0  0  0  0  0  0  0  0  0
    1.4743    5.1230    8.8207 C   0  0  0  0  0  0  0  0  0  0  0  0
    1.8860    4.6857    7.5980 C   0  0  0  0  0  0  0  0  0  0  0  0
    2.7707    3.6619   14.7269 C   0  0  0  0  0  0  0  0  0  0  0  0
    2.1580    4.4260   15.6781 C   0  0  0  0  0  0  0  0  0  0  0  0
    2.5465    4.4554   17.0154 C   0  0  0  0  0  0  0  0  0  0  0  0
    3.5890    3.6942   17.4345 C   0  0  0  0  0  0  0  0  0  0  0  0
    4.2317    2.9007   16.4668 C   0  0  0  0  0  0  0  0  0  0  0  0
    3.8276    2.8890   15.1454 C   0  0  0  0  0  0  0  0  0  0  0  0
    4.0357    3.6532   18.7717 N   0  0  0  0  0  0  0  0  0  0  0  0
    4.1183    2.5628   19.6235 C   0  0  0  0  0  0  0  0  0  0  0  0
    3.7914    1.4140   19.2901 O   0  0  0  0  0  0  0  0  0  0  0  0
    4.3436    4.5934   19.1707 H   0  0  0  0  0  0  0  0  0  0  0  0
    4.6289    2.7653   21.0292 C   0  0  0  0  0  0  0  0  0  0  0  0
    5.7475    3.7199   21.2363 C   0  0  0  0  0  0  0  0  0  0  0  0
    4.3696    4.0787   21.6914 C   0  0  0  0  0  0  0  0  0  0  0  0
    4.0901    4.0001   23.1753 C   0  0  0  0  0  0  0  0  0  0  0  0
    2.7191    4.0029   23.3992 F   0  0  0  0  0  0  0  0  0  0  0  0
    4.6462    2.9049   23.7713 F   0  0  0  0  0  0  0  0  0  0  0  0
    4.6031    5.1386   23.7738 F   0  0  0  0  0  0  0  0  0  0  0  0
 13 14  1  0  0  0
 14 15  1  0  0  0
 15 16  2  0  0  0
 16 17  1  0  0  0
 17 18  2  0  0  0
 17  1  1  0  0  0
  1  2  2  0  0  0
  2  3  1  0  0  0
  3  4  2  0  0  0
  4  5  1  0  0  0
  4  6  1  0  0  0
  6  7  1  0  0  0
  7  8  2  0  0  0
  8  9  1  0  0  0
  9 10  1  0  0  0
  7 19  1  0  0  0
 19 20  2  0  0  0
 20 21  1  0  0  0
 21 22  2  0  0  0
 22 25  1  0  0  0
 25 26  1  0  0  0
 26 27  2  0  0  0
 26 29  1  0  0  0
 29 30  1  0  0  0
 30 31  1  0  0  0
 31 32  1  0  0  0
 32 33  1  0  0  0
 32 34  1  0  0  0
 32 35  1  0  0  0
 22 23  1  0  0  0
 23 24  2  0  0  0
 18 14  1  0  0  0
 10  1  1  0  0  0
 24 19  1  0  0  0
 10  6  2  0  0  0
 31 29  1  0  0  0
  5 11  1  0  0  0
  5 12  1  0  0  0
 25 28  1  0  0  0
M  END
> <minimizedAffinity>
-7.04491

> <CNNscore>
0.1934719831

> <CNNaffinity>
6.2511796951

> <CNN_VS>
1.2094281912

> <CNNaffinity_variance>
0.7595462799

$$$$
[H]c1nc(N([H])[H])c2c(-c3c([H])c([H])c(N([H])C(=O)[C@@]4([H])C([H])([H])[C@]4([H])C(F)(F)F)c([H])c3[H])c([H])sc2c1-c1nc([H])n(C([H])([H])[H])c1[H]


 35 39  0  0  0  0  0  0  0  0999 V2000
    4.6317    4.8180   19.2516 C   0  0  0  0  0  0  0  0  0  0  0  0
    4.5297    3.5148   19.7628 C   0  0  0  0  0  0  0  0  0  0  0  0
    4.0540    2.6153   18.9155 N   0  0  0  0  0  0  0  0  0  0  0  0
    3.6768    2.8456   17.6565 C   0  0  0  0  0  0  0  0  0  0  0  0
    3.2283    1.6994   16.9427 N   0  0  0  0  0  0  0  0  0  0  0  0
    3.7527    4.1263   17.0863 C   0  0  0  0  0  0  0  0  0  0  0  0
    3.4359    4.5332   15.8581 C   0  0  0  0  0  0  0  0  0  0  0  0
    3.6367    5.8768   15.5646 C   0  0  0  0  0  0  0  0  0  0  0  0
    4.2525    6.5013   17.0140 S   0  0  0  0  0  0  0  0  0  0  0  0
    4.2475    5.0723   17.9569 C   0  0  0  0  0  0  0  0  0  0  0  0
    2.3391    1.2584   17.2633 H   0  0  0  0  0  0  0  0  0  0  0  0
    3.7255    1.2812   16.1335 H   0  0  0  0  0  0  0  0  0  0  0  0
    5.4736    9.0838   21.8033 C   0  0  0  0  0  0  0  0  0  0  0  0
    5.5635    7.7213   21.2973 N   0  0  0  0  0  0  0  0  0  0  0  0
    6.4538    6.7977   21.6694 C   0  0  0  0  0  0  0  0  0  0  0  0
    6.2161    5.6757   20.9839 N   0  0  0  0  0  0  0  0  0  0  0  0
    5.1544    5.8591   20.1472 C   0  0  0  0  0  0  0  0  0  0  0  0
    4.7754    7.1481   20.3724 C   0  0  0  0  0  0  0  0  0  0  0  0
    2.8379    3.7418   14.7760 C   0  0  0  0  0  0  0  0  0  0  0  0
    1.6225    4.1076   14.2727 C   0  0  0  0  0  0  0  0  0  0  0  0
    0.9703    3.4221   13.2505 C   0  0  0  0  0  0  0  0  0  0  0  0
    1.5447    2.3236   12.6980 C   0  0  0  0  0  0  0  0  0  0  0  0
    2.7974    1.9329   13.2052 C   0  0  0  0  0  0  0  0  0  0  0  0
    3.4244    2.6296   14.2206 C   0  0  0  0  0  0  0  0  0  0  0  0
    0.9602    1.5826   11.6498 N   0  0  0  0  0  0  0  0  0  0  0  0
    1.4249    1.3975   10.3571 C   0  0  0  0  0  0  0  0  0  0  0  0
    2.4830    1.8903    9.9384 O   0  0  0  0  0  0  0  0  0  0  0  0
    0.0355    1.1108   11.8955 H   0  0  0  0  0  0  0  0  0  0  0  0
    0.6162    0.5578    9.3986 C   0  0  0  0  0  0  0  0  0  0  0  0
    1.2561    0.1368    8.1264 C   0  0  0  0  0  0  0  0  0  0  0  0
    1.0118   -0.8693    9.2045 C   0  0  0  0  0  0  0  0  0  0  0  0
   -0.1400   -1.8286    9.0059 C   0  0  0  0  0  0  0  0  0  0  0  0
   -1.3458   -1.1443    9.0917 F   0  0  0  0  0  0  0  0  0  0  0  0
   -0.0823   -2.5017    7.8194 F   0  0  0  0  0  0  0  0  0  0  0  0
   -0.1197   -2.7500   10.0394 F   0  0  0  0  0  0  0  0  0  0  0  0
 13 14  1  0  0  0
 14 15  1  0  0  0
 15 16  2  0  0  0
 16 17  1  0  0  0
 17 18  2  0  0  0
 17  1  1  0  0  0
  1  2  2  0  0  0
  2  3  1  0  0  0
  3  4  2  0  0  0
  4  5  1  0  0  0
  4  6  1  0  0  0
  6  7  1  0  0  0
  7  8  2  0  0  0
  8  9  1  0  0  0
  9 10  1  0  0  0
  7 19  1  0  0  0
 19 20  2  0  0  0
 20 21  1  0  0  0
 21 22  2  0  0  0
 22 25  1  0  0  0
 25 26  1  0  0  0
 26 27  2  0  0  0
 26 29  1  0  0  0
 29 30  1  0  0  0
 30 31  1  0  0  0
 31 32  1  0  0  0
 32 33  1  0  0  0
 32 34  1  0  0  0
 32 35  1  0  0  0
 22 23  1  0  0  0
 23 24  2  0  0  0
 18 14  1  0  0  0
 10  1  1  0  0  0
 24 19  1  0  0  0
 10  6  2  0  0  0
 31 29  1  0  0  0
  5 11  1  0  0  0
  5 12  1  0  0  0
 25 28  1  0  0  0
M  END
> <minimizedAffinity>
-7.07033

> <CNNscore>
0.1794506907

> <CNNaffinity>
6.1416420937

> <CNN_VS>
1.1021219492

> <CNNaffinity_variance>
0.7630374432

$$$$
[H]c1nc(N([H])[H])c2c(-c3c([H])c([H])c(N([H])C(=O)[C@@]4([H])C([H])([H])[C@]4([H])C(F)(F)F)c([H])c3[H])c([H])sc2c1-c1nc([H])n(C([H])([H])[H])c1[H]


 35 39  0  0  0  0  0  0  0  0999 V2000
    3.6164    2.6904   16.4191 C   0  0  0  0  0  0  0  0  0  0  0  0
    3.3072    1.7059   15.4677 C   0  0  0  0  0  0  0  0  0  0  0  0
    3.0517    2.1619   14.2511 N   0  0  0  0  0  0  0  0  0  0  0  0
    3.0650    3.4417   13.8739 C   0  0  0  0  0  0  0  0  0  0  0  0
    2.7849    3.6670   12.4973 N   0  0  0  0  0  0  0  0  0  0  0  0
    3.3650    4.4738   14.7772 C   0  0  0  0  0  0  0  0  0  0  0  0
    3.4358    5.7888   14.5767 C   0  0  0  0  0  0  0  0  0  0  0  0
    3.7788    6.5781   15.6681 C   0  0  0  0  0  0  0  0  0  0  0  0
    3.9812    5.4483   16.9140 S   0  0  0  0  0  0  0  0  0  0  0  0
    3.6343    4.0132   16.0473 C   0  0  0  0  0  0  0  0  0  0  0  0
    1.8203    3.4469   12.1668 H   0  0  0  0  0  0  0  0  0  0  0  0
    3.4726    4.0320   11.8113 H   0  0  0  0  0  0  0  0  0  0  0  0
    5.2545    2.2762   21.1690 C   0  0  0  0  0  0  0  0  0  0  0  0
    4.6108    2.0167   19.8889 N   0  0  0  0  0  0  0  0  0  0  0  0
    3.8953    0.9349   19.5696 C   0  0  0  0  0  0  0  0  0  0  0  0
    3.4701    1.0617   18.3092 N   0  0  0  0  0  0  0  0  0  0  0  0
    3.9099    2.2429   17.7876 C   0  0  0  0  0  0  0  0  0  0  0  0
    4.6179    2.8095   18.8043 C   0  0  0  0  0  0  0  0  0  0  0  0
    3.1362    6.5268   13.3437 C   0  0  0  0  0  0  0  0  0  0  0  0
    4.1445    6.7953   12.4631 C   0  0  0  0  0  0  0  0  0  0  0  0
    3.9647    7.4906   11.2696 C   0  0  0  0  0  0  0  0  0  0  0  0
    2.7312    7.9422   10.9282 C   0  0  0  0  0  0  0  0  0  0  0  0
    1.6808    7.6739   11.8248 C   0  0  0  0  0  0  0  0  0  0  0  0
    1.8846    6.9821   13.0035 C   0  0  0  0  0  0  0  0  0  0  0  0
    2.4602    8.6393    9.7324 N   0  0  0  0  0  0  0  0  0  0  0  0
    2.4755    8.1633    8.4307 C   0  0  0  0  0  0  0  0  0  0  0  0
    2.7434    6.9879    8.1402 O   0  0  0  0  0  0  0  0  0  0  0  0
    2.2172    9.6702    9.8596 H   0  0  0  0  0  0  0  0  0  0  0  0
    2.1527    9.1080    7.2988 C   0  0  0  0  0  0  0  0  0  0  0  0
    2.1418    8.5654    5.9165 C   0  0  0  0  0  0  0  0  0  0  0  0
    0.8544    8.9320    6.5818 C   0  0  0  0  0  0  0  0  0  0  0  0
    0.1906   10.2170    6.1408 C   0  0  0  0  0  0  0  0  0  0  0  0
    1.0738   11.2794    6.2848 F   0  0  0  0  0  0  0  0  0  0  0  0
   -0.2643   10.1747    4.8542 F   0  0  0  0  0  0  0  0  0  0  0  0
   -0.8818   10.4615    6.9820 F   0  0  0  0  0  0  0  0  0  0  0  0
 13 14  1  0  0  0
 14 15  1  0  0  0
 15 16  2  0  0  0
 16 17  1  0  0  0
 17 18  2  0  0  0
 17  1  1  0  0  0
  1  2  2  0  0  0
  2  3  1  0  0  0
  3  4  2  0  0  0
  4  5  1  0  0  0
  4  6  1  0  0  0
  6  7  1  0  0  0
  7  8  2  0  0  0
  8  9  1  0  0  0
  9 10  1  0  0  0
  7 19  1  0  0  0
 19 20  2  0  0  0
 20 21  1  0  0  0
 21 22  2  0  0  0
 22 25  1  0  0  0
 25 26  1  0  0  0
 26 27  2  0  0  0
 26 29  1  0  0  0
 29 30  1  0  0  0
 30 31  1  0  0  0
 31 32  1  0  0  0
 32 33  1  0  0  0
 32 34  1  0  0  0
 32 35  1  0  0  0
 22 23  1  0  0  0
 23 24  2  0  0  0
 18 14  1  0  0  0
 10  1  1  0  0  0
 24 19  1  0  0  0
 10  6  2  0  0  0
 31 29  1  0  0  0
  5 11  1  0  0  0
  5 12  1  0  0  0
 25 28  1  0  0  0
M  END
> <minimizedAffinity>
-7.51591

> <CNNscore>
0.1574029326

> <CNNaffinity>
5.7860269547

> <CNN_VS>
0.9107376337

> <CNNaffinity_variance>
0.2566349506

$$$$
[H]c1c([H])c([H])c2c(c1[H])c1c3c(c4c5c([H])c([H])c([H])c([H])c5n5c4c1n2C1([H])O[C@@]5(C([H])([H])[H])[C@]([H])(OC([H])([H])[H])[C@]([H])(N([H])C([H])([H])[H])C1([H])[H])C([H])([H])N([H])C3=O


 37 44  0  0  0  0  0  0  0  0999 V2000
    0.1144    3.3976    9.0406 C   0  0  0  0  0  0  0  0  0  0  0  0
    0.6908    4.7374    8.8601 C   0  0  0  0  0  0  0  0  0  0  0  0
    1.7049    5.1039    9.9031 C   0  0  0  0  0  0  0  0  0  0  0  0
    2.1456    4.1803   10.7102 O   0  0  0  0  0  0  0  0  0  0  0  0
    2.2117    2.8359   10.3752 C   0  0  0  0  0  0  0  0  0  0  0  0
    2.3989    2.2025   11.7719 C   0  0  0  0  0  0  0  0  0  0  0  0
    0.9341    2.4049    9.8250 C   0  0  0  0  0  0  0  0  0  0  0  0
    3.4131    2.6169    9.5718 N   0  0  0  0  0  0  0  0  0  0  0  0
    4.1068    1.4828    9.4226 C   0  0  0  0  0  0  0  0  0  0  0  0
    3.9258    0.2221    9.8893 C   0  0  0  0  0  0  0  0  0  0  0  0
    4.8007   -0.7978    9.5895 C   0  0  0  0  0  0  0  0  0  0  0  0
    5.9214   -0.5872    8.7885 C   0  0  0  0  0  0  0  0  0  0  0  0
    6.1079    0.6905    8.3134 C   0  0  0  0  0  0  0  0  0  0  0  0
    5.2260    1.6946    8.6221 C   0  0  0  0  0  0  0  0  0  0  0  0
    5.2017    3.0116    8.2757 C   0  0  0  0  0  0  0  0  0  0  0  0
    6.0543    3.8154    7.5094 C   0  0  0  0  0  0  0  0  0  0  0  0
    7.2984    3.4512    6.7888 C   0  0  0  0  0  0  0  0  0  0  0  0
    7.7863    4.6312    6.1640 N   0  0  0  0  0  0  0  0  0  0  0  0
    6.8829    5.6973    6.4782 C   0  0  0  0  0  0  0  0  0  0  0  0
    7.0833    6.8419    6.0498 O   0  0  0  0  0  0  0  0  0  0  0  0
    5.8181    5.1688    7.3121 C   0  0  0  0  0  0  0  0  0  0  0  0
    4.6963    5.7057    7.9038 C   0  0  0  0  0  0  0  0  0  0  0  0
    4.1293    6.9496    7.9344 C   0  0  0  0  0  0  0  0  0  0  0  0
    4.4974    8.1477    7.3801 C   0  0  0  0  0  0  0  0  0  0  0  0
    3.6974    9.2666    7.5939 C   0  0  0  0  0  0  0  0  0  0  0  0
    2.5532    9.1641    8.3530 C   0  0  0  0  0  0  0  0  0  0  0  0
    2.1771    7.9485    8.9171 C   0  0  0  0  0  0  0  0  0  0  0  0
    2.9730    6.8621    8.6973 C   0  0  0  0  0  0  0  0  0  0  0  0
    2.8322    5.6238    9.1184 N   0  0  0  0  0  0  0  0  0  0  0  0
    3.8471    4.8913    8.6694 C   0  0  0  0  0  0  0  0  0  0  0  0
    4.1032    3.5396    8.8573 C   0  0  0  0  0  0  0  0  0  0  0  0
    8.6595    4.6946    5.5764 H   0  0  0  0  0  0  0  0  0  0  0  0
    0.3364    3.6972    6.6584 C   0  0  0  0  0  0  0  0  0  0  0  0
   -0.2153    2.8713    7.6984 N   0  0  0  0  0  0  0  0  0  0  0  0
    0.1882    1.9117    7.6008 H   0  0  0  0  0  0  0  0  0  0  0  0
    0.9077    1.2470    9.0603 O   0  0  0  0  0  0  0  0  0  0  0  0
    0.2661    0.1823    9.6864 C   0  0  0  0  0  0  0  0  0  0  0  0
 33 34  1  0  0  0
 34  1  1  0  0  0
  1  2  1  0  0  0
  2  3  1  0  0  0
  3  4  1  0  0  0
  4  5  1  0  0  0
  5  6  1  0  0  0
  5  7  1  0  0  0
  7 36  1  0  0  0
 36 37  1  0  0  0
  5  8  1  0  0  0
  8  9  1  0  0  0
  9 10  2  0  0  0
 10 11  1  0  0  0
 11 12  2  0  0  0
 12 13  1  0  0  0
 13 14  2  0  0  0
 14 15  1  0  0  0
 15 16  2  0  0  0
 16 17  1  0  0  0
 17 18  1  0  0  0
 18 19  1  0  0  0
 19 20  2  0  0  0
 19 21  1  0  0  0
 21 22  2  0  0  0
 22 23  1  0  0  0
 23 24  2  0  0  0
 24 25  1  0  0  0
 25 26  2  0  0  0
 26 27  1  0  0  0
 27 28  2  0  0  0
 28 29  1  0  0  0
 29 30  1  0  0  0
 30 31  2  0  0  0
  7  1  1  0  0  0
 31  8  1  0  0  0
 29  3  1  0  0  0
 14  9  1  0  0  0
 31 15  1  0  0  0
 21 16  1  0  0  0
 30 22  1  0  0  0
 28 23  1  0  0  0
 34 35  1  0  0  0
 18 32  1  0  0  0
M  END
> <minimizedAffinity>
-5.46681

> <CNNscore>
0.5016056299

> <CNNaffinity>
5.5000810623

> <CNN_VS>
2.7588715553

> <CNNaffinity_variance>
0.2102957666

$$$$
[H]c1c([H])c([H])c2c(c1[H])c1c3c(c4c5c([H])c([H])c([H])c([H])c5n5c4c1n2C1([H])O[C@@]5(C([H])([H])[H])[C@]([H])(OC([H])([H])[H])[C@]([H])(N([H])C([H])([H])[H])C1([H])[H])C([H])([H])N([H])C3=O


 37 44  0  0  0  0  0  0  0  0999 V2000
    4.5181    7.6466   18.1950 C   0  0  0  0  0  0  0  0  0  0  0  0
    4.2318    6.7764   17.0459 C   0  0  0  0  0  0  0  0  0  0  0  0
    5.3557    5.8452   16.6989 C   0  0  0  0  0  0  0  0  0  0  0  0
    6.3526    5.7187   17.5289 O   0  0  0  0  0  0  0  0  0  0  0  0
    6.2389    5.9035   18.8989 C   0  0  0  0  0  0  0  0  0  0  0  0
    7.7269    6.0332   19.2939 C   0  0  0  0  0  0  0  0  0  0  0  0
    5.5636    7.1652   19.1685 C   0  0  0  0  0  0  0  0  0  0  0  0
    5.6794    4.6872   19.4859 N   0  0  0  0  0  0  0  0  0  0  0  0
    5.8154    4.2420   20.7401 C   0  0  0  0  0  0  0  0  0  0  0  0
    6.4319    4.7479   21.8372 C   0  0  0  0  0  0  0  0  0  0  0  0
    6.4325    4.0838   23.0432 C   0  0  0  0  0  0  0  0  0  0  0  0
    5.7977    2.8531   23.1998 C   0  0  0  0  0  0  0  0  0  0  0  0
    5.1713    2.3372   22.0888 C   0  0  0  0  0  0  0  0  0  0  0  0
    5.1807    3.0125   20.8951 C   0  0  0  0  0  0  0  0  0  0  0  0
    4.6403    2.7083   19.6825 C   0  0  0  0  0  0  0  0  0  0  0  0
    3.9073    1.6134   19.2091 C   0  0  0  0  0  0  0  0  0  0  0  0
    3.4573    0.3974   19.9294 C   0  0  0  0  0  0  0  0  0  0  0  0
    2.7475   -0.4080   18.9975 N   0  0  0  0  0  0  0  0  0  0  0  0
    2.7495    0.2756   17.7389 C   0  0  0  0  0  0  0  0  0  0  0  0
    2.1910   -0.2192   16.7505 O   0  0  0  0  0  0  0  0  0  0  0  0
    3.4732    1.5250   17.8938 C   0  0  0  0  0  0  0  0  0  0  0  0
    3.7908    2.5690   17.0537 C   0  0  0  0  0  0  0  0  0  0  0  0
    3.5430    2.8530   15.7393 C   0  0  0  0  0  0  0  0  0  0  0  0
    2.8802    2.1685   14.7542 C   0  0  0  0  0  0  0  0  0  0  0  0
    2.7927    2.7280   13.4826 C   0  0  0  0  0  0  0  0  0  0  0  0
    3.3665    3.9529   13.2248 C   0  0  0  0  0  0  0  0  0  0  0  0
    4.0402    4.6501   14.2234 C   0  0  0  0  0  0  0  0  0  0  0  0
    4.1162    4.0868   15.4640 C   0  0  0  0  0  0  0  0  0  0  0  0
    4.6914    4.5433   16.5555 N   0  0  0  0  0  0  0  0  0  0  0  0
    4.5253    3.6628   17.5380 C   0  0  0  0  0  0  0  0  0  0  0  0
    4.9532    3.7305   18.8573 C   0  0  0  0  0  0  0  0  0  0  0  0
    2.3038   -1.3406   19.2101 H   0  0  0  0  0  0  0  0  0  0  0  0
    2.9778    9.3229   18.9896 C   0  0  0  0  0  0  0  0  0  0  0  0
    3.2354    7.9122   18.8815 N   0  0  0  0  0  0  0  0  0  0  0  0
    2.4588    7.4807   18.3304 H   0  0  0  0  0  0  0  0  0  0  0  0
    4.9878    7.3457   20.4184 O   0  0  0  0  0  0  0  0  0  0  0  0
    5.6842    8.2392   21.2270 C   0  0  0  0  0  0  0  0  0  0  0  0
 33 34  1  0  0  0
 34  1  1  0  0  0
  1  2  1  0  0  0
  2  3  1  0  0  0
  3  4  1  0  0  0
  4  5  1  0  0  0
  5  6  1  0  0  0
  5  7  1  0  0  0
  7 36  1  0  0  0
 36 37  1  0  0  0
  5  8  1  0  0  0
  8  9  1  0  0  0
  9 10  2  0  0  0
 10 11  1  0  0  0
 11 12  2  0  0  0
 12 13  1  0  0  0
 13 14  2  0  0  0
 14 15  1  0  0  0
 15 16  2  0  0  0
 16 17  1  0  0  0
 17 18  1  0  0  0
 18 19  1  0  0  0
 19 20  2  0  0  0
 19 21  1  0  0  0
 21 22  2  0  0  0
 22 23  1  0  0  0
 23 24  2  0  0  0
 24 25  1  0  0  0
 25 26  2  0  0  0
 26 27  1  0  0  0
 27 28  2  0  0  0
 28 29  1  0  0  0
 29 30  1  0  0  0
 30 31  2  0  0  0
  7  1  1  0  0  0
 31  8  1  0  0  0
 29  3  1  0  0  0
 14  9  1  0  0  0
 31 15  1  0  0  0
 21 16  1  0  0  0
 30 22  1  0  0  0
 28 23  1  0  0  0
 34 35  1  0  0  0
 18 32  1  0  0  0
M  END
> <minimizedAffinity>
-10.52083

> <CNNscore>
0.4922029674

> <CNNaffinity>
6.8155417442

> <CNN_VS>
3.3546297550

> <CNNaffinity_variance>
0.0801087320

$$$$
[H]c1c([H])c([H])c2c(c1[H])c1c3c(c4c5c([H])c([H])c([H])c([H])c5n5c4c1n2C1([H])O[C@@]5(C([H])([H])[H])[C@]([H])(OC([H])([H])[H])[C@]([H])(N([H])C([H])([H])[H])C1([H])[H])C([H])([H])N([H])C3=O


 37 44  0  0  0  0  0  0  0  0999 V2000
    7.6420    3.3010    4.0369 C   0  0  0  0  0  0  0  0  0  0  0  0
    7.1157    2.5246    5.1683 C   0  0  0  0  0  0  0  0  0  0  0  0
    7.6891    2.9265    6.4951 C   0  0  0  0  0  0  0  0  0  0  0  0
    8.3946    4.0194    6.5752 O   0  0  0  0  0  0  0  0  0  0  0  0
    8.2182    5.1102    5.7369 C   0  0  0  0  0  0  0  0  0  0  0  0
    9.5262    5.8886    6.0019 C   0  0  0  0  0  0  0  0  0  0  0  0
    8.2025    4.6648    4.3504 C   0  0  0  0  0  0  0  0  0  0  0  0
    7.0781    5.8870    6.2204 N   0  0  0  0  0  0  0  0  0  0  0  0
    6.8310    7.1883    6.0327 C   0  0  0  0  0  0  0  0  0  0  0  0
    7.4763    8.1595    5.3398 C   0  0  0  0  0  0  0  0  0  0  0  0
    7.0126    9.4552    5.2990 C   0  0  0  0  0  0  0  0  0  0  0  0
    5.8524    9.8374    5.9697 C   0  0  0  0  0  0  0  0  0  0  0  0
    5.1953    8.8545    6.6734 C   0  0  0  0  0  0  0  0  0  0  0  0
    5.6717    7.5687    6.7032 C   0  0  0  0  0  0  0  0  0  0  0  0
    5.2031    6.4474    7.3182 C   0  0  0  0  0  0  0  0  0  0  0  0
    4.0989    6.1984    8.1422 C   0  0  0  0  0  0  0  0  0  0  0  0
    3.0381    7.1267    8.6033 C   0  0  0  0  0  0  0  0  0  0  0  0
    2.1483    6.3791    9.4220 N   0  0  0  0  0  0  0  0  0  0  0  0
    2.6299    5.0313    9.4732 C   0  0  0  0  0  0  0  0  0  0  0  0
    2.0272    4.1696   10.1273 O   0  0  0  0  0  0  0  0  0  0  0  0
    3.8387    4.9428    8.6733 C   0  0  0  0  0  0  0  0  0  0  0  0
    4.7167    3.9301    8.3566 C   0  0  0  0  0  0  0  0  0  0  0  0
    4.7965    2.5991    8.6597 C   0  0  0  0  0  0  0  0  0  0  0  0
    4.0119    1.7761    9.4247 C   0  0  0  0  0  0  0  0  0  0  0  0
    4.3579    0.4334    9.5477 C   0  0  0  0  0  0  0  0  0  0  0  0
    5.4747   -0.0547    8.9067 C   0  0  0  0  0  0  0  0  0  0  0  0
    6.2732    0.7790    8.1293 C   0  0  0  0  0  0  0  0  0  0  0  0
    5.9191    2.0924    8.0198 C   0  0  0  0  0  0  0  0  0  0  0  0
    6.5055    3.0634    7.3536 N   0  0  0  0  0  0  0  0  0  0  0  0
    5.8203    4.1895    7.5289 C   0  0  0  0  0  0  0  0  0  0  0  0
    6.0648    5.4541    7.0102 C   0  0  0  0  0  0  0  0  0  0  0  0
    1.2901    6.7628    9.8997 H   0  0  0  0  0  0  0  0  0  0  0  0
    5.3101    2.9352    3.5447 C   0  0  0  0  0  0  0  0  0  0  0  0
    6.5706    3.3878    3.0211 N   0  0  0  0  0  0  0  0  0  0  0  0
    6.4616    4.3849    2.7260 H   0  0  0  0  0  0  0  0  0  0  0  0
    7.6367    5.5030    3.3998 O   0  0  0  0  0  0  0  0  0  0  0  0
    8.5669    6.0637    2.5295 C   0  0  0  0  0  0  0  0  0  0  0  0
 33 34  1  0  0  0
 34  1  1  0  0  0
  1  2  1  0  0  0
  2  3  1  0  0  0
  3  4  1  0  0  0
  4  5  1  0  0  0
  5  6  1  0  0  0
  5  7  1  0  0  0
  7 36  1  0  0  0
 36 37  1  0  0  0
  5  8  1  0  0  0
  8  9  1  0  0  0
  9 10  2  0  0  0
 10 11  1  0  0  0
 11 12  2  0  0  0
 12 13  1  0  0  0
 13 14  2  0  0  0
 14 15  1  0  0  0
 15 16  2  0  0  0
 16 17  1  0  0  0
 17 18  1  0  0  0
 18 19  1  0  0  0
 19 20  2  0  0  0
 19 21  1  0  0  0
 21 22  2  0  0  0
 22 23  1  0  0  0
 23 24  2  0  0  0
 24 25  1  0  0  0
 25 26  2  0  0  0
 26 27  1  0  0  0
 27 28  2  0  0  0
 28 29  1  0  0  0
 29 30  1  0  0  0
 30 31  2  0  0  0
  7  1  1  0  0  0
 31  8  1  0  0  0
 29  3  1  0  0  0
 14  9  1  0  0  0
 31 15  1  0  0  0
 21 16  1  0  0  0
 30 22  1  0  0  0
 28 23  1  0  0  0
 34 35  1  0  0  0
 18 32  1  0  0  0
M  END
> <minimizedAffinity>
-5.26262

> <CNNscore>
0.3964042664

> <CNNaffinity>
5.1873331070

> <CNN_VS>
2.0562810898

> <CNNaffinity_variance>
0.2630613744

$$$$
[H]c1c([H])c([H])c2c(c1[H])c1c3c(c4c5c([H])c([H])c([H])c([H])c5n5c4c1n2C1([H])O[C@@]5(C([H])([H])[H])[C@]([H])(OC([H])([H])[H])[C@]([H])(N([H])C([H])([H])[H])C1([H])[H])C([H])([H])N([H])C3=O


 37 44  0  0  0  0  0  0  0  0999 V2000
    0.3800    2.4766    8.1087 C   0  0  0  0  0  0  0  0  0  0  0  0
    0.0617    3.3048    9.2803 C   0  0  0  0  0  0  0  0  0  0  0  0
    0.6096    2.7647   10.5683 C   0  0  0  0  0  0  0  0  0  0  0  0
    1.4697    1.7863   10.5299 O   0  0  0  0  0  0  0  0  0  0  0  0
    2.3339    1.5652    9.4677 C   0  0  0  0  0  0  0  0  0  0  0  0
    2.7890    0.1192    9.7660 C   0  0  0  0  0  0  0  0  0  0  0  0
    1.5872    1.5804    8.2175 C   0  0  0  0  0  0  0  0  0  0  0  0
    3.4710    2.4745    9.5982 N   0  0  0  0  0  0  0  0  0  0  0  0
    4.7071    2.3204    9.1104 C   0  0  0  0  0  0  0  0  0  0  0  0
    5.2827    1.3632    8.3408 C   0  0  0  0  0  0  0  0  0  0  0  0
    6.6048    1.4308    7.9626 C   0  0  0  0  0  0  0  0  0  0  0  0
    7.4230    2.4894    8.3521 C   0  0  0  0  0  0  0  0  0  0  0  0
    6.8421    3.4622    9.1328 C   0  0  0  0  0  0  0  0  0  0  0  0
    5.5233    3.3788    9.5003 C   0  0  0  0  0  0  0  0  0  0  0  0
    4.7430    4.2032   10.2530 C   0  0  0  0  0  0  0  0  0  0  0  0
    4.9930    5.4032   10.9294 C   0  0  0  0  0  0  0  0  0  0  0  0
    6.2462    6.1915   11.0192 C   0  0  0  0  0  0  0  0  0  0  0  0
    5.9731    7.3294   11.8265 N   0  0  0  0  0  0  0  0  0  0  0  0
    4.6002    7.2607   12.2282 C   0  0  0  0  0  0  0  0  0  0  0  0
    4.1067    8.1423   12.9444 O   0  0  0  0  0  0  0  0  0  0  0  0
    4.0132    6.0597   11.6609 C   0  0  0  0  0  0  0  0  0  0  0  0
    2.7630    5.4832   11.6996 C   0  0  0  0  0  0  0  0  0  0  0  0
    1.5701    5.8160   12.2791 C   0  0  0  0  0  0  0  0  0  0  0  0
    1.1864    6.8702   13.0662 C   0  0  0  0  0  0  0  0  0  0  0  0
   -0.1296    6.9360   13.5153 C   0  0  0  0  0  0  0  0  0  0  0  0
   -1.0284    5.9518   13.1696 C   0  0  0  0  0  0  0  0  0  0  0  0
   -0.6414    4.8801   12.3704 C   0  0  0  0  0  0  0  0  0  0  0  0
    0.6524    4.8317   11.9391 C   0  0  0  0  0  0  0  0  0  0  0  0
    1.2495    3.9332   11.1862 N   0  0  0  0  0  0  0  0  0  0  0  0
    2.5220    4.2804   11.0174 C   0  0  0  0  0  0  0  0  0  0  0  0
    3.5174    3.6375   10.2935 C   0  0  0  0  0  0  0  0  0  0  0  0
    6.6683    8.0819   12.0760 H   0  0  0  0  0  0  0  0  0  0  0  0
    0.5076    4.7605    7.3464 C   0  0  0  0  0  0  0  0  0  0  0  0
    0.4926    3.3802    6.9434 N   0  0  0  0  0  0  0  0  0  0  0  0
    1.3870    3.1778    6.4412 H   0  0  0  0  0  0  0  0  0  0  0  0
    2.2883    1.7927    7.0386 O   0  0  0  0  0  0  0  0  0  0  0  0
    2.3583    0.6667    6.2235 C   0  0  0  0  0  0  0  0  0  0  0  0
 33 34  1  0  0  0
 34  1  1  0  0  0
  1  2  1  0  0  0
  2  3  1  0  0  0
  3  4  1  0  0  0
  4  5  1  0  0  0
  5  6  1  0  0  0
  5  7  1  0  0  0
  7 36  1  0  0  0
 36 37  1  0  0  0
  5  8  1  0  0  0
  8  9  1  0  0  0
  9 10  2  0  0  0
 10 11  1  0  0  0
 11 12  2  0  0  0
 12 13  1  0  0  0
 13 14  2  0  0  0
 14 15  1  0  0  0
 15 16  2  0  0  0
 16 17  1  0  0  0
 17 18  1  0  0  0
 18 19  1  0  0  0
 19 20  2  0  0  0
 19 21  1  0  0  0
 21 22  2  0  0  0
 22 23  1  0  0  0
 23 24  2  0  0  0
 24 25  1  0  0  0
 25 26  2  0  0  0
 26 27  1  0  0  0
 27 28  2  0  0  0
 28 29  1  0  0  0
 29 30  1  0  0  0
 30 31  2  0  0  0
  7  1  1  0  0  0
 31  8  1  0  0  0
 29  3  1  0  0  0
 14  9  1  0  0  0
 31 15  1  0  0  0
 21 16  1  0  0  0
 30 22  1  0  0  0
 28 23  1  0  0  0
 34 35  1  0  0  0
 18 32  1  0  0  0
M  END
> <minimizedAffinity>
-6.21755

> <CNNscore>
0.3633327186

> <CNNaffinity>
5.5453338623

> <CNN_VS>
2.0148012638

> <CNNaffinity_variance>
0.1310340464

$$$$
[H]c1c([H])c([H])c2c(c1[H])c1c3c(c4c5c([H])c([H])c([H])c([H])c5n5c4c1n2C1([H])O[C@@]5(C([H])([H])[H])[C@]([H])(OC([H])([H])[H])[C@]([H])(N([H])C([H])([H])[H])C1([H])[H])C([H])([H])N([H])C3=O


 37 44  0  0  0  0  0  0  0  0999 V2000
    1.7410    4.1865   12.0214 C   0  0  0  0  0  0  0  0  0  0  0  0
    2.4941    3.0523   11.4679 C   0  0  0  0  0  0  0  0  0  0  0  0
    2.2030    2.7826   10.0211 C   0  0  0  0  0  0  0  0  0  0  0  0
    1.5214    3.6588    9.3382 O   0  0  0  0  0  0  0  0  0  0  0  0
    1.5142    5.0164    9.6224 C   0  0  0  0  0  0  0  0  0  0  0  0
    0.2832    5.4722    8.8075 C   0  0  0  0  0  0  0  0  0  0  0  0
    1.2475    5.2186   11.0397 C   0  0  0  0  0  0  0  0  0  0  0  0
    2.7238    5.6143    9.0602 N   0  0  0  0  0  0  0  0  0  0  0  0
    2.9180    6.8859    8.6928 C   0  0  0  0  0  0  0  0  0  0  0  0
    2.1373    7.9934    8.7533 C   0  0  0  0  0  0  0  0  0  0  0  0
    2.5737    9.2175    8.2986 C   0  0  0  0  0  0  0  0  0  0  0  0
    3.8443    9.3827    7.7507 C   0  0  0  0  0  0  0  0  0  0  0  0
    4.6389    8.2612    7.6880 C   0  0  0  0  0  0  0  0  0  0  0  0
    4.1878    7.0495    8.1457 C   0  0  0  0  0  0  0  0  0  0  0  0
    4.7805    5.8239    8.1880 C   0  0  0  0  0  0  0  0  0  0  0  0
    6.0323    5.3516    7.7753 C   0  0  0  0  0  0  0  0  0  0  0  0
    7.1588    6.0874    7.1512 C   0  0  0  0  0  0  0  0  0  0  0  0
    8.2031    5.1497    6.9253 N   0  0  0  0  0  0  0  0  0  0  0  0
    7.7516    3.8726    7.3908 C   0  0  0  0  0  0  0  0  0  0  0  0
    8.4819    2.8759    7.3080 O   0  0  0  0  0  0  0  0  0  0  0  0
    6.4049    4.0218    7.9130 C   0  0  0  0  0  0  0  0  0  0  0  0
    5.4876    3.1658    8.4809 C   0  0  0  0  0  0  0  0  0  0  0  0
    5.4811    1.8339    8.7906 C   0  0  0  0  0  0  0  0  0  0  0  0
    6.4119    0.8416    8.6263 C   0  0  0  0  0  0  0  0  0  0  0  0
    6.1079   -0.4487    9.0510 C   0  0  0  0  0  0  0  0  0  0  0  0
    4.8866   -0.7174    9.6276 C   0  0  0  0  0  0  0  0  0  0  0  0
    3.9395    0.2885    9.7956 C   0  0  0  0  0  0  0  0  0  0  0  0
    4.2544    1.5475    9.3735 C   0  0  0  0  0  0  0  0  0  0  0  0
    3.5369    2.6490    9.4214 N   0  0  0  0  0  0  0  0  0  0  0  0
    4.2356    3.6491    8.8924 C   0  0  0  0  0  0  0  0  0  0  0  0
    3.8809    4.9832    8.7426 C   0  0  0  0  0  0  0  0  0  0  0  0
    9.1385    5.3703    6.4915 H   0  0  0  0  0  0  0  0  0  0  0  0
    3.8945    4.2260   13.1052 C   0  0  0  0  0  0  0  0  0  0  0  0
    2.5800    4.8080   13.0688 N   0  0  0  0  0  0  0  0  0  0  0  0
    2.6811    5.8280   12.8628 H   0  0  0  0  0  0  0  0  0  0  0  0
    1.5999    6.4362   11.6051 O   0  0  0  0  0  0  0  0  0  0  0  0
    0.5068    7.2092   11.9854 C   0  0  0  0  0  0  0  0  0  0  0  0
 33 34  1  0  0  0
 34  1  1  0  0  0
  1  2  1  0  0  0
  2  3  1  0  0  0
  3  4  1  0  0  0
  4  5  1  0  0  0
  5  6  1  0  0  0
  5  7  1  0  0  0
  7 36  1  0  0  0
 36 37  1  0  0  0
  5  8  1  0  0  0
  8  9  1  0  0  0
  9 10  2  0  0  0
 10 11  1  0  0  0
 11 12  2  0  0  0
 12 13  1  0  0  0
 13 14  2  0  0  0
 14 15  1  0  0  0
 15 16  2  0  0  0
 16 17  1  0  0  0
 17 18  1  0  0  0
 18 19  1  0  0  0
 19 20  2  0  0  0
 19 21  1  0  0  0
 21 22  2  0  0  0
 22 23  1  0  0  0
 23 24  2  0  0  0
 24 25  1  0  0  0
 25 26  2  0  0  0
 26 27  1  0  0  0
 27 28  2  0  0  0
 28 29  1  0  0  0
 29 30  1  0  0  0
 30 31  2  0  0  0
  7  1  1  0  0  0
 31  8  1  0  0  0
 29  3  1  0  0  0
 14  9  1  0  0  0
 31 15  1  0  0  0
 21 16  1  0  0  0
 30 22  1  0  0  0
 28 23  1  0  0  0
 34 35  1  0  0  0
 18 32  1  0  0  0
M  END
> <minimizedAffinity>
-6.29925

> <CNNscore>
0.3209647536

> <CNNaffinity>
5.4561190605

> <CNN_VS>
1.7512218952

> <CNNaffinity_variance>
0.1090453640

$$$$
[H]c1c([H])c([H])c2c(c1[H])c1c3c(c4c5c([H])c([H])c([H])c([H])c5n5c4c1n2C1([H])O[C@@]5(C([H])([H])[H])[C@]([H])(OC([H])([H])[H])[C@]([H])(N([H])C([H])([H])[H])C1([H])[H])C([H])([H])N([H])C3=O


 37 44  0  0  0  0  0  0  0  0999 V2000
    7.1004    7.2456   20.0438 C   0  0  0  0  0  0  0  0  0  0  0  0
    6.5950    5.9665   20.5618 C   0  0  0  0  0  0  0  0  0  0  0  0
    5.1035    5.9257   20.7187 C   0  0  0  0  0  0  0  0  0  0  0  0
    4.3857    6.8822   20.2006 O   0  0  0  0  0  0  0  0  0  0  0  0
    4.7680    7.6097   19.0832 C   0  0  0  0  0  0  0  0  0  0  0  0
    3.7965    8.8074   19.1762 C   0  0  0  0  0  0  0  0  0  0  0  0
    6.1322    8.0895   19.2544 C   0  0  0  0  0  0  0  0  0  0  0  0
    4.4629    6.8217   17.8903 N   0  0  0  0  0  0  0  0  0  0  0  0
    4.2316    7.2648   16.6494 C   0  0  0  0  0  0  0  0  0  0  0  0
    4.2457    8.5020   16.0937 C   0  0  0  0  0  0  0  0  0  0  0  0
    3.9654    8.7047   14.7610 C   0  0  0  0  0  0  0  0  0  0  0  0
    3.6515    7.6459   13.9112 C   0  0  0  0  0  0  0  0  0  0  0  0
    3.6363    6.3895   14.4718 C   0  0  0  0  0  0  0  0  0  0  0  0
    3.9181    6.2059   15.8015 C   0  0  0  0  0  0  0  0  0  0  0  0
    3.9647    5.0799   16.5664 C   0  0  0  0  0  0  0  0  0  0  0  0
    3.7315    3.7268   16.2927 C   0  0  0  0  0  0  0  0  0  0  0  0
    3.3623    3.0736   15.0133 C   0  0  0  0  0  0  0  0  0  0  0  0
    3.2426    1.6803   15.2688 N   0  0  0  0  0  0  0  0  0  0  0  0
    3.5270    1.4646   16.6558 C   0  0  0  0  0  0  0  0  0  0  0  0
    3.4910    0.3244   17.1380 O   0  0  0  0  0  0  0  0  0  0  0  0
    3.8271    2.7458   17.2698 C   0  0  0  0  0  0  0  0  0  0  0  0
    4.1667    3.1531   18.5408 C   0  0  0  0  0  0  0  0  0  0  0  0
    4.3679    2.5131   19.7322 C   0  0  0  0  0  0  0  0  0  0  0  0
    4.2856    1.1954   20.0997 C   0  0  0  0  0  0  0  0  0  0  0  0
    4.5535    0.8426   21.4194 C   0  0  0  0  0  0  0  0  0  0  0  0
    4.8960    1.8096   22.3380 C   0  0  0  0  0  0  0  0  0  0  0  0
    4.9803    3.1485   21.9674 C   0  0  0  0  0  0  0  0  0  0  0  0
    4.7144    3.4763   20.6697 C   0  0  0  0  0  0  0  0  0  0  0  0
    4.7263    4.6552   20.0860 N   0  0  0  0  0  0  0  0  0  0  0  0
    4.3994    4.5119   18.8050 C   0  0  0  0  0  0  0  0  0  0  0  0
    4.2953    5.4786   17.8136 C   0  0  0  0  0  0  0  0  0  0  0  0
    2.9891    0.9480   14.5537 H   0  0  0  0  0  0  0  0  0  0  0  0
    9.4773    6.8441   20.0982 C   0  0  0  0  0  0  0  0  0  0  0  0
    8.3175    6.9557   19.2553 N   0  0  0  0  0  0  0  0  0  0  0  0
    8.1901    6.0467   18.7547 H   0  0  0  0  0  0  0  0  0  0  0  0
    6.8401    8.4680   18.1221 O   0  0  0  0  0  0  0  0  0  0  0  0
    7.0771    9.8375   18.0472 C   0  0  0  0  0  0  0  0  0  0  0  0
 33 34  1  0  0  0
 34  1  1  0  0  0
  1  2  1  0  0  0
  2  3  1  0  0  0
  3  4  1  0  0  0
  4  5  1  0  0  0
  5  6  1  0  0  0
  5  7  1  0  0  0
  7 36  1  0  0  0
 36 37  1  0  0  0
  5  8  1  0  0  0
  8  9  1  0  0  0
  9 10  2  0  0  0
 10 11  1  0  0  0
 11 12  2  0  0  0
 12 13  1  0  0  0
 13 14  2  0  0  0
 14 15  1  0  0  0
 15 16  2  0  0  0
 16 17  1  0  0  0
 17 18  1  0  0  0
 18 19  1  0  0  0
 19 20  2  0  0  0
 19 21  1  0  0  0
 21 22  2  0  0  0
 22 23  1  0  0  0
 23 24  2  0  0  0
 24 25  1  0  0  0
 25 26  2  0  0  0
 26 27  1  0  0  0
 27 28  2  0  0  0
 28 29  1  0  0  0
 29 30  1  0  0  0
 30 31  2  0  0  0
  7  1  1  0  0  0
 31  8  1  0  0  0
 29  3  1  0  0  0
 14  9  1  0  0  0
 31 15  1  0  0  0
 21 16  1  0  0  0
 30 22  1  0  0  0
 28 23  1  0  0  0
 34 35  1  0  0  0
 18 32  1  0  0  0
M  END
> <minimizedAffinity>
-10.64984

> <CNNscore>
0.3040569127

> <CNNaffinity>
6.1900215149

> <CNN_VS>
1.8821188211

> <CNNaffinity_variance>
0.3624435961

$$$$
[H]c1c([H])c([H])c2c(c1[H])c1c3c(c4c5c([H])c([H])c([H])c([H])c5n5c4c1n2C1([H])O[C@@]5(C([H])([H])[H])[C@]([H])(OC([H])([H])[H])[C@]([H])(N([H])C([H])([H])[H])C1([H])[H])C([H])([H])N([H])C3=O


 37 44  0  0  0  0  0  0  0  0999 V2000
    4.3427    8.1341   17.9908 C   0  0  0  0  0  0  0  0  0  0  0  0
    3.9739    6.8710   17.3361 C   0  0  0  0  0  0  0  0  0  0  0  0
    5.1513    6.0290   16.9419 C   0  0  0  0  0  0  0  0  0  0  0  0
    6.3346    6.3474   17.3858 O   0  0  0  0  0  0  0  0  0  0  0  0
    6.5519    7.0107   18.5845 C   0  0  0  0  0  0  0  0  0  0  0  0
    8.0163    7.4663   18.3973 C   0  0  0  0  0  0  0  0  0  0  0  0
    5.6941    8.1853   18.6567 C   0  0  0  0  0  0  0  0  0  0  0  0
    6.4757    6.0381   19.6730 N   0  0  0  0  0  0  0  0  0  0  0  0
    7.0445    6.1107   20.8816 C   0  0  0  0  0  0  0  0  0  0  0  0
    7.7942    7.0614   21.4932 C   0  0  0  0  0  0  0  0  0  0  0  0
    8.2758    6.8975   22.7725 C   0  0  0  0  0  0  0  0  0  0  0  0
    8.0173    5.7424   23.5080 C   0  0  0  0  0  0  0  0  0  0  0  0
    7.2570    4.7761   22.8907 C   0  0  0  0  0  0  0  0  0  0  0  0
    6.7854    4.9561   21.6154 C   0  0  0  0  0  0  0  0  0  0  0  0
    6.0280    4.1579   20.8128 C   0  0  0  0  0  0  0  0  0  0  0  0
    5.4766    2.8816   20.9786 C   0  0  0  0  0  0  0  0  0  0  0  0
    5.5383    1.9726   22.1490 C   0  0  0  0  0  0  0  0  0  0  0  0
    4.8170    0.7958   21.8090 N   0  0  0  0  0  0  0  0  0  0  0  0
    4.3191    0.9584   20.4760 C   0  0  0  0  0  0  0  0  0  0  0  0
    3.6501    0.0656   19.9384 O   0  0  0  0  0  0  0  0  0  0  0  0
    4.7397    2.2575   19.9819 C   0  0  0  0  0  0  0  0  0  0  0  0
    4.5632    2.9470   18.8029 C   0  0  0  0  0  0  0  0  0  0  0  0
    3.9119    2.6895   17.6285 C   0  0  0  0  0  0  0  0  0  0  0  0
    3.1915    1.6102   17.1878 C   0  0  0  0  0  0  0  0  0  0  0  0
    2.6360    1.6424   15.9118 C   0  0  0  0  0  0  0  0  0  0  0  0
    2.8119    2.7469   15.1085 C   0  0  0  0  0  0  0  0  0  0  0  0
    3.5431    3.8443   15.5536 C   0  0  0  0  0  0  0  0  0  0  0  0
    4.0804    3.7956   16.8070 C   0  0  0  0  0  0  0  0  0  0  0  0
    4.8016    4.6935   17.4427 N   0  0  0  0  0  0  0  0  0  0  0  0
    5.1191    4.2265   18.6467 C   0  0  0  0  0  0  0  0  0  0  0  0
    5.8562    4.8323   19.6555 C   0  0  0  0  0  0  0  0  0  0  0  0
    4.6811   -0.0400   22.4374 H   0  0  0  0  0  0  0  0  0  0  0  0
    2.8452    9.8375   18.8093 C   0  0  0  0  0  0  0  0  0  0  0  0
    3.2660    8.4694   18.9477 N   0  0  0  0  0  0  0  0  0  0  0  0
    2.4413    7.8545   18.7609 H   0  0  0  0  0  0  0  0  0  0  0  0
    5.4487    8.7413   19.9046 O   0  0  0  0  0  0  0  0  0  0  0  0
    6.2564    9.8375   20.1928 C   0  0  0  0  0  0  0  0  0  0  0  0
 33 34  1  0  0  0
 34  1  1  0  0  0
  1  2  1  0  0  0
  2  3  1  0  0  0
  3  4  1  0  0  0
  4  5  1  0  0  0
  5  6  1  0  0  0
  5  7  1  0  0  0
  7 36  1  0  0  0
 36 37  1  0  0  0
  5  8  1  0  0  0
  8  9  1  0  0  0
  9 10  2  0  0  0
 10 11  1  0  0  0
 11 12  2  0  0  0
 12 13  1  0  0  0
 13 14  2  0  0  0
 14 15  1  0  0  0
 15 16  2  0  0  0
 16 17  1  0  0  0
 17 18  1  0  0  0
 18 19  1  0  0  0
 19 20  2  0  0  0
 19 21  1  0  0  0
 21 22  2  0  0  0
 22 23  1  0  0  0
 23 24  2  0  0  0
 24 25  1  0  0  0
 25 26  2  0  0  0
 26 27  1  0  0  0
 27 28  2  0  0  0
 28 29  1  0  0  0
 29 30  1  0  0  0
 30 31  2  0  0  0
  7  1  1  0  0  0
 31  8  1  0  0  0
 29  3  1  0  0  0
 14  9  1  0  0  0
 31 15  1  0  0  0
 21 16  1  0  0  0
 30 22  1  0  0  0
 28 23  1  0  0  0
 34 35  1  0  0  0
 18 32  1  0  0  0
M  END
> <minimizedAffinity>
-9.09730

> <CNNscore>
0.2910952568

> <CNNaffinity>
6.4803709984

> <CNN_VS>
1.8864052296

> <CNNaffinity_variance>
0.1398583353

$$$$
[H]c1c([H])c([H])c2c(c1[H])c1c3c(c4c5c([H])c([H])c([H])c([H])c5n5c4c1n2C1([H])O[C@@]5(C([H])([H])[H])[C@]([H])(OC([H])([H])[H])[C@]([H])(N([H])C([H])([H])[H])C1([H])[H])C([H])([H])N([H])C3=O


 37 44  0  0  0  0  0  0  0  0999 V2000
    5.8132    5.9285   10.9429 C   0  0  0  0  0  0  0  0  0  0  0  0
    6.0059    6.4408    9.5790 C   0  0  0  0  0  0  0  0  0  0  0  0
    5.5526    5.4927    8.5083 C   0  0  0  0  0  0  0  0  0  0  0  0
    4.8522    4.4461    8.8441 O   0  0  0  0  0  0  0  0  0  0  0  0
    4.0275    4.3997    9.9584 C   0  0  0  0  0  0  0  0  0  0  0  0
    3.8003    2.8765   10.0822 C   0  0  0  0  0  0  0  0  0  0  0  0
    4.7578    4.8681   11.1280 C   0  0  0  0  0  0  0  0  0  0  0  0
    2.7652    5.0591    9.6288 N   0  0  0  0  0  0  0  0  0  0  0  0
    1.5652    4.8633   10.1868 C   0  0  0  0  0  0  0  0  0  0  0  0
    1.1396    4.0799   11.2091 C   0  0  0  0  0  0  0  0  0  0  0  0
   -0.1788    4.0519   11.6047 C   0  0  0  0  0  0  0  0  0  0  0  0
   -1.1477    4.8294   10.9732 C   0  0  0  0  0  0  0  0  0  0  0  0
   -0.7193    5.6253    9.9359 C   0  0  0  0  0  0  0  0  0  0  0  0
    0.5983    5.6407    9.5551 C   0  0  0  0  0  0  0  0  0  0  0  0
    1.2464    6.3329    8.5774 C   0  0  0  0  0  0  0  0  0  0  0  0
    0.8185    7.2502    7.6101 C   0  0  0  0  0  0  0  0  0  0  0  0
   -0.5401    7.7886    7.3569 C   0  0  0  0  0  0  0  0  0  0  0  0
   -0.4411    8.6884    6.2608 N   0  0  0  0  0  0  0  0  0  0  0  0
    0.9279    8.7164    5.8410 C   0  0  0  0  0  0  0  0  0  0  0  0
    1.2836    9.4305    4.8937 O   0  0  0  0  0  0  0  0  0  0  0  0
    1.6894    7.8183    6.6908 C   0  0  0  0  0  0  0  0  0  0  0  0
    3.0132    7.4454    6.7629 C   0  0  0  0  0  0  0  0  0  0  0  0
    4.1436    7.7793    6.0698 C   0  0  0  0  0  0  0  0  0  0  0  0
    4.3647    8.6216    5.0116 C   0  0  0  0  0  0  0  0  0  0  0  0
    5.6570    8.7558    4.5118 C   0  0  0  0  0  0  0  0  0  0  0  0
    6.6944    8.0490    5.0778 C   0  0  0  0  0  0  0  0  0  0  0  0
    6.4726    7.1930    6.1525 C   0  0  0  0  0  0  0  0  0  0  0  0
    5.1996    7.0736    6.6296 C   0  0  0  0  0  0  0  0  0  0  0  0
    4.7440    6.3383    7.6207 N   0  0  0  0  0  0  0  0  0  0  0  0
    3.4326    6.5257    7.7369 C   0  0  0  0  0  0  0  0  0  0  0  0
    2.5443    5.9661    8.6457 C   0  0  0  0  0  0  0  0  0  0  0  0
   -1.2422    9.2317    5.8426 H   0  0  0  0  0  0  0  0  0  0  0  0
    6.4580    8.1752   11.5350 C   0  0  0  0  0  0  0  0  0  0  0  0
    5.5587    7.0903   11.8219 N   0  0  0  0  0  0  0  0  0  0  0  0
    4.5814    7.4274   11.6657 H   0  0  0  0  0  0  0  0  0  0  0  0
    4.0275    5.2896   12.2305 O   0  0  0  0  0  0  0  0  0  0  0  0
    4.0237    4.3729   13.2778 C   0  0  0  0  0  0  0  0  0  0  0  0
 33 34  1  0  0  0
 34  1  1  0  0  0
  1  2  1  0  0  0
  2  3  1  0  0  0
  3  4  1  0  0  0
  4  5  1  0  0  0
  5  6  1  0  0  0
  5  7  1  0  0  0
  7 36  1  0  0  0
 36 37  1  0  0  0
  5  8  1  0  0  0
  8  9  1  0  0  0
  9 10  2  0  0  0
 10 11  1  0  0  0
 11 12  2  0  0  0
 12 13  1  0  0  0
 13 14  2  0  0  0
 14 15  1  0  0  0
 15 16  2  0  0  0
 16 17  1  0  0  0
 17 18  1  0  0  0
 18 19  1  0  0  0
 19 20  2  0  0  0
 19 21  1  0  0  0
 21 22  2  0  0  0
 22 23  1  0  0  0
 23 24  2  0  0  0
 24 25  1  0  0  0
 25 26  2  0  0  0
 26 27  1  0  0  0
 27 28  2  0  0  0
 28 29  1  0  0  0
 29 30  1  0  0  0
 30 31  2  0  0  0
  7  1  1  0  0  0
 31  8  1  0  0  0
 29  3  1  0  0  0
 14  9  1  0  0  0
 31 15  1  0  0  0
 21 16  1  0  0  0
 30 22  1  0  0  0
 28 23  1  0  0  0
 34 35  1  0  0  0
 18 32  1  0  0  0
M  END
> <minimizedAffinity>
-5.64413

> <CNNscore>
0.2800270021

> <CNNaffinity>
5.4746766090

> <CNN_VS>
1.5330573320

> <CNNaffinity_variance>
0.1942044199

$$$$
[H]c1c([H])c([H])c2c(c1[H])c1c3c(c4c5c([H])c([H])c([H])c([H])c5n5c4c1n2C1([H])O[C@@]5(C([H])([H])[H])[C@]([H])(OC([H])([H])[H])[C@]([H])(N([H])C([H])([H])[H])C1([H])[H])C([H])([H])N([H])C3=O


 37 44  0  0  0  0  0  0  0  0999 V2000
    4.4074    7.7469    9.1691 C   0  0  0  0  0  0  0  0  0  0  0  0
    5.4859    6.9103    8.6243 C   0  0  0  0  0  0  0  0  0  0  0  0
    6.2852    6.1964    9.6742 C   0  0  0  0  0  0  0  0  0  0  0  0
    5.8506    6.1857   10.9028 O   0  0  0  0  0  0  0  0  0  0  0  0
    4.5085    6.2692   11.2431 C   0  0  0  0  0  0  0  0  0  0  0  0
    4.6157    6.6163   12.7447 C   0  0  0  0  0  0  0  0  0  0  0  0
    3.8935    7.3862   10.5396 C   0  0  0  0  0  0  0  0  0  0  0  0
    3.9074    4.9459   11.0867 N   0  0  0  0  0  0  0  0  0  0  0  0
    2.8259    4.4563   11.7032 C   0  0  0  0  0  0  0  0  0  0  0  0
    1.9454    4.9910   12.5857 C   0  0  0  0  0  0  0  0  0  0  0  0
    0.8884    4.2665   13.0891 C   0  0  0  0  0  0  0  0  0  0  0  0
    0.6675    2.9419   12.7169 C   0  0  0  0  0  0  0  0  0  0  0  0
    1.5587    2.3965   11.8218 C   0  0  0  0  0  0  0  0  0  0  0  0
    2.6063    3.1330   11.3304 C   0  0  0  0  0  0  0  0  0  0  0  0
    3.5978    2.8161   10.4521 C   0  0  0  0  0  0  0  0  0  0  0  0
    3.9201    1.6460    9.7541 C   0  0  0  0  0  0  0  0  0  0  0  0
    3.2302    0.3330    9.7454 C   0  0  0  0  0  0  0  0  0  0  0  0
    3.9579   -0.5214    8.8728 N   0  0  0  0  0  0  0  0  0  0  0  0
    5.0629    0.2257    8.3512 C   0  0  0  0  0  0  0  0  0  0  0  0
    5.8593   -0.2949    7.5585 O   0  0  0  0  0  0  0  0  0  0  0  0
    5.0192    1.5650    8.9106 C   0  0  0  0  0  0  0  0  0  0  0  0
    5.7966    2.6941    8.7781 C   0  0  0  0  0  0  0  0  0  0  0  0
    6.9154    3.0102    8.0583 C   0  0  0  0  0  0  0  0  0  0  0  0
    7.6951    2.2856    7.1951 C   0  0  0  0  0  0  0  0  0  0  0  0
    8.7966    2.8967    6.6024 C   0  0  0  0  0  0  0  0  0  0  0  0
    9.0928    4.2116    6.8840 C   0  0  0  0  0  0  0  0  0  0  0  0
    8.3026    4.9497    7.7603 C   0  0  0  0  0  0  0  0  0  0  0  0
    7.2269    4.3348    8.3322 C   0  0  0  0  0  0  0  0  0  0  0  0
    6.3436    4.8144    9.1809 N   0  0  0  0  0  0  0  0  0  0  0  0
    5.4647    3.8627    9.4814 C   0  0  0  0  0  0  0  0  0  0  0  0
    4.3621    3.9220   10.3233 C   0  0  0  0  0  0  0  0  0  0  0  0
    3.7148   -1.5246    8.6577 H   0  0  0  0  0  0  0  0  0  0  0  0
    3.5422    6.8085    7.1235 C   0  0  0  0  0  0  0  0  0  0  0  0
    3.3107    7.7596    8.1770 N   0  0  0  0  0  0  0  0  0  0  0  0
    2.4165    7.5047    8.6551 H   0  0  0  0  0  0  0  0  0  0  0  0
    2.5117    7.3972   10.4095 O   0  0  0  0  0  0  0  0  0  0  0  0
    1.8755    8.2436   11.3128 C   0  0  0  0  0  0  0  0  0  0  0  0
 33 34  1  0  0  0
 34  1  1  0  0  0
  1  2  1  0  0  0
  2  3  1  0  0  0
  3  4  1  0  0  0
  4  5  1  0  0  0
  5  6  1  0  0  0
  5  7  1  0  0  0
  7 36  1  0  0  0
 36 37  1  0  0  0
  5  8  1  0  0  0
  8  9  1  0  0  0
  9 10  2  0  0  0
 10 11  1  0  0  0
 11 12  2  0  0  0
 12 13  1  0  0  0
 13 14  2  0  0  0
 14 15  1  0  0  0
 15 16  2  0  0  0
 16 17  1  0  0  0
 17 18  1  0  0  0
 18 19  1  0  0  0
 19 20  2  0  0  0
 19 21  1  0  0  0
 21 22  2  0  0  0
 22 23  1  0  0  0
 23 24  2  0  0  0
 24 25  1  0  0  0
 25 26  2  0  0  0
 26 27  1  0  0  0
 27 28  2  0  0  0
 28 29  1  0  0  0
 29 30  1  0  0  0
 30 31  2  0  0  0
  7  1  1  0  0  0
 31  8  1  0  0  0
 29  3  1  0  0  0
 14  9  1  0  0  0
 31 15  1  0  0  0
 21 16  1  0  0  0
 30 22  1  0  0  0
 28 23  1  0  0  0
 34 35  1  0  0  0
 18 32  1  0  0  0
M  END
> <minimizedAffinity>
-5.83973

> <CNNscore>
0.2587100565

> <CNNaffinity>
5.3850827217

> <CNN_VS>
1.3931750059

> <CNNaffinity_variance>
0.1753754765

$$$$
[H]c1nc(N([H])c2c([H])c(C(=O)N([H])OC([H])([H])[H])c([H])c(C(F)(F)F)c2[H])nc(-c2c([H])c([H])c(N([H])C(=O)C3(C(=O)N([H])C4([H])C([H])([H])C([H])([H])OC([H])([H])C4([H])[H])C([H])([H])C3([H])[H])c([H])c2[H])c1[H]


 47 51  0  0  0  0  0  0  0  0999 V2000
    4.4678    4.0291   17.8712 C   0  0  0  0  0  0  0  0  0  0  0  0
    3.5151    4.8025   18.5159 N   0  0  0  0  0  0  0  0  0  0  0  0
    2.3519    5.1186   17.7799 C   0  0  0  0  0  0  0  0  0  0  0  0
    2.2173    4.7060   16.5535 C   0  0  0  0  0  0  0  0  0  0  0  0
    3.1863    3.9075   15.9085 C   0  0  0  0  0  0  0  0  0  0  0  0
    4.2818    3.6069   16.6609 N   0  0  0  0  0  0  0  0  0  0  0  0
    2.8815    3.3576   14.6281 C   0  0  0  0  0  0  0  0  0  0  0  0
    3.5678    3.7171   13.4763 C   0  0  0  0  0  0  0  0  0  0  0  0
    3.2369    3.0945   12.2764 C   0  0  0  0  0  0  0  0  0  0  0  0
    2.2530    2.1189   12.2864 C   0  0  0  0  0  0  0  0  0  0  0  0
    1.5671    1.7394   13.3832 C   0  0  0  0  0  0  0  0  0  0  0  0
    1.8772    2.3794   14.5663 C   0  0  0  0  0  0  0  0  0  0  0  0
    1.6447    1.8820   10.9947 N   0  0  0  0  0  0  0  0  0  0  0  0
    0.5842    2.5896   10.4740 C   0  0  0  0  0  0  0  0  0  0  0  0
    0.0850    3.6576   10.6782 O   0  0  0  0  0  0  0  0  0  0  0  0
    2.2305    1.2961   10.3205 H   0  0  0  0  0  0  0  0  0  0  0  0
   -0.0638    1.6470    9.4235 C   0  0  0  0  0  0  0  0  0  0  0  0
   -0.2794    2.6110    8.2280 C   0  0  0  0  0  0  0  0  0  0  0  0
   -1.4119    1.9877    8.9347 C   0  0  0  0  0  0  0  0  0  0  0  0
    0.7078    0.4958    8.9078 C   0  0  0  0  0  0  0  0  0  0  0  0
    1.8648    0.5730    8.5307 O   0  0  0  0  0  0  0  0  0  0  0  0
   -0.1189   -0.6396    8.8503 N   0  0  0  0  0  0  0  0  0  0  0  0
   -0.9327   -0.6291    9.5995 H   0  0  0  0  0  0  0  0  0  0  0  0
   -0.0035   -1.9041    8.2132 C   0  0  0  0  0  0  0  0  0  0  0  0
    0.4926   -2.8591    9.2856 C   0  0  0  0  0  0  0  0  0  0  0  0
   -0.4355   -3.8272    9.8770 C   0  0  0  0  0  0  0  0  0  0  0  0
   -1.6204   -4.0675    9.2553 O   0  0  0  0  0  0  0  0  0  0  0  0
   -1.6127   -3.7054    7.8999 C   0  0  0  0  0  0  0  0  0  0  0  0
   -1.4840   -2.2236    7.9031 C   0  0  0  0  0  0  0  0  0  0  0  0
    5.6444    3.6697   18.6547 N   0  0  0  0  0  0  0  0  0  0  0  0
    6.5823    3.9414   18.4395 H   0  0  0  0  0  0  0  0  0  0  0  0
    3.8436    1.1722   20.4767 C   0  0  0  0  0  0  0  0  0  0  0  0
    4.5995    1.6913   19.5243 C   0  0  0  0  0  0  0  0  0  0  0  0
    5.2288    2.9221   19.7882 C   0  0  0  0  0  0  0  0  0  0  0  0
    5.0616    3.4944   21.0188 C   0  0  0  0  0  0  0  0  0  0  0  0
    4.2823    2.9527   22.0066 C   0  0  0  0  0  0  0  0  0  0  0  0
    3.6345    1.7286   21.6959 C   0  0  0  0  0  0  0  0  0  0  0  0
    2.4866   -0.2196   19.1621 N   0  0  0  0  0  0  0  0  0  0  0  0
    3.1149   -0.1876   20.3231 C   0  0  0  0  0  0  0  0  0  0  0  0
    3.3189   -0.9020   21.2854 O   0  0  0  0  0  0  0  0  0  0  0  0
    1.5860   -1.1565   19.6490 H   0  0  0  0  0  0  0  0  0  0  0  0
    2.8310   -0.0250   16.9965 C   0  0  0  0  0  0  0  0  0  0  0  0
    1.8597   -0.2768   18.0264 O   0  0  0  0  0  0  0  0  0  0  0  0
    4.0126    3.6517   23.2834 C   0  0  0  0  0  0  0  0  0  0  0  0
    2.7256    4.1043   23.4151 F   0  0  0  0  0  0  0  0  0  0  0  0
    4.7867    4.8470   23.1454 F   0  0  0  0  0  0  0  0  0  0  0  0
    4.5064    3.0544   24.3894 F   0  0  0  0  0  0  0  0  0  0  0  0
 42 43  1  0  0  0
 43 38  1  0  0  0
 38 39  1  0  0  0
 39 40  2  0  0  0
 39 32  1  0  0  0
 32 33  2  0  0  0
 33 34  1  0  0  0
 34 30  1  0  0  0
 30  1  1  0  0  0
  1  2  2  0  0  0
  2  3  1  0  0  0
  3  4  2  0  0  0
  4  5  1  0  0  0
  5  6  2  0  0  0
  5  7  1  0  0  0
  7  8  2  0  0  0
  8  9  1  0  0  0
  9 10  2  0  0  0
 10 13  1  0  0  0
 13 14  1  0  0  0
 14 15  2  0  0  0
 14 17  1  0  0  0
 17 18  1  0  0  0
 18 19  1  0  0  0
 17 20  1  0  0  0
 20 21  2  0  0  0
 20 22  1  0  0  0
 22 24  1  0  0  0
 24 25  1  0  0  0
 25 26  1  0  0  0
 26 27  1  0  0  0
 27 28  1  0  0  0
 28 29  1  0  0  0
 10 11  1  0  0  0
 11 12  2  0  0  0
 34 35  2  0  0  0
 35 36  1  0  0  0
 36 37  2  0  0  0
 36 44  1  0  0  0
 44 45  1  0  0  0
 44 46  1  0  0  0
 44 47  1  0  0  0
 37 32  1  0  0  0
  6  1  1  0  0  0
 12  7  1  0  0  0
 19 17  1  0  0  0
 29 24  1  0  0  0
 38 41  1  0  0  0
 30 31  1  0  0  0
 13 16  1  0  0  0
 22 23  1  0  0  0
M  END
> <minimizedAffinity>
-8.73763

> <CNNscore>
0.6101512909

> <CNNaffinity>
7.1388726234

> <CNN_VS>
4.3557925224

> <CNNaffinity_variance>
0.1574876159

$$$$
[H]c1nc(N([H])c2c([H])c(C(=O)N([H])OC([H])([H])[H])c([H])c(C(F)(F)F)c2[H])nc(-c2c([H])c([H])c(N([H])C(=O)C3(C(=O)N([H])C4([H])C([H])([H])C([H])([H])OC([H])([H])C4([H])[H])C([H])([H])C3([H])[H])c([H])c2[H])c1[H]


 47 51  0  0  0  0  0  0  0  0999 V2000
    4.5191    4.0660   17.9013 C   0  0  0  0  0  0  0  0  0  0  0  0
    3.5191    4.7701   18.5536 N   0  0  0  0  0  0  0  0  0  0  0  0
    2.3669    5.0805   17.7982 C   0  0  0  0  0  0  0  0  0  0  0  0
    2.2842    4.7263   16.5491 C   0  0  0  0  0  0  0  0  0  0  0  0
    3.3015    3.9978   15.8958 C   0  0  0  0  0  0  0  0  0  0  0  0
    4.3851    3.6995   16.6661 N   0  0  0  0  0  0  0  0  0  0  0  0
    3.0557    3.5032   14.5806 C   0  0  0  0  0  0  0  0  0  0  0  0
    3.6991    4.0074   13.4587 C   0  0  0  0  0  0  0  0  0  0  0  0
    3.4350    3.4327   12.2190 C   0  0  0  0  0  0  0  0  0  0  0  0
    2.5602    2.3598   12.1598 C   0  0  0  0  0  0  0  0  0  0  0  0
    1.9193    1.8393   13.2255 C   0  0  0  0  0  0  0  0  0  0  0  0
    2.1608    2.4303   14.4495 C   0  0  0  0  0  0  0  0  0  0  0  0
    1.9794    2.1444   10.8518 N   0  0  0  0  0  0  0  0  0  0  0  0
    0.7313    2.5715   10.4564 C   0  0  0  0  0  0  0  0  0  0  0  0
   -0.0478    3.3996   10.8288 O   0  0  0  0  0  0  0  0  0  0  0  0
    2.6741    1.8657   10.0897 H   0  0  0  0  0  0  0  0  0  0  0  0
    0.3330    1.6432    9.2767 C   0  0  0  0  0  0  0  0  0  0  0  0
   -0.1043    0.3566   10.0239 C   0  0  0  0  0  0  0  0  0  0  0  0
    1.0640    0.3722    9.1265 C   0  0  0  0  0  0  0  0  0  0  0  0
   -0.7925    2.0283    8.3984 C   0  0  0  0  0  0  0  0  0  0  0  0
   -0.7066    2.1027    7.1844 O   0  0  0  0  0  0  0  0  0  0  0  0
   -1.9103    2.3632    9.1821 N   0  0  0  0  0  0  0  0  0  0  0  0
   -1.9376    1.8387   10.1556 H   0  0  0  0  0  0  0  0  0  0  0  0
   -3.1320    3.0350    8.9093 C   0  0  0  0  0  0  0  0  0  0  0  0
   -3.9762    2.8744   10.1621 C   0  0  0  0  0  0  0  0  0  0  0  0
   -4.1560    4.0158   11.0640 C   0  0  0  0  0  0  0  0  0  0  0  0
   -3.8339    5.2606   10.6224 O   0  0  0  0  0  0  0  0  0  0  0  0
   -3.8018    5.3556    9.2230 C   0  0  0  0  0  0  0  0  0  0  0  0
   -2.6556    4.5024    8.8103 C   0  0  0  0  0  0  0  0  0  0  0  0
    5.6850    3.7103   18.7022 N   0  0  0  0  0  0  0  0  0  0  0  0
    6.6241    3.9917   18.5055 H   0  0  0  0  0  0  0  0  0  0  0  0
    3.8559    1.1993   20.4769 C   0  0  0  0  0  0  0  0  0  0  0  0
    4.6221    1.7266   19.5374 C   0  0  0  0  0  0  0  0  0  0  0  0
    5.2564    2.9503   19.8224 C   0  0  0  0  0  0  0  0  0  0  0  0
    5.0827    3.5072   21.0592 C   0  0  0  0  0  0  0  0  0  0  0  0
    4.2926    2.9570   22.0337 C   0  0  0  0  0  0  0  0  0  0  0  0
    3.6404    1.7408   21.7017 C   0  0  0  0  0  0  0  0  0  0  0  0
    2.5064   -0.1694   19.1308 N   0  0  0  0  0  0  0  0  0  0  0  0
    3.1207   -0.1541   20.2997 C   0  0  0  0  0  0  0  0  0  0  0  0
    3.3087   -0.8801   21.2564 O   0  0  0  0  0  0  0  0  0  0  0  0
    1.5941   -1.1059   19.5966 H   0  0  0  0  0  0  0  0  0  0  0  0
    2.8867   -0.0020   16.9690 C   0  0  0  0  0  0  0  0  0  0  0  0
    1.8929   -0.2104   17.9871 O   0  0  0  0  0  0  0  0  0  0  0  0
    4.0168    3.6406   23.3174 C   0  0  0  0  0  0  0  0  0  0  0  0
    2.7178    4.0513   23.4676 F   0  0  0  0  0  0  0  0  0  0  0  0
    4.7508    4.8607   23.1764 F   0  0  0  0  0  0  0  0  0  0  0  0
    4.5432    3.0538   24.4141 F   0  0  0  0  0  0  0  0  0  0  0  0
 42 43  1  0  0  0
 43 38  1  0  0  0
 38 39  1  0  0  0
 39 40  2  0  0  0
 39 32  1  0  0  0
 32 33  2  0  0  0
 33 34  1  0  0  0
 34 30  1  0  0  0
 30  1  1  0  0  0
  1  2  2  0  0  0
  2  3  1  0  0  0
  3  4  2  0  0  0
  4  5  1  0  0  0
  5  6  2  0  0  0
  5  7  1  0  0  0
  7  8  2  0  0  0
  8  9  1  0  0  0
  9 10  2  0  0  0
 10 13  1  0  0  0
 13 14  1  0  0  0
 14 15  2  0  0  0
 14 17  1  0  0  0
 17 18  1  0  0  0
 18 19  1  0  0  0
 17 20  1  0  0  0
 20 21  2  0  0  0
 20 22  1  0  0  0
 22 24  1  0  0  0
 24 25  1  0  0  0
 25 26  1  0  0  0
 26 27  1  0  0  0
 27 28  1  0  0  0
 28 29  1  0  0  0
 10 11  1  0  0  0
 11 12  2  0  0  0
 34 35  2  0  0  0
 35 36  1  0  0  0
 36 37  2  0  0  0
 36 44  1  0  0  0
 44 45  1  0  0  0
 44 46  1  0  0  0
 44 47  1  0  0  0
 37 32  1  0  0  0
  6  1  1  0  0  0
 12  7  1  0  0  0
 19 17  1  0  0  0
 29 24  1  0  0  0
 38 41  1  0  0  0
 30 31  1  0  0  0
 13 16  1  0  0  0
 22 23  1  0  0  0
M  END
> <minimizedAffinity>
-9.01372

> <CNNscore>
0.6021094322

> <CNNaffinity>
7.2026619911

> <CNN_VS>
4.3367905617

> <CNNaffinity_variance>
0.2855021358

$$$$
[H]c1nc(N([H])c2c([H])c(C(=O)N([H])OC([H])([H])[H])c([H])c(C(F)(F)F)c2[H])nc(-c2c([H])c([H])c(N([H])C(=O)C3(C(=O)N([H])C4([H])C([H])([H])C([H])([H])OC([H])([H])C4([H])[H])C([H])([H])C3([H])[H])c([H])c2[H])c1[H]


 47 51  0  0  0  0  0  0  0  0999 V2000
    2.7046    0.1975   18.9148 C   0  0  0  0  0  0  0  0  0  0  0  0
    2.4246   -0.6423   17.8483 N   0  0  0  0  0  0  0  0  0  0  0  0
    2.6692   -0.1280   16.5559 C   0  0  0  0  0  0  0  0  0  0  0  0
    3.1176    1.0837   16.4042 C   0  0  0  0  0  0  0  0  0  0  0  0
    3.4129    1.9281   17.4961 C   0  0  0  0  0  0  0  0  0  0  0  0
    3.1843    1.3857   18.7250 N   0  0  0  0  0  0  0  0  0  0  0  0
    4.0607    3.1741   17.2454 C   0  0  0  0  0  0  0  0  0  0  0  0
    5.3222    3.4749   17.7402 C   0  0  0  0  0  0  0  0  0  0  0  0
    5.9001    4.6960   17.4060 C   0  0  0  0  0  0  0  0  0  0  0  0
    5.2026    5.5511   16.5680 C   0  0  0  0  0  0  0  0  0  0  0  0
    3.9788    5.2941   16.0644 C   0  0  0  0  0  0  0  0  0  0  0  0
    3.3957    4.0948   16.4212 C   0  0  0  0  0  0  0  0  0  0  0  0
    5.6177    6.9345   16.6595 N   0  0  0  0  0  0  0  0  0  0  0  0
    4.9522    7.9194   17.3548 C   0  0  0  0  0  0  0  0  0  0  0  0
    4.1488    7.9479   18.2409 O   0  0  0  0  0  0  0  0  0  0  0  0
    6.6322    7.1207   16.3818 H   0  0  0  0  0  0  0  0  0  0  0  0
    5.3963    9.2566   16.7014 C   0  0  0  0  0  0  0  0  0  0  0  0
    4.0326    9.8817   16.3086 C   0  0  0  0  0  0  0  0  0  0  0  0
    5.0258    9.4890   15.2939 C   0  0  0  0  0  0  0  0  0  0  0  0
    6.1060   10.2634   17.5193 C   0  0  0  0  0  0  0  0  0  0  0  0
    6.6526   11.2485   17.0529 O   0  0  0  0  0  0  0  0  0  0  0  0
    6.1138    9.8585   18.8654 N   0  0  0  0  0  0  0  0  0  0  0  0
    5.2479    9.2269   19.1393 H   0  0  0  0  0  0  0  0  0  0  0  0
    6.8487   10.2723   20.0085 C   0  0  0  0  0  0  0  0  0  0  0  0
    5.8431   10.3210   21.1463 C   0  0  0  0  0  0  0  0  0  0  0  0
    5.8548    9.2692   22.1671 C   0  0  0  0  0  0  0  0  0  0  0  0
    6.9382    8.4530   22.2586 O   0  0  0  0  0  0  0  0  0  0  0  0
    8.0900    9.0018   21.6750 C   0  0  0  0  0  0  0  0  0  0  0  0
    7.7871    9.0621   20.2202 C   0  0  0  0  0  0  0  0  0  0  0  0
    2.4922   -0.3584   20.2465 N   0  0  0  0  0  0  0  0  0  0  0  0
    1.7572   -0.9892   20.4946 H   0  0  0  0  0  0  0  0  0  0  0  0
    4.2737    1.9571   22.3117 C   0  0  0  0  0  0  0  0  0  0  0  0
    3.2472    1.2703   21.8401 C   0  0  0  0  0  0  0  0  0  0  0  0
    3.5250    0.1027   21.1051 C   0  0  0  0  0  0  0  0  0  0  0  0
    4.8282   -0.2817   20.9513 C   0  0  0  0  0  0  0  0  0  0  0  0
    5.8907    0.4281   21.4450 C   0  0  0  0  0  0  0  0  0  0  0  0
    5.5774    1.6185   22.1518 C   0  0  0  0  0  0  0  0  0  0  0  0
    3.8499    4.2647   22.3553 N   0  0  0  0  0  0  0  0  0  0  0  0
    4.1050    3.2462   23.1562 C   0  0  0  0  0  0  0  0  0  0  0  0
    4.2177    3.0072   24.3429 O   0  0  0  0  0  0  0  0  0  0  0  0
    4.3540    5.1569   23.2912 H   0  0  0  0  0  0  0  0  0  0  0  0
    4.8002    5.5632   20.8530 C   0  0  0  0  0  0  0  0  0  0  0  0
    3.5978    5.2830   21.5900 O   0  0  0  0  0  0  0  0  0  0  0  0
    7.2964    0.0635   21.1576 C   0  0  0  0  0  0  0  0  0  0  0  0
    7.8306   -0.8472   22.0317 F   0  0  0  0  0  0  0  0  0  0  0  0
    7.9926    1.2775   21.4553 F   0  0  0  0  0  0  0  0  0  0  0  0
    7.5807   -0.1804   19.8601 F   0  0  0  0  0  0  0  0  0  0  0  0
 42 43  1  0  0  0
 43 38  1  0  0  0
 38 39  1  0  0  0
 39 40  2  0  0  0
 39 32  1  0  0  0
 32 33  2  0  0  0
 33 34  1  0  0  0
 34 30  1  0  0  0
 30  1  1  0  0  0
  1  2  2  0  0  0
  2  3  1  0  0  0
  3  4  2  0  0  0
  4  5  1  0  0  0
  5  6  2  0  0  0
  5  7  1  0  0  0
  7  8  2  0  0  0
  8  9  1  0  0  0
  9 10  2  0  0  0
 10 13  1  0  0  0
 13 14  1  0  0  0
 14 15  2  0  0  0
 14 17  1  0  0  0
 17 18  1  0  0  0
 18 19  1  0  0  0
 17 20  1  0  0  0
 20 21  2  0  0  0
 20 22  1  0  0  0
 22 24  1  0  0  0
 24 25  1  0  0  0
 25 26  1  0  0  0
 26 27  1  0  0  0
 27 28  1  0  0  0
 28 29  1  0  0  0
 10 11  1  0  0  0
 11 12  2  0  0  0
 34 35  2  0  0  0
 35 36  1  0  0  0
 36 37  2  0  0  0
 36 44  1  0  0  0
 44 45  1  0  0  0
 44 46  1  0  0  0
 44 47  1  0  0  0
 37 32  1  0  0  0
  6  1  1  0  0  0
 12  7  1  0  0  0
 19 17  1  0  0  0
 29 24  1  0  0  0
 38 41  1  0  0  0
 30 31  1  0  0  0
 13 16  1  0  0  0
 22 23  1  0  0  0
M  END
> <minimizedAffinity>
-8.76341

> <CNNscore>
0.5591818094

> <CNNaffinity>
7.5257387161

> <CNN_VS>
4.2082562447

> <CNNaffinity_variance>
0.3026773632

$$$$
[H]c1nc(N([H])c2c([H])c(C(=O)N([H])OC([H])([H])[H])c([H])c(C(F)(F)F)c2[H])nc(-c2c([H])c([H])c(N([H])C(=O)C3(C(=O)N([H])C4([H])C([H])([H])C([H])([H])OC([H])([H])C4([H])[H])C([H])([H])C3([H])[H])c([H])c2[H])c1[H]


 47 51  0  0  0  0  0  0  0  0999 V2000
    4.5648    4.1258   17.8929 C   0  0  0  0  0  0  0  0  0  0  0  0
    3.5044    4.7335   18.5468 N   0  0  0  0  0  0  0  0  0  0  0  0
    2.3650    5.0294   17.7666 C   0  0  0  0  0  0  0  0  0  0  0  0
    2.3474    4.7509   16.4959 C   0  0  0  0  0  0  0  0  0  0  0  0
    3.4265    4.1198   15.8403 C   0  0  0  0  0  0  0  0  0  0  0  0
    4.4962    3.8313   16.6334 N   0  0  0  0  0  0  0  0  0  0  0  0
    3.2562    3.6967   14.4886 C   0  0  0  0  0  0  0  0  0  0  0  0
    3.7835    4.3976   13.4128 C   0  0  0  0  0  0  0  0  0  0  0  0
    3.6107    3.8866   12.1298 C   0  0  0  0  0  0  0  0  0  0  0  0
    2.9425    2.6818   11.9817 C   0  0  0  0  0  0  0  0  0  0  0  0
    2.4198    1.9700   13.0003 C   0  0  0  0  0  0  0  0  0  0  0  0
    2.5673    2.4941   14.2689 C   0  0  0  0  0  0  0  0  0  0  0  0
    2.3927    2.4714   10.6596 N   0  0  0  0  0  0  0  0  0  0  0  0
    1.0741    2.6574   10.3085 C   0  0  0  0  0  0  0  0  0  0  0  0
    0.1451    3.2612   10.7599 O   0  0  0  0  0  0  0  0  0  0  0  0
    3.1142    2.4205    9.8735 H   0  0  0  0  0  0  0  0  0  0  0  0
    0.8568    1.7807    9.0450 C   0  0  0  0  0  0  0  0  0  0  0  0
   -0.1505    0.7233    9.5667 C   0  0  0  0  0  0  0  0  0  0  0  0
    1.2074    0.3518    9.1326 C   0  0  0  0  0  0  0  0  0  0  0  0
    0.2527    2.3846    7.8380 C   0  0  0  0  0  0  0  0  0  0  0  0
   -0.0280    1.7512    6.8346 O   0  0  0  0  0  0  0  0  0  0  0  0
    0.1419    3.7753    8.0102 N   0  0  0  0  0  0  0  0  0  0  0  0
    0.0318    4.0797    9.0680 H   0  0  0  0  0  0  0  0  0  0  0  0
   -0.1022    4.8560    7.1211 C   0  0  0  0  0  0  0  0  0  0  0  0
   -1.4724    5.3938    7.4967 C   0  0  0  0  0  0  0  0  0  0  0  0
   -1.5765    6.6587    8.2301 C   0  0  0  0  0  0  0  0  0  0  0  0
   -0.4912    7.4752    8.2912 O   0  0  0  0  0  0  0  0  0  0  0  0
    0.4421    7.2251    7.2740 C   0  0  0  0  0  0  0  0  0  0  0  0
    0.9751    5.8690    7.5722 C   0  0  0  0  0  0  0  0  0  0  0  0
    5.7188    3.7827   18.7163 N   0  0  0  0  0  0  0  0  0  0  0  0
    6.6624    4.0511   18.5227 H   0  0  0  0  0  0  0  0  0  0  0  0
    3.9042    1.2880   20.5285 C   0  0  0  0  0  0  0  0  0  0  0  0
    4.6892    1.8009   19.5966 C   0  0  0  0  0  0  0  0  0  0  0  0
    5.2715    3.0566   19.8516 C   0  0  0  0  0  0  0  0  0  0  0  0
    5.0312    3.6592   21.0554 C   0  0  0  0  0  0  0  0  0  0  0  0
    4.2218    3.1241   22.0223 C   0  0  0  0  0  0  0  0  0  0  0  0
    3.6231    1.8733   21.7194 C   0  0  0  0  0  0  0  0  0  0  0  0
    2.5663   -0.1434   19.2372 N   0  0  0  0  0  0  0  0  0  0  0  0
    3.2211   -0.0961   20.3829 C   0  0  0  0  0  0  0  0  0  0  0  0
    3.4740   -0.8087   21.3349 O   0  0  0  0  0  0  0  0  0  0  0  0
    1.7119   -1.1152   19.7390 H   0  0  0  0  0  0  0  0  0  0  0  0
    2.8562    0.0518   17.0637 C   0  0  0  0  0  0  0  0  0  0  0  0
    1.9143   -0.2161   18.1165 O   0  0  0  0  0  0  0  0  0  0  0  0
    3.8736    3.8517   23.2636 C   0  0  0  0  0  0  0  0  0  0  0  0
    4.5973    4.9981   23.4647 F   0  0  0  0  0  0  0  0  0  0  0  0
    4.3456    2.9623   24.2802 F   0  0  0  0  0  0  0  0  0  0  0  0
    2.5522    3.9792   23.5122 F   0  0  0  0  0  0  0  0  0  0  0  0
 42 43  1  0  0  0
 43 38  1  0  0  0
 38 39  1  0  0  0
 39 40  2  0  0  0
 39 32  1  0  0  0
 32 33  2  0  0  0
 33 34  1  0  0  0
 34 30  1  0  0  0
 30  1  1  0  0  0
  1  2  2  0  0  0
  2  3  1  0  0  0
  3  4  2  0  0  0
  4  5  1  0  0  0
  5  6  2  0  0  0
  5  7  1  0  0  0
  7  8  2  0  0  0
  8  9  1  0  0  0
  9 10  2  0  0  0
 10 13  1  0  0  0
 13 14  1  0  0  0
 14 15  2  0  0  0
 14 17  1  0  0  0
 17 18  1  0  0  0
 18 19  1  0  0  0
 17 20  1  0  0  0
 20 21  2  0  0  0
 20 22  1  0  0  0
 22 24  1  0  0  0
 24 25  1  0  0  0
 25 26  1  0  0  0
 26 27  1  0  0  0
 27 28  1  0  0  0
 28 29  1  0  0  0
 10 11  1  0  0  0
 11 12  2  0  0  0
 34 35  2  0  0  0
 35 36  1  0  0  0
 36 37  2  0  0  0
 36 44  1  0  0  0
 44 45  1  0  0  0
 44 46  1  0  0  0
 44 47  1  0  0  0
 37 32  1  0  0  0
  6  1  1  0  0  0
 12  7  1  0  0  0
 19 17  1  0  0  0
 29 24  1  0  0  0
 38 41  1  0  0  0
 30 31  1  0  0  0
 13 16  1  0  0  0
 22 23  1  0  0  0
M  END
> <minimizedAffinity>
-8.64836

> <CNNscore>
0.4482046664

> <CNNaffinity>
6.9794921875

> <CNN_VS>
3.1282410622

> <CNNaffinity_variance>
0.3147220612

$$$$
[H]c1nc(N([H])c2c([H])c(C(=O)N([H])OC([H])([H])[H])c([H])c(C(F)(F)F)c2[H])nc(-c2c([H])c([H])c(N([H])C(=O)C3(C(=O)N([H])C4([H])C([H])([H])C([H])([H])OC([H])([H])C4([H])[H])C([H])([H])C3([H])[H])c([H])c2[H])c1[H]


 47 51  0  0  0  0  0  0  0  0999 V2000
    2.2614    2.1656   15.0466 C   0  0  0  0  0  0  0  0  0  0  0  0
    2.3562    1.5963   13.7863 N   0  0  0  0  0  0  0  0  0  0  0  0
    2.4978    2.4858   12.6985 C   0  0  0  0  0  0  0  0  0  0  0  0
    2.5165    3.7712   12.8981 C   0  0  0  0  0  0  0  0  0  0  0  0
    2.4327    4.3426   14.1862 C   0  0  0  0  0  0  0  0  0  0  0  0
    2.3199    3.4493   15.2089 N   0  0  0  0  0  0  0  0  0  0  0  0
    2.6334    5.7477   14.3286 C   0  0  0  0  0  0  0  0  0  0  0  0
    3.7393    6.2843   14.9735 C   0  0  0  0  0  0  0  0  0  0  0  0
    3.8802    7.6680   15.0242 C   0  0  0  0  0  0  0  0  0  0  0  0
    2.9230    8.4539   14.4028 C   0  0  0  0  0  0  0  0  0  0  0  0
    1.8383    7.9714   13.7640 C   0  0  0  0  0  0  0  0  0  0  0  0
    1.6860    6.5996   13.7406 C   0  0  0  0  0  0  0  0  0  0  0  0
    2.8670    9.8138   14.8948 N   0  0  0  0  0  0  0  0  0  0  0  0
    3.8507   10.7620   14.7234 C   0  0  0  0  0  0  0  0  0  0  0  0
    4.7722   10.9140   13.9755 O   0  0  0  0  0  0  0  0  0  0  0  0
    1.8937   10.1522   15.1763 H   0  0  0  0  0  0  0  0  0  0  0  0
    3.6339   11.7916   15.8658 C   0  0  0  0  0  0  0  0  0  0  0  0
    2.7704   12.8679   15.1581 C   0  0  0  0  0  0  0  0  0  0  0  0
    4.1254   13.1650   15.6543 C   0  0  0  0  0  0  0  0  0  0  0  0
    2.8945   11.3837   17.0796 C   0  0  0  0  0  0  0  0  0  0  0  0
    1.7777   11.7869   17.3572 O   0  0  0  0  0  0  0  0  0  0  0  0
    3.7054   10.5501   17.8691 N   0  0  0  0  0  0  0  0  0  0  0  0
    4.4481    9.9766   17.2833 H   0  0  0  0  0  0  0  0  0  0  0  0
    3.6285   10.0967   19.2133 C   0  0  0  0  0  0  0  0  0  0  0  0
    3.8105    8.5899   19.1483 C   0  0  0  0  0  0  0  0  0  0  0  0
    5.0821    7.9963   19.5715 C   0  0  0  0  0  0  0  0  0  0  0  0
    5.9521    8.7503   20.2945 O   0  0  0  0  0  0  0  0  0  0  0  0
    5.3379    9.8403   20.9294 C   0  0  0  0  0  0  0  0  0  0  0  0
    4.9018   10.7299   19.8200 C   0  0  0  0  0  0  0  0  0  0  0  0
    2.1615    1.2376   16.1675 N   0  0  0  0  0  0  0  0  0  0  0  0
    1.4660    0.5257   16.2631 H   0  0  0  0  0  0  0  0  0  0  0  0
    3.9456    1.1950   19.2684 C   0  0  0  0  0  0  0  0  0  0  0  0
    3.2397    0.7309   18.2516 C   0  0  0  0  0  0  0  0  0  0  0  0
    3.2378    1.4816   17.0611 C   0  0  0  0  0  0  0  0  0  0  0  0
    3.9912    2.6213   17.0025 C   0  0  0  0  0  0  0  0  0  0  0  0
    4.7265    3.0983   18.0553 C   0  0  0  0  0  0  0  0  0  0  0  0
    4.6793    2.3358   19.2516 C   0  0  0  0  0  0  0  0  0  0  0  0
    5.2075    0.7416   21.1942 N   0  0  0  0  0  0  0  0  0  0  0  0
    4.0508    0.4536   20.6259 C   0  0  0  0  0  0  0  0  0  0  0  0
    3.0413   -0.1848   20.8526 O   0  0  0  0  0  0  0  0  0  0  0  0
    5.1736   -0.4428   21.9169 H   0  0  0  0  0  0  0  0  0  0  0  0
    6.2143    2.3182   22.3546 C   0  0  0  0  0  0  0  0  0  0  0  0
    6.3380    1.0083   21.7746 O   0  0  0  0  0  0  0  0  0  0  0  0
    5.4310    4.3995   18.0116 C   0  0  0  0  0  0  0  0  0  0  0  0
    5.9525    4.7967   19.2153 F   0  0  0  0  0  0  0  0  0  0  0  0
    4.3591    5.3183   17.7794 F   0  0  0  0  0  0  0  0  0  0  0  0
    6.2620    4.5764   16.9618 F   0  0  0  0  0  0  0  0  0  0  0  0
 42 43  1  0  0  0
 43 38  1  0  0  0
 38 39  1  0  0  0
 39 40  2  0  0  0
 39 32  1  0  0  0
 32 33  2  0  0  0
 33 34  1  0  0  0
 34 30  1  0  0  0
 30  1  1  0  0  0
  1  2  2  0  0  0
  2  3  1  0  0  0
  3  4  2  0  0  0
  4  5  1  0  0  0
  5  6  2  0  0  0
  5  7  1  0  0  0
  7  8  2  0  0  0
  8  9  1  0  0  0
  9 10  2  0  0  0
 10 13  1  0  0  0
 13 14  1  0  0  0
 14 15  2  0  0  0
 14 17  1  0  0  0
 17 18  1  0  0  0
 18 19  1  0  0  0
 17 20  1  0  0  0
 20 21  2  0  0  0
 20 22  1  0  0  0
 22 24  1  0  0  0
 24 25  1  0  0  0
 25 26  1  0  0  0
 26 27  1  0  0  0
 27 28  1  0  0  0
 28 29  1  0  0  0
 10 11  1  0  0  0
 11 12  2  0  0  0
 34 35  2  0  0  0
 35 36  1  0  0  0
 36 37  2  0  0  0
 36 44  1  0  0  0
 44 45  1  0  0  0
 44 46  1  0  0  0
 44 47  1  0  0  0
 37 32  1  0  0  0
  6  1  1  0  0  0
 12  7  1  0  0  0
 19 17  1  0  0  0
 29 24  1  0  0  0
 38 41  1  0  0  0
 30 31  1  0  0  0
 13 16  1  0  0  0
 22 23  1  0  0  0
M  END
> <minimizedAffinity>
-9.91921

> <CNNscore>
0.3336280882

> <CNNaffinity>
6.9346046448

> <CNN_VS>
2.3135788441

> <CNNaffinity_variance>
0.1854060143

$$$$
[H]c1nc(N([H])c2c([H])c(C(=O)N([H])OC([H])([H])[H])c([H])c(C(F)(F)F)c2[H])nc(-c2c([H])c([H])c(N([H])C(=O)C3(C(=O)N([H])C4([H])C([H])([H])C([H])([H])OC([H])([H])C4([H])[H])C([H])([H])C3([H])[H])c([H])c2[H])c1[H]


 47 51  0  0  0  0  0  0  0  0999 V2000
    2.9281    2.0370   15.3933 C   0  0  0  0  0  0  0  0  0  0  0  0
    2.1767    1.4925   14.3636 N   0  0  0  0  0  0  0  0  0  0  0  0
    1.5339    2.4045   13.4977 C   0  0  0  0  0  0  0  0  0  0  0  0
    1.6446    3.6860   13.6926 C   0  0  0  0  0  0  0  0  0  0  0  0
    2.4226    4.2328   14.7358 C   0  0  0  0  0  0  0  0  0  0  0  0
    3.0437    3.3195   15.5338 N   0  0  0  0  0  0  0  0  0  0  0  0
    2.6278    5.6439   14.7726 C   0  0  0  0  0  0  0  0  0  0  0  0
    3.6690    6.2309   15.4783 C   0  0  0  0  0  0  0  0  0  0  0  0
    3.8238    7.6128   15.4199 C   0  0  0  0  0  0  0  0  0  0  0  0
    2.9470    8.3443   14.6350 C   0  0  0  0  0  0  0  0  0  0  0  0
    1.9270    7.8118   13.9327 C   0  0  0  0  0  0  0  0  0  0  0  0
    1.7582    6.4442   14.0159 C   0  0  0  0  0  0  0  0  0  0  0  0
    2.8601    9.7433   14.9955 N   0  0  0  0  0  0  0  0  0  0  0  0
    3.8216   10.6931   14.7314 C   0  0  0  0  0  0  0  0  0  0  0  0
    4.7386   10.7941   13.9695 O   0  0  0  0  0  0  0  0  0  0  0  0
    1.8796   10.0848   15.2464 H   0  0  0  0  0  0  0  0  0  0  0  0
    3.5823   11.8217   15.7712 C   0  0  0  0  0  0  0  0  0  0  0  0
    2.4707   12.6537   15.0805 C   0  0  0  0  0  0  0  0  0  0  0  0
    3.8092   13.2124   15.3391 C   0  0  0  0  0  0  0  0  0  0  0  0
    3.0786   11.4733   17.1171 C   0  0  0  0  0  0  0  0  0  0  0  0
    1.9390   11.6954   17.4898 O   0  0  0  0  0  0  0  0  0  0  0  0
    4.1249   10.9407   17.8901 N   0  0  0  0  0  0  0  0  0  0  0  0
    4.9029   10.4351   17.2877 H   0  0  0  0  0  0  0  0  0  0  0  0
    4.2889   10.6941   19.2794 C   0  0  0  0  0  0  0  0  0  0  0  0
    3.7858    9.2787   19.5063 C   0  0  0  0  0  0  0  0  0  0  0  0
    4.7483    8.1969   19.7335 C   0  0  0  0  0  0  0  0  0  0  0  0
    6.0335    8.5138   20.0433 O   0  0  0  0  0  0  0  0  0  0  0  0
    6.1714    9.8147   20.5504 C   0  0  0  0  0  0  0  0  0  0  0  0
    5.8294   10.7056   19.4096 C   0  0  0  0  0  0  0  0  0  0  0  0
    3.6251    1.0883   16.2545 N   0  0  0  0  0  0  0  0  0  0  0  0
    4.0336    0.2284   15.9488 H   0  0  0  0  0  0  0  0  0  0  0  0
    4.7590    3.1602   18.9418 C   0  0  0  0  0  0  0  0  0  0  0  0
    4.3337    2.8435   17.7308 C   0  0  0  0  0  0  0  0  0  0  0  0
    3.6685    1.6133   17.5731 C   0  0  0  0  0  0  0  0  0  0  0  0
    3.4613    0.8329   18.6768 C   0  0  0  0  0  0  0  0  0  0  0  0
    3.8979    1.1648   19.9321 C   0  0  0  0  0  0  0  0  0  0  0  0
    4.5950    2.3956   20.0501 C   0  0  0  0  0  0  0  0  0  0  0  0
    5.4343    4.7253   20.5545 N   0  0  0  0  0  0  0  0  0  0  0  0
    5.4840    4.4943   19.2553 C   0  0  0  0  0  0  0  0  0  0  0  0
    5.9449    4.9874   18.2442 O   0  0  0  0  0  0  0  0  0  0  0  0
    5.5765    6.0892   20.3408 H   0  0  0  0  0  0  0  0  0  0  0  0
    4.0492    5.3539   22.1459 C   0  0  0  0  0  0  0  0  0  0  0  0
    5.3998    4.9763   21.8281 O   0  0  0  0  0  0  0  0  0  0  0  0
    3.7759    0.2475   21.0876 C   0  0  0  0  0  0  0  0  0  0  0  0
    3.5284    0.8760   22.2802 F   0  0  0  0  0  0  0  0  0  0  0  0
    5.1119   -0.2451   21.2273 F   0  0  0  0  0  0  0  0  0  0  0  0
    3.0280   -0.8572   20.8772 F   0  0  0  0  0  0  0  0  0  0  0  0
 42 43  1  0  0  0
 43 38  1  0  0  0
 38 39  1  0  0  0
 39 40  2  0  0  0
 39 32  1  0  0  0
 32 33  2  0  0  0
 33 34  1  0  0  0
 34 30  1  0  0  0
 30  1  1  0  0  0
  1  2  2  0  0  0
  2  3  1  0  0  0
  3  4  2  0  0  0
  4  5  1  0  0  0
  5  6  2  0  0  0
  5  7  1  0  0  0
  7  8  2  0  0  0
  8  9  1  0  0  0
  9 10  2  0  0  0
 10 13  1  0  0  0
 13 14  1  0  0  0
 14 15  2  0  0  0
 14 17  1  0  0  0
 17 18  1  0  0  0
 18 19  1  0  0  0
 17 20  1  0  0  0
 20 21  2  0  0  0
 20 22  1  0  0  0
 22 24  1  0  0  0
 24 25  1  0  0  0
 25 26  1  0  0  0
 26 27  1  0  0  0
 27 28  1  0  0  0
 28 29  1  0  0  0
 10 11  1  0  0  0
 11 12  2  0  0  0
 34 35  2  0  0  0
 35 36  1  0  0  0
 36 37  2  0  0  0
 36 44  1  0  0  0
 44 45  1  0  0  0
 44 46  1  0  0  0
 44 47  1  0  0  0
 37 32  1  0  0  0
  6  1  1  0  0  0
 12  7  1  0  0  0
 19 17  1  0  0  0
 29 24  1  0  0  0
 38 41  1  0  0  0
 30 31  1  0  0  0
 13 16  1  0  0  0
 22 23  1  0  0  0
M  END
> <minimizedAffinity>
-9.84568

> <CNNscore>
0.3102239966

> <CNNaffinity>
7.1054749489

> <CNN_VS>
2.2042887211

> <CNNaffinity_variance>
0.1603668332

$$$$
[H]c1nc(N([H])c2c([H])c(C(=O)N([H])OC([H])([H])[H])c([H])c(C(F)(F)F)c2[H])nc(-c2c([H])c([H])c(N([H])C(=O)C3(C(=O)N([H])C4([H])C([H])([H])C([H])([H])OC([H])([H])C4([H])[H])C([H])([H])C3([H])[H])c([H])c2[H])c1[H]


 47 51  0  0  0  0  0  0  0  0999 V2000
    4.2070    1.4738   17.9210 C   0  0  0  0  0  0  0  0  0  0  0  0
    3.2357    0.4910   18.0304 N   0  0  0  0  0  0  0  0  0  0  0  0
    2.2603    0.4481   17.0099 C   0  0  0  0  0  0  0  0  0  0  0  0
    2.2868    1.3124   16.0379 C   0  0  0  0  0  0  0  0  0  0  0  0
    3.2873    2.3020   15.9267 C   0  0  0  0  0  0  0  0  0  0  0  0
    4.2212    2.2943   16.9189 N   0  0  0  0  0  0  0  0  0  0  0  0
    3.3398    3.0956   14.7425 C   0  0  0  0  0  0  0  0  0  0  0  0
    3.0002    2.5977   13.4920 C   0  0  0  0  0  0  0  0  0  0  0  0
    3.0333    3.4559   12.3969 C   0  0  0  0  0  0  0  0  0  0  0  0
    3.3773    4.7818   12.6052 C   0  0  0  0  0  0  0  0  0  0  0  0
    3.7095    5.3038   13.8029 C   0  0  0  0  0  0  0  0  0  0  0  0
    3.7041    4.4435   14.8824 C   0  0  0  0  0  0  0  0  0  0  0  0
    3.8507    5.4614   11.4183 N   0  0  0  0  0  0  0  0  0  0  0  0
    3.0567    5.8892   10.3776 C   0  0  0  0  0  0  0  0  0  0  0  0
    1.8939    6.1294   10.2308 O   0  0  0  0  0  0  0  0  0  0  0  0
    4.8339    5.8720   11.4951 H   0  0  0  0  0  0  0  0  0  0  0  0
    4.0050    5.9936    9.1521 C   0  0  0  0  0  0  0  0  0  0  0  0
    4.1529    7.5297    9.0000 C   0  0  0  0  0  0  0  0  0  0  0  0
    3.5107    6.7066    7.9606 C   0  0  0  0  0  0  0  0  0  0  0  0
    5.3736    5.4416    9.2445 C   0  0  0  0  0  0  0  0  0  0  0  0
    6.2525    5.9280    9.9357 O   0  0  0  0  0  0  0  0  0  0  0  0
    5.5043    4.3522    8.3658 N   0  0  0  0  0  0  0  0  0  0  0  0
    4.5522    3.8201    8.1810 H   0  0  0  0  0  0  0  0  0  0  0  0
    6.6185    3.6353    7.8532 C   0  0  0  0  0  0  0  0  0  0  0  0
    6.8382    2.4787    8.8134 C   0  0  0  0  0  0  0  0  0  0  0  0
    6.4472    1.1236    8.4144 C   0  0  0  0  0  0  0  0  0  0  0  0
    6.1879    0.8724    7.1038 O   0  0  0  0  0  0  0  0  0  0  0  0
    6.7626    1.8165    6.2396 C   0  0  0  0  0  0  0  0  0  0  0  0
    6.0415    3.0848    6.5288 C   0  0  0  0  0  0  0  0  0  0  0  0
    5.2361    1.4812   18.9547 N   0  0  0  0  0  0  0  0  0  0  0  0
    6.0867    0.9567   18.9217 H   0  0  0  0  0  0  0  0  0  0  0  0
    5.1198    4.5804   20.7384 C   0  0  0  0  0  0  0  0  0  0  0  0
    5.0637    3.7539   19.7082 C   0  0  0  0  0  0  0  0  0  0  0  0
    4.8515    2.3888   19.9769 C   0  0  0  0  0  0  0  0  0  0  0  0
    4.6752    1.9948   21.2745 C   0  0  0  0  0  0  0  0  0  0  0  0
    4.7284    2.8532   22.3407 C   0  0  0  0  0  0  0  0  0  0  0  0
    4.9780    4.2172   22.0376 C   0  0  0  0  0  0  0  0  0  0  0  0
    4.4977    6.5681   19.6574 N   0  0  0  0  0  0  0  0  0  0  0  0
    5.3246    6.1089   20.5789 C   0  0  0  0  0  0  0  0  0  0  0  0
    6.1677    6.5184   21.3532 O   0  0  0  0  0  0  0  0  0  0  0  0
    5.3385    7.6432   19.4057 H   0  0  0  0  0  0  0  0  0  0  0  0
    3.7915    8.4785   18.8221 C   0  0  0  0  0  0  0  0  0  0  0  0
    3.6949    7.0455   18.7553 O   0  0  0  0  0  0  0  0  0  0  0  0
    4.6628    2.3870   23.7442 C   0  0  0  0  0  0  0  0  0  0  0  0
    3.8945    1.2671   23.9289 F   0  0  0  0  0  0  0  0  0  0  0  0
    3.9126    3.4287   24.3761 F   0  0  0  0  0  0  0  0  0  0  0  0
    5.8396    2.3677   24.4066 F   0  0  0  0  0  0  0  0  0  0  0  0
 42 43  1  0  0  0
 43 38  1  0  0  0
 38 39  1  0  0  0
 39 40  2  0  0  0
 39 32  1  0  0  0
 32 33  2  0  0  0
 33 34  1  0  0  0
 34 30  1  0  0  0
 30  1  1  0  0  0
  1  2  2  0  0  0
  2  3  1  0  0  0
  3  4  2  0  0  0
  4  5  1  0  0  0
  5  6  2  0  0  0
  5  7  1  0  0  0
  7  8  2  0  0  0
  8  9  1  0  0  0
  9 10  2  0  0  0
 10 13  1  0  0  0
 13 14  1  0  0  0
 14 15  2  0  0  0
 14 17  1  0  0  0
 17 18  1  0  0  0
 18 19  1  0  0  0
 17 20  1  0  0  0
 20 21  2  0  0  0
 20 22  1  0  0  0
 22 24  1  0  0  0
 24 25  1  0  0  0
 25 26  1  0  0  0
 26 27  1  0  0  0
 27 28  1  0  0  0
 28 29  1  0  0  0
 10 11  1  0  0  0
 11 12  2  0  0  0
 34 35  2  0  0  0
 35 36  1  0  0  0
 36 37  2  0  0  0
 36 44  1  0  0  0
 44 45  1  0  0  0
 44 46  1  0  0  0
 44 47  1  0  0  0
 37 32  1  0  0  0
  6  1  1  0  0  0
 12  7  1  0  0  0
 19 17  1  0  0  0
 29 24  1  0  0  0
 38 41  1  0  0  0
 30 31  1  0  0  0
 13 16  1  0  0  0
 22 23  1  0  0  0
M  END
> <minimizedAffinity>
-8.24471

> <CNNscore>
0.3071030080

> <CNNaffinity>
6.7967352867

> <CNN_VS>
2.0872979164

> <CNNaffinity_variance>
0.3631393313

$$$$
[H]c1nc(N([H])c2c([H])c(C(=O)N([H])OC([H])([H])[H])c([H])c(C(F)(F)F)c2[H])nc(-c2c([H])c([H])c(N([H])C(=O)C3(C(=O)N([H])C4([H])C([H])([H])C([H])([H])OC([H])([H])C4([H])[H])C([H])([H])C3([H])[H])c([H])c2[H])c1[H]


 47 51  0  0  0  0  0  0  0  0999 V2000
    4.0894    6.9351   19.3922 C   0  0  0  0  0  0  0  0  0  0  0  0
    4.7600    7.9986   19.9760 N   0  0  0  0  0  0  0  0  0  0  0  0
    5.1818    9.0328   19.1115 C   0  0  0  0  0  0  0  0  0  0  0  0
    4.9546    8.9550   17.8330 C   0  0  0  0  0  0  0  0  0  0  0  0
    4.2592    7.8747   17.2480 C   0  0  0  0  0  0  0  0  0  0  0  0
    3.8503    6.9103   18.1194 N   0  0  0  0  0  0  0  0  0  0  0  0
    3.9043    7.9526   15.8686 C   0  0  0  0  0  0  0  0  0  0  0  0
    3.5737    6.8339   15.1163 C   0  0  0  0  0  0  0  0  0  0  0  0
    3.1923    7.0069   13.7891 C   0  0  0  0  0  0  0  0  0  0  0  0
    3.1310    8.2944   13.2805 C   0  0  0  0  0  0  0  0  0  0  0  0
    3.4400    9.4052   13.9790 C   0  0  0  0  0  0  0  0  0  0  0  0
    3.8461    9.2281   15.2864 C   0  0  0  0  0  0  0  0  0  0  0  0
    3.2073    8.3621   11.8368 N   0  0  0  0  0  0  0  0  0  0  0  0
    2.1770    8.0674   10.9719 C   0  0  0  0  0  0  0  0  0  0  0  0
    0.9855    7.9948   11.0531 O   0  0  0  0  0  0  0  0  0  0  0  0
    4.0333    8.9209   11.4542 H   0  0  0  0  0  0  0  0  0  0  0  0
    2.8604    7.7105    9.6237 C   0  0  0  0  0  0  0  0  0  0  0  0
    2.0633    6.4524    9.1915 C   0  0  0  0  0  0  0  0  0  0  0  0
    3.5007    6.3880    9.5078 C   0  0  0  0  0  0  0  0  0  0  0  0
    2.7886    8.6669    8.4983 C   0  0  0  0  0  0  0  0  0  0  0  0
    1.9304    9.5271    8.3971 O   0  0  0  0  0  0  0  0  0  0  0  0
    3.7915    8.3684    7.5597 N   0  0  0  0  0  0  0  0  0  0  0  0
    4.6820    7.8873    8.0060 H   0  0  0  0  0  0  0  0  0  0  0  0
    4.0215    8.7606    6.2138 C   0  0  0  0  0  0  0  0  0  0  0  0
    4.8682   10.0194    6.2931 C   0  0  0  0  0  0  0  0  0  0  0  0
    6.2957    9.9523    5.9674 C   0  0  0  0  0  0  0  0  0  0  0  0
    6.7705    8.8601    5.3119 O   0  0  0  0  0  0  0  0  0  0  0  0
    5.7699    8.1497    4.6319 C   0  0  0  0  0  0  0  0  0  0  0  0
    4.9013    7.5957    5.7047 C   0  0  0  0  0  0  0  0  0  0  0  0
    3.6177    5.8944   20.2987 N   0  0  0  0  0  0  0  0  0  0  0  0
    2.8922    6.0096   20.9771 H   0  0  0  0  0  0  0  0  0  0  0  0
    4.1490    2.6247   18.9471 C   0  0  0  0  0  0  0  0  0  0  0  0
    3.8096    3.9021   18.9734 C   0  0  0  0  0  0  0  0  0  0  0  0
    4.3200    4.6921   20.0205 C   0  0  0  0  0  0  0  0  0  0  0  0
    5.1658    4.1143   20.9264 C   0  0  0  0  0  0  0  0  0  0  0  0
    5.5209    2.7916   20.8949 C   0  0  0  0  0  0  0  0  0  0  0  0
    4.9616    2.0155   19.8463 C   0  0  0  0  0  0  0  0  0  0  0  0
    3.7925    2.2403   16.6598 N   0  0  0  0  0  0  0  0  0  0  0  0
    3.6752    1.6524   17.8364 C   0  0  0  0  0  0  0  0  0  0  0  0
    3.3406    0.5829   18.3077 O   0  0  0  0  0  0  0  0  0  0  0  0
    2.8070    1.4214   16.1264 H   0  0  0  0  0  0  0  0  0  0  0  0
    2.5640    3.0960   15.0459 C   0  0  0  0  0  0  0  0  0  0  0  0
    3.8979    2.7953   15.4906 O   0  0  0  0  0  0  0  0  0  0  0  0
    6.3341    2.1584   21.9575 C   0  0  0  0  0  0  0  0  0  0  0  0
    5.6061    1.7025   23.0256 F   0  0  0  0  0  0  0  0  0  0  0  0
    7.0635    3.2701   22.4858 F   0  0  0  0  0  0  0  0  0  0  0  0
    7.2862    1.3017   21.5291 F   0  0  0  0  0  0  0  0  0  0  0  0
 42 43  1  0  0  0
 43 38  1  0  0  0
 38 39  1  0  0  0
 39 40  2  0  0  0
 39 32  1  0  0  0
 32 33  2  0  0  0
 33 34  1  0  0  0
 34 30  1  0  0  0
 30  1  1  0  0  0
  1  2  2  0  0  0
  2  3  1  0  0  0
  3  4  2  0  0  0
  4  5  1  0  0  0
  5  6  2  0  0  0
  5  7  1  0  0  0
  7  8  2  0  0  0
  8  9  1  0  0  0
  9 10  2  0  0  0
 10 13  1  0  0  0
 13 14  1  0  0  0
 14 15  2  0  0  0
 14 17  1  0  0  0
 17 18  1  0  0  0
 18 19  1  0  0  0
 17 20  1  0  0  0
 20 21  2  0  0  0
 20 22  1  0  0  0
 22 24  1  0  0  0
 24 25  1  0  0  0
 25 26  1  0  0  0
 26 27  1  0  0  0
 27 28  1  0  0  0
 28 29  1  0  0  0
 10 11  1  0  0  0
 11 12  2  0  0  0
 34 35  2  0  0  0
 35 36  1  0  0  0
 36 37  2  0  0  0
 36 44  1  0  0  0
 44 45  1  0  0  0
 44 46  1  0  0  0
 44 47  1  0  0  0
 37 32  1  0  0  0
  6  1  1  0  0  0
 12  7  1  0  0  0
 19 17  1  0  0  0
 29 24  1  0  0  0
 38 41  1  0  0  0
 30 31  1  0  0  0
 13 16  1  0  0  0
 22 23  1  0  0  0
M  END
> <minimizedAffinity>
-9.44767

> <CNNscore>
0.2241260111

> <CNNaffinity>
5.9721441269

> <CNN_VS>
1.3385128975

> <CNNaffinity_variance>
0.5046166778

$$$$
[H]c1nc(N([H])c2c([H])c(C(=O)N([H])OC([H])([H])[H])c([H])c(C(F)(F)F)c2[H])nc(-c2c([H])c([H])c(N([H])C(=O)C3(C(=O)N([H])C4([H])C([H])([H])C([H])([H])OC([H])([H])C4([H])[H])C([H])([H])C3([H])[H])c([H])c2[H])c1[H]


 47 51  0  0  0  0  0  0  0  0999 V2000
    5.6094    4.3632   22.1777 C   0  0  0  0  0  0  0  0  0  0  0  0
    5.8697    3.1506   22.7967 N   0  0  0  0  0  0  0  0  0  0  0  0
    5.7359    1.9915   22.0008 C   0  0  0  0  0  0  0  0  0  0  0  0
    5.3673    2.0868   20.7568 C   0  0  0  0  0  0  0  0  0  0  0  0
    5.1170    3.3267   20.1301 C   0  0  0  0  0  0  0  0  0  0  0  0
    5.2793    4.4203   20.9264 N   0  0  0  0  0  0  0  0  0  0  0  0
    4.8860    3.3506   18.7227 C   0  0  0  0  0  0  0  0  0  0  0  0
    5.4221    4.3253   17.8925 C   0  0  0  0  0  0  0  0  0  0  0  0
    5.1855    4.2446   16.5234 C   0  0  0  0  0  0  0  0  0  0  0  0
    4.4465    3.1762   16.0414 C   0  0  0  0  0  0  0  0  0  0  0  0
    3.9127    2.2087   16.8136 C   0  0  0  0  0  0  0  0  0  0  0  0
    4.1244    2.3074   18.1741 C   0  0  0  0  0  0  0  0  0  0  0  0
    3.8494    3.4102   14.7439 N   0  0  0  0  0  0  0  0  0  0  0  0
    2.6180    3.9878   14.5284 C   0  0  0  0  0  0  0  0  0  0  0  0
    1.8765    4.6832   15.1592 O   0  0  0  0  0  0  0  0  0  0  0  0
    4.5273    3.3624   13.9198 H   0  0  0  0  0  0  0  0  0  0  0  0
    2.1742    3.4988   13.1227 C   0  0  0  0  0  0  0  0  0  0  0  0
    1.1025    2.4377   13.4838 C   0  0  0  0  0  0  0  0  0  0  0  0
    2.3567    2.0715   12.8033 C   0  0  0  0  0  0  0  0  0  0  0  0
    1.5324    4.4519   12.1921 C   0  0  0  0  0  0  0  0  0  0  0  0
    1.9168    4.6437   11.0509 O   0  0  0  0  0  0  0  0  0  0  0  0
    0.4964    5.1336   12.8537 N   0  0  0  0  0  0  0  0  0  0  0  0
    0.0382    4.5483   13.6730 H   0  0  0  0  0  0  0  0  0  0  0  0
   -0.2543    6.3022   12.5553 C   0  0  0  0  0  0  0  0  0  0  0  0
   -1.0994    5.9477   11.3437 C   0  0  0  0  0  0  0  0  0  0  0  0
   -2.5347    5.7017   11.5102 C   0  0  0  0  0  0  0  0  0  0  0  0
   -3.1394    6.0899   12.6643 O   0  0  0  0  0  0  0  0  0  0  0  0
   -2.4204    7.0762   13.3562 C   0  0  0  0  0  0  0  0  0  0  0  0
   -1.1718    6.3981   13.7959 C   0  0  0  0  0  0  0  0  0  0  0  0
    5.7946    5.5571   22.9947 N   0  0  0  0  0  0  0  0  0  0  0  0
    5.3346    5.7344   23.8646 H   0  0  0  0  0  0  0  0  0  0  0  0
    7.1545    7.7696   20.5338 C   0  0  0  0  0  0  0  0  0  0  0  0
    6.2867    7.2904   21.4085 C   0  0  0  0  0  0  0  0  0  0  0  0
    6.7659    6.3885   22.3770 C   0  0  0  0  0  0  0  0  0  0  0  0
    8.0996    6.0870   22.3902 C   0  0  0  0  0  0  0  0  0  0  0  0
    8.9987    6.5884   21.4865 C   0  0  0  0  0  0  0  0  0  0  0  0
    8.4766    7.4680   20.5024 C   0  0  0  0  0  0  0  0  0  0  0  0
    5.6336    9.3850   19.7697 N   0  0  0  0  0  0  0  0  0  0  0  0
    6.7618    8.7874   19.4323 C   0  0  0  0  0  0  0  0  0  0  0  0
    7.5933    8.8119   18.5458 O   0  0  0  0  0  0  0  0  0  0  0  0
    5.3536    9.6592   18.4384 H   0  0  0  0  0  0  0  0  0  0  0  0
    3.5751    9.6744   19.0452 C   0  0  0  0  0  0  0  0  0  0  0  0
    4.5254    9.9876   20.0779 O   0  0  0  0  0  0  0  0  0  0  0  0
   10.4118    6.1498   21.4398 C   0  0  0  0  0  0  0  0  0  0  0  0
   11.3015    7.0671   21.9355 F   0  0  0  0  0  0  0  0  0  0  0  0
   10.6791    6.1338   20.0342 F   0  0  0  0  0  0  0  0  0  0  0  0
   10.6410    4.8812   21.8424 F   0  0  0  0  0  0  0  0  0  0  0  0
 42 43  1  0  0  0
 43 38  1  0  0  0
 38 39  1  0  0  0
 39 40  2  0  0  0
 39 32  1  0  0  0
 32 33  2  0  0  0
 33 34  1  0  0  0
 34 30  1  0  0  0
 30  1  1  0  0  0
  1  2  2  0  0  0
  2  3  1  0  0  0
  3  4  2  0  0  0
  4  5  1  0  0  0
  5  6  2  0  0  0
  5  7  1  0  0  0
  7  8  2  0  0  0
  8  9  1  0  0  0
  9 10  2  0  0  0
 10 13  1  0  0  0
 13 14  1  0  0  0
 14 15  2  0  0  0
 14 17  1  0  0  0
 17 18  1  0  0  0
 18 19  1  0  0  0
 17 20  1  0  0  0
 20 21  2  0  0  0
 20 22  1  0  0  0
 22 24  1  0  0  0
 24 25  1  0  0  0
 25 26  1  0  0  0
 26 27  1  0  0  0
 27 28  1  0  0  0
 28 29  1  0  0  0
 10 11  1  0  0  0
 11 12  2  0  0  0
 34 35  2  0  0  0
 35 36  1  0  0  0
 36 37  2  0  0  0
 36 44  1  0  0  0
 44 45  1  0  0  0
 44 46  1  0  0  0
 44 47  1  0  0  0
 37 32  1  0  0  0
  6  1  1  0  0  0
 12  7  1  0  0  0
 19 17  1  0  0  0
 29 24  1  0  0  0
 38 41  1  0  0  0
 30 31  1  0  0  0
 13 16  1  0  0  0
 22 23  1  0  0  0
M  END
> <minimizedAffinity>
-9.50070

> <CNNscore>
0.2218187600

> <CNNaffinity>
6.7984032631

> <CNN_VS>
1.5080133677

> <CNNaffinity_variance>
0.1552050561

$$$$
[H]c1nc(N([H])c2c([H])c(C(=O)N3C([H])([H])c4nc(N([H])C5([H])C([H])([H])C([H])([H])N(C([H])([H])[H])C([H])([H])C5([H])[H])c([H])c([H])c4C([H])([H])C3([H])[H])c([H])c([H])c2C([H])([H])[H])nc(-c2c([H])nc([H])c([H])c2[H])c1[H]


 42 47  0  0  0  0  0  0  0  0999 V2000
    5.6109    4.2561   22.4621 C   0  0  0  0  0  0  0  0  0  0  0  0
    5.8850    3.1122   23.1640 C   0  0  0  0  0  0  0  0  0  0  0  0
    5.7008    1.8832   22.5665 C   0  0  0  0  0  0  0  0  0  0  0  0
    5.2488    1.8242   21.2884 C   0  0  0  0  0  0  0  0  0  0  0  0
    4.9943    0.4941   20.6041 C   0  0  0  0  0  0  0  0  0  0  0  0
    3.7063    0.6703   19.8129 C   0  0  0  0  0  0  0  0  0  0  0  0
    3.8956    1.7071   18.7532 N   0  0  0  0  0  0  0  0  0  0  0  0
    4.5116    2.9020   19.1816 C   0  0  0  0  0  0  0  0  0  0  0  0
    4.9736    2.9613   20.5812 C   0  0  0  0  0  0  0  0  0  0  0  0
    5.1655    4.1512   21.1979 N   0  0  0  0  0  0  0  0  0  0  0  0
    3.4316    1.3158   17.5020 C   0  0  0  0  0  0  0  0  0  0  0  0
    2.9292    0.1088   17.4885 O   0  0  0  0  0  0  0  0  0  0  0  0
    3.4286    2.0406   16.2470 C   0  0  0  0  0  0  0  0  0  0  0  0
    3.0873    1.5520   15.0186 C   0  0  0  0  0  0  0  0  0  0  0  0
    3.1200    2.3637   13.8717 C   0  0  0  0  0  0  0  0  0  0  0  0
    3.4894    3.6728   13.9108 C   0  0  0  0  0  0  0  0  0  0  0  0
    3.5120    4.4908   12.6543 C   0  0  0  0  0  0  0  0  0  0  0  0
    3.8480    4.2160   15.1532 C   0  0  0  0  0  0  0  0  0  0  0  0
    3.8096    3.4077   16.2611 C   0  0  0  0  0  0  0  0  0  0  0  0
    4.2197    5.5644   15.1652 N   0  0  0  0  0  0  0  0  0  0  0  0
    4.4130    5.9856   14.1829 H   0  0  0  0  0  0  0  0  0  0  0  0
    4.3829    6.4601   16.2307 C   0  0  0  0  0  0  0  0  0  0  0  0
    3.5153    6.3244   17.2823 N   0  0  0  0  0  0  0  0  0  0  0  0
    3.5315    7.0911   18.3683 C   0  0  0  0  0  0  0  0  0  0  0  0
    4.4770    8.0913   18.4564 C   0  0  0  0  0  0  0  0  0  0  0  0
    5.3587    8.2449   17.4108 C   0  0  0  0  0  0  0  0  0  0  0  0
    5.2711    7.4243   16.3493 N   0  0  0  0  0  0  0  0  0  0  0  0
    6.3722    9.2977   17.4769 C   0  0  0  0  0  0  0  0  0  0  0  0
    6.3328   10.2542   18.4966 C   0  0  0  0  0  0  0  0  0  0  0  0
    7.2737   11.2538   18.5889 C   0  0  0  0  0  0  0  0  0  0  0  0
    8.2934   11.3365   17.6625 C   0  0  0  0  0  0  0  0  0  0  0  0
    8.3090   10.4078   16.6940 N   0  0  0  0  0  0  0  0  0  0  0  0
    7.3942    9.4165   16.5847 C   0  0  0  0  0  0  0  0  0  0  0  0
    5.8000    5.5603   23.0419 N   0  0  0  0  0  0  0  0  0  0  0  0
    5.2946    5.8024   23.9145 H   0  0  0  0  0  0  0  0  0  0  0  0
   10.3278    8.4862   22.1684 C   0  0  0  0  0  0  0  0  0  0  0  0
    8.9218    8.2039   21.9639 N   0  0  0  0  0  0  0  0  0  0  0  0
    8.2753    8.2188   23.2636 C   0  0  0  0  0  0  0  0  0  0  0  0
    6.8146    7.7972   23.1445 C   0  0  0  0  0  0  0  0  0  0  0  0
    6.6702    6.4982   22.4204 C   0  0  0  0  0  0  0  0  0  0  0  0
    8.0671    5.9201   22.2118 C   0  0  0  0  0  0  0  0  0  0  0  0
    8.8233    6.8979   21.3383 C   0  0  0  0  0  0  0  0  0  0  0  0
 36 37  1  0  0  0
 37 38  1  0  0  0
 38 39  1  0  0  0
 39 40  1  0  0  0
 40 41  1  0  0  0
 41 42  1  0  0  0
 40 34  1  0  0  0
 34  1  1  0  0  0
  1  2  2  0  0  0
  2  3  1  0  0  0
  3  4  2  0  0  0
  4  5  1  0  0  0
  5  6  1  0  0  0
  6  7  1  0  0  0
  7  8  1  0  0  0
  8  9  1  0  0  0
  9 10  2  0  0  0
  7 11  1  0  0  0
 11 12  2  0  0  0
 11 13  1  0  0  0
 13 14  2  0  0  0
 14 15  1  0  0  0
 15 16  2  0  0  0
 16 17  1  0  0  0
 16 18  1  0  0  0
 18 20  1  0  0  0
 20 22  1  0  0  0
 22 23  2  0  0  0
 23 24  1  0  0  0
 24 25  2  0  0  0
 25 26  1  0  0  0
 26 27  2  0  0  0
 26 28  1  0  0  0
 28 29  2  0  0  0
 29 30  1  0  0  0
 30 31  2  0  0  0
 31 32  1  0  0  0
 32 33  2  0  0  0
 18 19  2  0  0  0
 42 37  1  0  0  0
 10  1  1  0  0  0
 19 13  1  0  0  0
  9  4  1  0  0  0
 27 22  1  0  0  0
 33 28  1  0  0  0
 34 35  1  0  0  0
 20 21  1  0  0  0
M  END
> <minimizedAffinity>
-10.16961

> <CNNscore>
0.3232313991

> <CNNaffinity>
7.2587461472

> <CNN_VS>
2.3462545872

> <CNNaffinity_variance>
0.1636763662

$$$$
[H]c1nc(N([H])c2c([H])c(C(=O)N3C([H])([H])c4nc(N([H])C5([H])C([H])([H])C([H])([H])N(C([H])([H])[H])C([H])([H])C5([H])[H])c([H])c([H])c4C([H])([H])C3([H])[H])c([H])c([H])c2C([H])([H])[H])nc(-c2c([H])nc([H])c([H])c2[H])c1[H]


 42 47  0  0  0  0  0  0  0  0999 V2000
    4.9637    7.5374   21.0861 C   0  0  0  0  0  0  0  0  0  0  0  0
    4.9319    8.9066   21.1129 C   0  0  0  0  0  0  0  0  0  0  0  0
    4.5435    9.6031   19.9880 C   0  0  0  0  0  0  0  0  0  0  0  0
    4.1981    8.9205   18.8672 C   0  0  0  0  0  0  0  0  0  0  0  0
    3.8021    9.6457   17.5946 C   0  0  0  0  0  0  0  0  0  0  0  0
    4.4479    8.8723   16.4541 C   0  0  0  0  0  0  0  0  0  0  0  0
    3.8858    7.4888   16.3924 N   0  0  0  0  0  0  0  0  0  0  0  0
    3.8224    6.8079   17.6265 C   0  0  0  0  0  0  0  0  0  0  0  0
    4.2267    7.5541   18.8329 C   0  0  0  0  0  0  0  0  0  0  0  0
    4.6127    6.9017   19.9547 N   0  0  0  0  0  0  0  0  0  0  0  0
    3.5084    7.0976   15.1124 C   0  0  0  0  0  0  0  0  0  0  0  0
    3.7056    8.0208   14.2078 O   0  0  0  0  0  0  0  0  0  0  0  0
    2.9425    5.8438   14.6562 C   0  0  0  0  0  0  0  0  0  0  0  0
    1.9310    5.6807   13.7537 C   0  0  0  0  0  0  0  0  0  0  0  0
    1.4738    4.4031   13.3877 C   0  0  0  0  0  0  0  0  0  0  0  0
    2.0031    3.2601   13.9025 C   0  0  0  0  0  0  0  0  0  0  0  0
    1.4722    1.9229   13.4804 C   0  0  0  0  0  0  0  0  0  0  0  0
    3.0452    3.3816   14.8335 C   0  0  0  0  0  0  0  0  0  0  0  0
    3.4775    4.6373   15.1780 C   0  0  0  0  0  0  0  0  0  0  0  0
    3.5732    2.1910   15.3437 N   0  0  0  0  0  0  0  0  0  0  0  0
    4.1041    1.5863   14.6142 H   0  0  0  0  0  0  0  0  0  0  0  0
    3.5322    1.6506   16.6361 C   0  0  0  0  0  0  0  0  0  0  0  0
    2.7358    0.5500   16.8140 N   0  0  0  0  0  0  0  0  0  0  0  0
    2.5830   -0.0824   17.9735 C   0  0  0  0  0  0  0  0  0  0  0  0
    3.2639    0.3879   19.0768 C   0  0  0  0  0  0  0  0  0  0  0  0
    4.0697    1.4926   18.9201 C   0  0  0  0  0  0  0  0  0  0  0  0
    4.1663    2.0711   17.7102 N   0  0  0  0  0  0  0  0  0  0  0  0
    4.8038    2.0134   20.0732 C   0  0  0  0  0  0  0  0  0  0  0  0
    5.6581    1.1803   20.8028 C   0  0  0  0  0  0  0  0  0  0  0  0
    6.3658    1.6412   21.8890 C   0  0  0  0  0  0  0  0  0  0  0  0
    6.2463    2.9565   22.2895 C   0  0  0  0  0  0  0  0  0  0  0  0
    5.4204    3.7351   21.5738 N   0  0  0  0  0  0  0  0  0  0  0  0
    4.7154    3.3028   20.5027 C   0  0  0  0  0  0  0  0  0  0  0  0
    5.3511    6.7694   22.2407 N   0  0  0  0  0  0  0  0  0  0  0  0
    4.6207    6.2742   22.7853 H   0  0  0  0  0  0  0  0  0  0  0  0
   10.5035    8.4030   23.0216 C   0  0  0  0  0  0  0  0  0  0  0  0
    9.4809    7.3816   22.9235 N   0  0  0  0  0  0  0  0  0  0  0  0
    8.8606    7.5026   21.6166 C   0  0  0  0  0  0  0  0  0  0  0  0
    7.6808    6.5449   21.4885 C   0  0  0  0  0  0  0  0  0  0  0  0
    6.7194    6.6956   22.6223 C   0  0  0  0  0  0  0  0  0  0  0  0
    7.1443    7.9132   23.4384 C   0  0  0  0  0  0  0  0  0  0  0  0
    8.5229    7.6165   23.9882 C   0  0  0  0  0  0  0  0  0  0  0  0
 36 37  1  0  0  0
 37 38  1  0  0  0
 38 39  1  0  0  0
 39 40  1  0  0  0
 40 41  1  0  0  0
 41 42  1  0  0  0
 40 34  1  0  0  0
 34  1  1  0  0  0
  1  2  2  0  0  0
  2  3  1  0  0  0
  3  4  2  0  0  0
  4  5  1  0  0  0
  5  6  1  0  0  0
  6  7  1  0  0  0
  7  8  1  0  0  0
  8  9  1  0  0  0
  9 10  2  0  0  0
  7 11  1  0  0  0
 11 12  2  0  0  0
 11 13  1  0  0  0
 13 14  2  0  0  0
 14 15  1  0  0  0
 15 16  2  0  0  0
 16 17  1  0  0  0
 16 18  1  0  0  0
 18 20  1  0  0  0
 20 22  1  0  0  0
 22 23  2  0  0  0
 23 24  1  0  0  0
 24 25  2  0  0  0
 25 26  1  0  0  0
 26 27  2  0  0  0
 26 28  1  0  0  0
 28 29  2  0  0  0
 29 30  1  0  0  0
 30 31  2  0  0  0
 31 32  1  0  0  0
 32 33  2  0  0  0
 18 19  2  0  0  0
 42 37  1  0  0  0
 10  1  1  0  0  0
 19 13  1  0  0  0
  9  4  1  0  0  0
 27 22  1  0  0  0
 33 28  1  0  0  0
 34 35  1  0  0  0
 20 21  1  0  0  0
M  END
> <minimizedAffinity>
-10.96940

> <CNNscore>
0.3137061596

> <CNNaffinity>
7.3976922035

> <CNN_VS>
2.3207015991

> <CNNaffinity_variance>
0.1604414433

$$$$
[H]c1nc(N([H])c2c([H])c(C(=O)N3C([H])([H])c4nc(N([H])C5([H])C([H])([H])C([H])([H])N(C([H])([H])[H])C([H])([H])C5([H])[H])c([H])c([H])c4C([H])([H])C3([H])[H])c([H])c([H])c2C([H])([H])[H])nc(-c2c([H])nc([H])c([H])c2[H])c1[H]


 42 47  0  0  0  0  0  0  0  0999 V2000
    5.3958    4.4888   22.3924 C   0  0  0  0  0  0  0  0  0  0  0  0
    5.7217    3.3930   23.1470 C   0  0  0  0  0  0  0  0  0  0  0  0
    5.5974    2.1303   22.6073 C   0  0  0  0  0  0  0  0  0  0  0  0
    5.1522    1.9906   21.3330 C   0  0  0  0  0  0  0  0  0  0  0  0
    4.9627    0.6195   20.7113 C   0  0  0  0  0  0  0  0  0  0  0  0
    3.6700    0.6976   19.9121 C   0  0  0  0  0  0  0  0  0  0  0  0
    3.8131    1.6918   18.8053 N   0  0  0  0  0  0  0  0  0  0  0  0
    4.3709    2.9331   19.1779 C   0  0  0  0  0  0  0  0  0  0  0  0
    4.8256    3.0793   20.5734 C   0  0  0  0  0  0  0  0  0  0  0  0
    4.9594    4.3043   21.1342 N   0  0  0  0  0  0  0  0  0  0  0  0
    3.3716    1.2212   17.5734 C   0  0  0  0  0  0  0  0  0  0  0  0
    2.9268   -0.0075   17.6159 O   0  0  0  0  0  0  0  0  0  0  0  0
    3.3379    1.8859   16.2860 C   0  0  0  0  0  0  0  0  0  0  0  0
    2.9253    1.3531   15.0985 C   0  0  0  0  0  0  0  0  0  0  0  0
    2.9351    2.1082   13.9132 C   0  0  0  0  0  0  0  0  0  0  0  0
    3.3512    3.4032   13.8728 C   0  0  0  0  0  0  0  0  0  0  0  0
    3.3462    4.1600   12.5784 C   0  0  0  0  0  0  0  0  0  0  0  0
    3.7835    3.9906   15.0710 C   0  0  0  0  0  0  0  0  0  0  0  0
    3.7665    3.2371   16.2174 C   0  0  0  0  0  0  0  0  0  0  0  0
    4.2022    5.3234   15.0015 N   0  0  0  0  0  0  0  0  0  0  0  0
    4.3260    5.7031   13.9915 H   0  0  0  0  0  0  0  0  0  0  0  0
    4.4866    6.2481   16.0155 C   0  0  0  0  0  0  0  0  0  0  0  0
    5.3604    5.8395   16.9885 N   0  0  0  0  0  0  0  0  0  0  0  0
    5.7352    6.5905   18.0196 C   0  0  0  0  0  0  0  0  0  0  0  0
    5.2200    7.8650   18.1301 C   0  0  0  0  0  0  0  0  0  0  0  0
    4.3404    8.2956   17.1631 C   0  0  0  0  0  0  0  0  0  0  0  0
    4.0154    7.4694   16.1533 N   0  0  0  0  0  0  0  0  0  0  0  0
    3.7779    9.6429   17.2547 C   0  0  0  0  0  0  0  0  0  0  0  0
    3.2008   10.0885   18.4483 C   0  0  0  0  0  0  0  0  0  0  0  0
    2.6677   11.3513   18.5678 C   0  0  0  0  0  0  0  0  0  0  0  0
    2.6905   12.2200   17.4957 C   0  0  0  0  0  0  0  0  0  0  0  0
    3.2491   11.7688   16.3620 N   0  0  0  0  0  0  0  0  0  0  0  0
    3.7791   10.5315   16.2228 C   0  0  0  0  0  0  0  0  0  0  0  0
    5.5215    5.8260   22.9109 N   0  0  0  0  0  0  0  0  0  0  0  0
    5.2490    6.0136   23.8938 H   0  0  0  0  0  0  0  0  0  0  0  0
    7.1368   10.8406   21.4719 C   0  0  0  0  0  0  0  0  0  0  0  0
    6.7259    9.4860   21.1642 N   0  0  0  0  0  0  0  0  0  0  0  0
    5.4179    9.2762   21.7579 C   0  0  0  0  0  0  0  0  0  0  0  0
    4.9754    7.8265   21.5904 C   0  0  0  0  0  0  0  0  0  0  0  0
    6.0140    6.8702   22.0800 C   0  0  0  0  0  0  0  0  0  0  0  0
    7.1047    7.6792   22.7766 C   0  0  0  0  0  0  0  0  0  0  0  0
    7.7152    8.5881   21.7316 C   0  0  0  0  0  0  0  0  0  0  0  0
 36 37  1  0  0  0
 37 38  1  0  0  0
 38 39  1  0  0  0
 39 40  1  0  0  0
 40 41  1  0  0  0
 41 42  1  0  0  0
 40 34  1  0  0  0
 34  1  1  0  0  0
  1  2  2  0  0  0
  2  3  1  0  0  0
  3  4  2  0  0  0
  4  5  1  0  0  0
  5  6  1  0  0  0
  6  7  1  0  0  0
  7  8  1  0  0  0
  8  9  1  0  0  0
  9 10  2  0  0  0
  7 11  1  0  0  0
 11 12  2  0  0  0
 11 13  1  0  0  0
 13 14  2  0  0  0
 14 15  1  0  0  0
 15 16  2  0  0  0
 16 17  1  0  0  0
 16 18  1  0  0  0
 18 20  1  0  0  0
 20 22  1  0  0  0
 22 23  2  0  0  0
 23 24  1  0  0  0
 24 25  2  0  0  0
 25 26  1  0  0  0
 26 27  2  0  0  0
 26 28  1  0  0  0
 28 29  2  0  0  0
 29 30  1  0  0  0
 30 31  2  0  0  0
 31 32  1  0  0  0
 32 33  2  0  0  0
 18 19  2  0  0  0
 42 37  1  0  0  0
 10  1  1  0  0  0
 19 13  1  0  0  0
  9  4  1  0  0  0
 27 22  1  0  0  0
 33 28  1  0  0  0
 34 35  1  0  0  0
 20 21  1  0  0  0
M  END
> <minimizedAffinity>
-11.33047

> <CNNscore>
0.2869358063

> <CNNaffinity>
7.3016748428

> <CNN_VS>
2.0951118469

> <CNNaffinity_variance>
0.2152455747

$$$$
[H]c1nc(N([H])c2c([H])c(C(=O)N3C([H])([H])c4nc(N([H])C5([H])C([H])([H])C([H])([H])N(C([H])([H])[H])C([H])([H])C5([H])[H])c([H])c([H])c4C([H])([H])C3([H])[H])c([H])c([H])c2C([H])([H])[H])nc(-c2c([H])nc([H])c([H])c2[H])c1[H]


 42 47  0  0  0  0  0  0  0  0999 V2000
    4.3719    5.2522   21.0504 C   0  0  0  0  0  0  0  0  0  0  0  0
    4.7458    4.1705   21.8031 C   0  0  0  0  0  0  0  0  0  0  0  0
    4.8323    2.9262   21.2153 C   0  0  0  0  0  0  0  0  0  0  0  0
    4.5445    2.7905   19.8961 C   0  0  0  0  0  0  0  0  0  0  0  0
    4.5883    1.4346   19.2164 C   0  0  0  0  0  0  0  0  0  0  0  0
    3.3875    1.3959   18.2823 C   0  0  0  0  0  0  0  0  0  0  0  0
    3.5260    2.4465   17.2284 N   0  0  0  0  0  0  0  0  0  0  0  0
    3.8876    3.7272   17.6973 C   0  0  0  0  0  0  0  0  0  0  0  0
    4.1713    3.8653   19.1382 C   0  0  0  0  0  0  0  0  0  0  0  0
    4.0965    5.0723   19.7469 N   0  0  0  0  0  0  0  0  0  0  0  0
    3.2772    1.9811   15.9419 C   0  0  0  0  0  0  0  0  0  0  0  0
    2.9816    0.7082   15.8981 O   0  0  0  0  0  0  0  0  0  0  0  0
    3.3000    2.6920   14.6791 C   0  0  0  0  0  0  0  0  0  0  0  0
    3.9293    3.8745   14.4149 C   0  0  0  0  0  0  0  0  0  0  0  0
    3.8808    4.4619   13.1390 C   0  0  0  0  0  0  0  0  0  0  0  0
    3.2119    3.8970   12.0973 C   0  0  0  0  0  0  0  0  0  0  0  0
    3.1883    4.5710   10.7581 C   0  0  0  0  0  0  0  0  0  0  0  0
    2.5510    2.6809   12.3247 C   0  0  0  0  0  0  0  0  0  0  0  0
    2.6100    2.1235   13.5769 C   0  0  0  0  0  0  0  0  0  0  0  0
    1.8746    2.1207   11.2360 N   0  0  0  0  0  0  0  0  0  0  0  0
    0.9483    2.6244   10.9755 H   0  0  0  0  0  0  0  0  0  0  0  0
    2.1929    1.0214   10.4271 C   0  0  0  0  0  0  0  0  0  0  0  0
    3.5228    0.8160   10.1696 N   0  0  0  0  0  0  0  0  0  0  0  0
    3.9946   -0.1767    9.4217 C   0  0  0  0  0  0  0  0  0  0  0  0
    3.0999   -1.0651    8.8626 C   0  0  0  0  0  0  0  0  0  0  0  0
    1.7589   -0.8771    9.1088 C   0  0  0  0  0  0  0  0  0  0  0  0
    1.3686    0.1547    9.8776 N   0  0  0  0  0  0  0  0  0  0  0  0
    0.7871   -1.8037    8.5286 C   0  0  0  0  0  0  0  0  0  0  0  0
   -0.3228   -2.2207    9.2706 C   0  0  0  0  0  0  0  0  0  0  0  0
   -1.2569   -3.0875    8.7518 C   0  0  0  0  0  0  0  0  0  0  0  0
   -1.1172   -3.5729    7.4674 C   0  0  0  0  0  0  0  0  0  0  0  0
   -0.0442   -3.1584    6.7764 N   0  0  0  0  0  0  0  0  0  0  0  0
    0.8861   -2.3067    7.2669 C   0  0  0  0  0  0  0  0  0  0  0  0
    4.2801    6.5715   21.6197 N   0  0  0  0  0  0  0  0  0  0  0  0
    3.5037    6.7861   22.2728 H   0  0  0  0  0  0  0  0  0  0  0  0
    8.4602   10.0218   22.2889 C   0  0  0  0  0  0  0  0  0  0  0  0
    7.3112    9.5221   21.5619 N   0  0  0  0  0  0  0  0  0  0  0  0
    6.1692    9.5672   22.4569 C   0  0  0  0  0  0  0  0  0  0  0  0
    4.9467    8.9306   21.8044 C   0  0  0  0  0  0  0  0  0  0  0  0
    5.2454    7.5615   21.2859 C   0  0  0  0  0  0  0  0  0  0  0  0
    6.6414    7.1731   21.7652 C   0  0  0  0  0  0  0  0  0  0  0  0
    7.6094    8.1620   21.1520 C   0  0  0  0  0  0  0  0  0  0  0  0
 36 37  1  0  0  0
 37 38  1  0  0  0
 38 39  1  0  0  0
 39 40  1  0  0  0
 40 41  1  0  0  0
 41 42  1  0  0  0
 40 34  1  0  0  0
 34  1  1  0  0  0
  1  2  2  0  0  0
  2  3  1  0  0  0
  3  4  2  0  0  0
  4  5  1  0  0  0
  5  6  1  0  0  0
  6  7  1  0  0  0
  7  8  1  0  0  0
  8  9  1  0  0  0
  9 10  2  0  0  0
  7 11  1  0  0  0
 11 12  2  0  0  0
 11 13  1  0  0  0
 13 14  2  0  0  0
 14 15  1  0  0  0
 15 16  2  0  0  0
 16 17  1  0  0  0
 16 18  1  0  0  0
 18 20  1  0  0  0
 20 22  1  0  0  0
 22 23  2  0  0  0
 23 24  1  0  0  0
 24 25  2  0  0  0
 25 26  1  0  0  0
 26 27  2  0  0  0
 26 28  1  0  0  0
 28 29  2  0  0  0
 29 30  1  0  0  0
 30 31  2  0  0  0
 31 32  1  0  0  0
 32 33  2  0  0  0
 18 19  2  0  0  0
 42 37  1  0  0  0
 10  1  1  0  0  0
 19 13  1  0  0  0
  9  4  1  0  0  0
 27 22  1  0  0  0
 33 28  1  0  0  0
 34 35  1  0  0  0
 20 21  1  0  0  0
M  END
> <minimizedAffinity>
-9.51887

> <CNNscore>
0.2842769921

> <CNNaffinity>
6.6064820290

> <CNN_VS>
1.8780708313

> <CNNaffinity_variance>
0.5388013124

$$$$
[H]c1nc(N([H])c2c([H])c(C(=O)N3C([H])([H])c4nc(N([H])C5([H])C([H])([H])C([H])([H])N(C([H])([H])[H])C([H])([H])C5([H])[H])c([H])c([H])c4C([H])([H])C3([H])[H])c([H])c([H])c2C([H])([H])[H])nc(-c2c([H])nc([H])c([H])c2[H])c1[H]


 42 47  0  0  0  0  0  0  0  0999 V2000
    4.3550    5.2508   21.2073 C   0  0  0  0  0  0  0  0  0  0  0  0
    4.8453    4.2048   21.9434 C   0  0  0  0  0  0  0  0  0  0  0  0
    4.9992    2.9676   21.3545 C   0  0  0  0  0  0  0  0  0  0  0  0
    4.6612    2.8032   20.0506 C   0  0  0  0  0  0  0  0  0  0  0  0
    4.7768    1.4510   19.3719 C   0  0  0  0  0  0  0  0  0  0  0  0
    3.5400    1.3157   18.4955 C   0  0  0  0  0  0  0  0  0  0  0  0
    3.5483    2.3682   17.4344 N   0  0  0  0  0  0  0  0  0  0  0  0
    3.8324    3.6752   17.8834 C   0  0  0  0  0  0  0  0  0  0  0  0
    4.1718    3.8423   19.3092 C   0  0  0  0  0  0  0  0  0  0  0  0
    4.0335    5.0434   19.9185 N   0  0  0  0  0  0  0  0  0  0  0  0
    3.2759    1.8781   16.1618 C   0  0  0  0  0  0  0  0  0  0  0  0
    3.0768    0.5862   16.1343 O   0  0  0  0  0  0  0  0  0  0  0  0
    3.1851    2.5819   14.8981 C   0  0  0  0  0  0  0  0  0  0  0  0
    3.9156    3.6681   14.5099 C   0  0  0  0  0  0  0  0  0  0  0  0
    3.7364    4.2592   13.2475 C   0  0  0  0  0  0  0  0  0  0  0  0
    2.8344    3.7930   12.3416 C   0  0  0  0  0  0  0  0  0  0  0  0
    2.6807    4.4667   11.0108 C   0  0  0  0  0  0  0  0  0  0  0  0
    2.0624    2.6779   12.6993 C   0  0  0  0  0  0  0  0  0  0  0  0
    2.2520    2.1150   13.9360 C   0  0  0  0  0  0  0  0  0  0  0  0
    1.1460    2.2174   11.7481 N   0  0  0  0  0  0  0  0  0  0  0  0
    0.1800    2.7131   11.7785 H   0  0  0  0  0  0  0  0  0  0  0  0
    1.2668    1.2263   10.7646 C   0  0  0  0  0  0  0  0  0  0  0  0
    0.2054    0.3714   10.6239 N   0  0  0  0  0  0  0  0  0  0  0  0
    0.1582   -0.6226    9.7423 C   0  0  0  0  0  0  0  0  0  0  0  0
    1.2394   -0.8178    8.9087 C   0  0  0  0  0  0  0  0  0  0  0  0
    2.3165    0.0300    9.0332 C   0  0  0  0  0  0  0  0  0  0  0  0
    2.2802    1.0103    9.9529 N   0  0  0  0  0  0  0  0  0  0  0  0
    3.4774   -0.1535    8.1624 C   0  0  0  0  0  0  0  0  0  0  0  0
    3.4712    0.3545    6.8593 C   0  0  0  0  0  0  0  0  0  0  0  0
    4.5489    0.2026    6.0175 C   0  0  0  0  0  0  0  0  0  0  0  0
    5.6777   -0.4654    6.4467 C   0  0  0  0  0  0  0  0  0  0  0  0
    5.6587   -0.9437    7.7003 N   0  0  0  0  0  0  0  0  0  0  0  0
    4.6102   -0.8054    8.5447 C   0  0  0  0  0  0  0  0  0  0  0  0
    4.1893    6.5623   21.7778 N   0  0  0  0  0  0  0  0  0  0  0  0
    3.4100    6.7288   22.4415 H   0  0  0  0  0  0  0  0  0  0  0  0
    7.3177    9.7358   18.6208 C   0  0  0  0  0  0  0  0  0  0  0  0
    6.8853    9.2334   19.9088 N   0  0  0  0  0  0  0  0  0  0  0  0
    7.0533    7.7915   19.8989 C   0  0  0  0  0  0  0  0  0  0  0  0
    6.4929    7.1742   21.1758 C   0  0  0  0  0  0  0  0  0  0  0  0
    5.0867    7.6100   21.4310 C   0  0  0  0  0  0  0  0  0  0  0  0
    4.6059    8.3827   20.2059 C   0  0  0  0  0  0  0  0  0  0  0  0
    5.4920    9.6031   20.0783 C   0  0  0  0  0  0  0  0  0  0  0  0
 36 37  1  0  0  0
 37 38  1  0  0  0
 38 39  1  0  0  0
 39 40  1  0  0  0
 40 41  1  0  0  0
 41 42  1  0  0  0
 40 34  1  0  0  0
 34  1  1  0  0  0
  1  2  2  0  0  0
  2  3  1  0  0  0
  3  4  2  0  0  0
  4  5  1  0  0  0
  5  6  1  0  0  0
  6  7  1  0  0  0
  7  8  1  0  0  0
  8  9  1  0  0  0
  9 10  2  0  0  0
  7 11  1  0  0  0
 11 12  2  0  0  0
 11 13  1  0  0  0
 13 14  2  0  0  0
 14 15  1  0  0  0
 15 16  2  0  0  0
 16 17  1  0  0  0
 16 18  1  0  0  0
 18 20  1  0  0  0
 20 22  1  0  0  0
 22 23  2  0  0  0
 23 24  1  0  0  0
 24 25  2  0  0  0
 25 26  1  0  0  0
 26 27  2  0  0  0
 26 28  1  0  0  0
 28 29  2  0  0  0
 29 30  1  0  0  0
 30 31  2  0  0  0
 31 32  1  0  0  0
 32 33  2  0  0  0
 18 19  2  0  0  0
 42 37  1  0  0  0
 10  1  1  0  0  0
 19 13  1  0  0  0
  9  4  1  0  0  0
 27 22  1  0  0  0
 33 28  1  0  0  0
 34 35  1  0  0  0
 20 21  1  0  0  0
M  END
> <minimizedAffinity>
-9.29753

> <CNNscore>
0.2698939145

> <CNNaffinity>
6.8600945473

> <CNN_VS>
1.8514977694

> <CNNaffinity_variance>
0.5153358579

$$$$
[H]c1nc(N([H])c2c([H])c(C(=O)N3C([H])([H])c4nc(N([H])C5([H])C([H])([H])C([H])([H])N(C([H])([H])[H])C([H])([H])C5([H])[H])c([H])c([H])c4C([H])([H])C3([H])[H])c([H])c([H])c2C([H])([H])[H])nc(-c2c([H])nc([H])c([H])c2[H])c1[H]


 42 47  0  0  0  0  0  0  0  0999 V2000
    4.4633    5.2158   20.9796 C   0  0  0  0  0  0  0  0  0  0  0  0
    4.9247    4.1168   21.6548 C   0  0  0  0  0  0  0  0  0  0  0  0
    5.0017    2.9009   21.0093 C   0  0  0  0  0  0  0  0  0  0  0  0
    4.6176    2.8097   19.7110 C   0  0  0  0  0  0  0  0  0  0  0  0
    4.6482    1.4846   18.9723 C   0  0  0  0  0  0  0  0  0  0  0  0
    3.3809    1.4455   18.1306 C   0  0  0  0  0  0  0  0  0  0  0  0
    3.4080    2.5420   17.1153 N   0  0  0  0  0  0  0  0  0  0  0  0
    3.7675    3.8135   17.6102 C   0  0  0  0  0  0  0  0  0  0  0  0
    4.1567    3.9019   19.0302 C   0  0  0  0  0  0  0  0  0  0  0  0
    4.0941    5.0803   19.6940 N   0  0  0  0  0  0  0  0  0  0  0  0
    3.0748    2.1215   15.8324 C   0  0  0  0  0  0  0  0  0  0  0  0
    2.8135    0.8427   15.7564 O   0  0  0  0  0  0  0  0  0  0  0  0
    2.9802    2.8835   14.6032 C   0  0  0  0  0  0  0  0  0  0  0  0
    3.0207    4.2423   14.4754 C   0  0  0  0  0  0  0  0  0  0  0  0
    2.9241    4.8637   13.2185 C   0  0  0  0  0  0  0  0  0  0  0  0
    2.7859    4.1602   12.0620 C   0  0  0  0  0  0  0  0  0  0  0  0
    2.6815    4.8759   10.7485 C   0  0  0  0  0  0  0  0  0  0  0  0
    2.7401    2.7609   12.1472 C   0  0  0  0  0  0  0  0  0  0  0  0
    2.8358    2.1730   13.3831 C   0  0  0  0  0  0  0  0  0  0  0  0
    2.6013    2.0627   10.9431 N   0  0  0  0  0  0  0  0  0  0  0  0
    1.5809    1.9979   10.5767 H   0  0  0  0  0  0  0  0  0  0  0  0
    3.5572    1.4354   10.1327 C   0  0  0  0  0  0  0  0  0  0  0  0
    3.4491    0.0762    9.9993 N   0  0  0  0  0  0  0  0  0  0  0  0
    4.2726   -0.6711    9.2706 C   0  0  0  0  0  0  0  0  0  0  0  0
    5.3068   -0.0523    8.6000 C   0  0  0  0  0  0  0  0  0  0  0  0
    5.4336    1.3129    8.7203 C   0  0  0  0  0  0  0  0  0  0  0  0
    4.5552    1.9917    9.4790 N   0  0  0  0  0  0  0  0  0  0  0  0
    6.5213    1.9959    8.0202 C   0  0  0  0  0  0  0  0  0  0  0  0
    6.7537    1.7494    6.6632 C   0  0  0  0  0  0  0  0  0  0  0  0
    7.7653    2.3792    5.9755 C   0  0  0  0  0  0  0  0  0  0  0  0
    8.5866    3.2823    6.6195 C   0  0  0  0  0  0  0  0  0  0  0  0
    8.3436    3.5011    7.9209 N   0  0  0  0  0  0  0  0  0  0  0  0
    7.3546    2.8931    8.6163 C   0  0  0  0  0  0  0  0  0  0  0  0
    4.3775    6.5072   21.6103 N   0  0  0  0  0  0  0  0  0  0  0  0
    3.6882    6.6520   22.3714 H   0  0  0  0  0  0  0  0  0  0  0  0
    8.3570   10.2378   21.8774 C   0  0  0  0  0  0  0  0  0  0  0  0
    7.1734    9.6638   21.2708 N   0  0  0  0  0  0  0  0  0  0  0  0
    6.1346    9.6221   22.2839 C   0  0  0  0  0  0  0  0  0  0  0  0
    4.8956    8.9059   21.7572 C   0  0  0  0  0  0  0  0  0  0  0  0
    5.2303    7.5650   21.1893 C   0  0  0  0  0  0  0  0  0  0  0  0
    6.6934    7.2722   21.5100 C   0  0  0  0  0  0  0  0  0  0  0  0
    7.5187    8.3311   20.8111 C   0  0  0  0  0  0  0  0  0  0  0  0
 36 37  1  0  0  0
 37 38  1  0  0  0
 38 39  1  0  0  0
 39 40  1  0  0  0
 40 41  1  0  0  0
 41 42  1  0  0  0
 40 34  1  0  0  0
 34  1  1  0  0  0
  1  2  2  0  0  0
  2  3  1  0  0  0
  3  4  2  0  0  0
  4  5  1  0  0  0
  5  6  1  0  0  0
  6  7  1  0  0  0
  7  8  1  0  0  0
  8  9  1  0  0  0
  9 10  2  0  0  0
  7 11  1  0  0  0
 11 12  2  0  0  0
 11 13  1  0  0  0
 13 14  2  0  0  0
 14 15  1  0  0  0
 15 16  2  0  0  0
 16 17  1  0  0  0
 16 18  1  0  0  0
 18 20  1  0  0  0
 20 22  1  0  0  0
 22 23  2  0  0  0
 23 24  1  0  0  0
 24 25  2  0  0  0
 25 26  1  0  0  0
 26 27  2  0  0  0
 26 28  1  0  0  0
 28 29  2  0  0  0
 29 30  1  0  0  0
 30 31  2  0  0  0
 31 32  1  0  0  0
 32 33  2  0  0  0
 18 19  2  0  0  0
 42 37  1  0  0  0
 10  1  1  0  0  0
 19 13  1  0  0  0
  9  4  1  0  0  0
 27 22  1  0  0  0
 33 28  1  0  0  0
 34 35  1  0  0  0
 20 21  1  0  0  0
M  END
> <minimizedAffinity>
-9.39651

> <CNNscore>
0.2601350248

> <CNNaffinity>
6.6778936386

> <CNN_VS>
1.7371540070

> <CNNaffinity_variance>
0.4210892320

$$$$
[H]c1nc(N([H])c2c([H])c(C(=O)N3C([H])([H])c4nc(N([H])C5([H])C([H])([H])C([H])([H])N(C([H])([H])[H])C([H])([H])C5([H])[H])c([H])c([H])c4C([H])([H])C3([H])[H])c([H])c([H])c2C([H])([H])[H])nc(-c2c([H])nc([H])c([H])c2[H])c1[H]


 42 47  0  0  0  0  0  0  0  0999 V2000
    4.7011    5.8010   21.4582 C   0  0  0  0  0  0  0  0  0  0  0  0
    5.3113    4.8847   22.2734 C   0  0  0  0  0  0  0  0  0  0  0  0
    5.4627    3.5829   21.8448 C   0  0  0  0  0  0  0  0  0  0  0  0
    5.0033    3.2269   20.6186 C   0  0  0  0  0  0  0  0  0  0  0  0
    5.1130    1.7975   20.1214 C   0  0  0  0  0  0  0  0  0  0  0  0
    3.8020    1.5010   19.4077 C   0  0  0  0  0  0  0  0  0  0  0  0
    3.6543    2.3945   18.2187 N   0  0  0  0  0  0  0  0  0  0  0  0
    3.9209    3.7600   18.4534 C   0  0  0  0  0  0  0  0  0  0  0  0
    4.3938    4.1357   19.7991 C   0  0  0  0  0  0  0  0  0  0  0  0
    4.2616    5.4051   20.2510 N   0  0  0  0  0  0  0  0  0  0  0  0
    3.2785    1.7227   17.0605 C   0  0  0  0  0  0  0  0  0  0  0  0
    3.1382    0.4339   17.2300 O   0  0  0  0  0  0  0  0  0  0  0  0
    3.0283    2.2395   15.7298 C   0  0  0  0  0  0  0  0  0  0  0  0
    2.9585    1.5212   14.5708 C   0  0  0  0  0  0  0  0  0  0  0  0
    2.7020    2.1433   13.3369 C   0  0  0  0  0  0  0  0  0  0  0  0
    2.5089    3.4851   13.2190 C   0  0  0  0  0  0  0  0  0  0  0  0
    2.2444    4.0967   11.8757 C   0  0  0  0  0  0  0  0  0  0  0  0
    2.5717    4.2615   14.3854 C   0  0  0  0  0  0  0  0  0  0  0  0
    2.8232    3.6358   15.5802 C   0  0  0  0  0  0  0  0  0  0  0  0
    2.3658    5.6370   14.2360 N   0  0  0  0  0  0  0  0  0  0  0  0
    1.4382    5.9004   13.7361 H   0  0  0  0  0  0  0  0  0  0  0  0
    3.1545    6.7286   14.6237 C   0  0  0  0  0  0  0  0  0  0  0  0
    2.8838    7.9258   14.0151 N   0  0  0  0  0  0  0  0  0  0  0  0
    3.5372    9.0562   14.2656 C   0  0  0  0  0  0  0  0  0  0  0  0
    4.5554    9.0382   15.1957 C   0  0  0  0  0  0  0  0  0  0  0  0
    4.8439    7.8455   15.8192 C   0  0  0  0  0  0  0  0  0  0  0  0
    4.1319    6.7490   15.5052 N   0  0  0  0  0  0  0  0  0  0  0  0
    5.9189    7.7967   16.8101 C   0  0  0  0  0  0  0  0  0  0  0  0
    6.1244    6.6433   17.5741 C   0  0  0  0  0  0  0  0  0  0  0  0
    7.1295    6.5643   18.5104 C   0  0  0  0  0  0  0  0  0  0  0  0
    7.9703    7.6384   18.7202 C   0  0  0  0  0  0  0  0  0  0  0  0
    7.7523    8.7330   17.9753 N   0  0  0  0  0  0  0  0  0  0  0  0
    6.7704    8.8321   17.0493 C   0  0  0  0  0  0  0  0  0  0  0  0
    4.5326    7.1733   21.8598 N   0  0  0  0  0  0  0  0  0  0  0  0
    3.8331    7.4029   22.5902 H   0  0  0  0  0  0  0  0  0  0  0  0
    6.2576   12.2135   20.6569 C   0  0  0  0  0  0  0  0  0  0  0  0
    6.2042   10.7847   20.4243 N   0  0  0  0  0  0  0  0  0  0  0  0
    4.8115   10.4197   20.2389 C   0  0  0  0  0  0  0  0  0  0  0  0
    4.6612    8.9067   20.1213 C   0  0  0  0  0  0  0  0  0  0  0  0
    5.3190    8.1946   21.2582 C   0  0  0  0  0  0  0  0  0  0  0  0
    5.7580    9.2429   22.2768 C   0  0  0  0  0  0  0  0  0  0  0  0
    6.7730   10.1295   21.5879 C   0  0  0  0  0  0  0  0  0  0  0  0
 36 37  1  0  0  0
 37 38  1  0  0  0
 38 39  1  0  0  0
 39 40  1  0  0  0
 40 41  1  0  0  0
 41 42  1  0  0  0
 40 34  1  0  0  0
 34  1  1  0  0  0
  1  2  2  0  0  0
  2  3  1  0  0  0
  3  4  2  0  0  0
  4  5  1  0  0  0
  5  6  1  0  0  0
  6  7  1  0  0  0
  7  8  1  0  0  0
  8  9  1  0  0  0
  9 10  2  0  0  0
  7 11  1  0  0  0
 11 12  2  0  0  0
 11 13  1  0  0  0
 13 14  2  0  0  0
 14 15  1  0  0  0
 15 16  2  0  0  0
 16 17  1  0  0  0
 16 18  1  0  0  0
 18 20  1  0  0  0
 20 22  1  0  0  0
 22 23  2  0  0  0
 23 24  1  0  0  0
 24 25  2  0  0  0
 25 26  1  0  0  0
 26 27  2  0  0  0
 26 28  1  0  0  0
 28 29  2  0  0  0
 29 30  1  0  0  0
 30 31  2  0  0  0
 31 32  1  0  0  0
 32 33  2  0  0  0
 18 19  2  0  0  0
 42 37  1  0  0  0
 10  1  1  0  0  0
 19 13  1  0  0  0
  9  4  1  0  0  0
 27 22  1  0  0  0
 33 28  1  0  0  0
 34 35  1  0  0  0
 20 21  1  0  0  0
M  END
> <minimizedAffinity>
-10.63328

> <CNNscore>
0.2251349241

> <CNNaffinity>
6.9758810997

> <CNN_VS>
1.5705144405

> <CNNaffinity_variance>
0.2678715587

$$$$
[H]c1nc(N([H])c2c([H])c(C(=O)N3C([H])([H])c4nc(N([H])C5([H])C([H])([H])C([H])([H])N(C([H])([H])[H])C([H])([H])C5([H])[H])c([H])c([H])c4C([H])([H])C3([H])[H])c([H])c([H])c2C([H])([H])[H])nc(-c2c([H])nc([H])c([H])c2[H])c1[H]


 42 47  0  0  0  0  0  0  0  0999 V2000
    4.4412    5.2541   21.0789 C   0  0  0  0  0  0  0  0  0  0  0  0
    4.7526    4.1684   21.8540 C   0  0  0  0  0  0  0  0  0  0  0  0
    4.7886    2.9120   21.2872 C   0  0  0  0  0  0  0  0  0  0  0  0
    4.5136    2.7683   19.9661 C   0  0  0  0  0  0  0  0  0  0  0  0
    4.5029    1.4009   19.3085 C   0  0  0  0  0  0  0  0  0  0  0  0
    3.3151    1.4034   18.3572 C   0  0  0  0  0  0  0  0  0  0  0  0
    3.5182    2.4289   17.2892 N   0  0  0  0  0  0  0  0  0  0  0  0
    3.9333    3.6987   17.7433 C   0  0  0  0  0  0  0  0  0  0  0  0
    4.2025    3.8469   19.1859 C   0  0  0  0  0  0  0  0  0  0  0  0
    4.1762    5.0659   19.7743 N   0  0  0  0  0  0  0  0  0  0  0  0
    3.2661    1.9546   16.0065 C   0  0  0  0  0  0  0  0  0  0  0  0
    2.9113    0.6966   15.9783 O   0  0  0  0  0  0  0  0  0  0  0  0
    3.3406    2.6429   14.7332 C   0  0  0  0  0  0  0  0  0  0  0  0
    4.2016    3.6462   14.3923 C   0  0  0  0  0  0  0  0  0  0  0  0
    4.1771    4.2310   13.1146 C   0  0  0  0  0  0  0  0  0  0  0  0
    3.3045    3.8399   12.1464 C   0  0  0  0  0  0  0  0  0  0  0  0
    3.3187    4.5032   10.8017 C   0  0  0  0  0  0  0  0  0  0  0  0
    2.4018    2.8113   12.4540 C   0  0  0  0  0  0  0  0  0  0  0  0
    2.4413    2.2532   13.7067 C   0  0  0  0  0  0  0  0  0  0  0  0
    1.5189    2.4266   11.4395 N   0  0  0  0  0  0  0  0  0  0  0  0
    1.7600    1.4769   10.9708 H   0  0  0  0  0  0  0  0  0  0  0  0
    0.3778    3.0604   10.9294 C   0  0  0  0  0  0  0  0  0  0  0  0
    0.0741    2.8102    9.6170 N   0  0  0  0  0  0  0  0  0  0  0  0
   -0.9696    3.3310    8.9790 C   0  0  0  0  0  0  0  0  0  0  0  0
   -1.8097    4.1791    9.6697 C   0  0  0  0  0  0  0  0  0  0  0  0
   -1.5229    4.4439   10.9895 C   0  0  0  0  0  0  0  0  0  0  0  0
   -0.4454    3.8738   11.5567 N   0  0  0  0  0  0  0  0  0  0  0  0
   -2.3966    5.3401   11.7467 C   0  0  0  0  0  0  0  0  0  0  0  0
   -3.7785    5.3295   11.5309 C   0  0  0  0  0  0  0  0  0  0  0  0
   -4.6272    6.1565   12.2301 C   0  0  0  0  0  0  0  0  0  0  0  0
   -4.1260    7.0290   13.1747 C   0  0  0  0  0  0  0  0  0  0  0  0
   -2.7974    7.0205   13.3629 N   0  0  0  0  0  0  0  0  0  0  0  0
   -1.9449    6.2158   12.6867 C   0  0  0  0  0  0  0  0  0  0  0  0
    4.4038    6.5853   21.6259 N   0  0  0  0  0  0  0  0  0  0  0  0
    3.6877    6.8176   22.3392 H   0  0  0  0  0  0  0  0  0  0  0  0
    7.2663   11.2363   21.6245 C   0  0  0  0  0  0  0  0  0  0  0  0
    6.7753   10.0303   20.9897 N   0  0  0  0  0  0  0  0  0  0  0  0
    5.3252   10.0587   21.0509 C   0  0  0  0  0  0  0  0  0  0  0  0
    4.7371    8.7556   20.5202 C   0  0  0  0  0  0  0  0  0  0  0  0
    5.3399    7.5630   21.1887 C   0  0  0  0  0  0  0  0  0  0  0  0
    6.2137    8.0610   22.3366 C   0  0  0  0  0  0  0  0  0  0  0  0
    7.3142    8.8989   21.7219 C   0  0  0  0  0  0  0  0  0  0  0  0
 36 37  1  0  0  0
 37 38  1  0  0  0
 38 39  1  0  0  0
 39 40  1  0  0  0
 40 41  1  0  0  0
 41 42  1  0  0  0
 40 34  1  0  0  0
 34  1  1  0  0  0
  1  2  2  0  0  0
  2  3  1  0  0  0
  3  4  2  0  0  0
  4  5  1  0  0  0
  5  6  1  0  0  0
  6  7  1  0  0  0
  7  8  1  0  0  0
  8  9  1  0  0  0
  9 10  2  0  0  0
  7 11  1  0  0  0
 11 12  2  0  0  0
 11 13  1  0  0  0
 13 14  2  0  0  0
 14 15  1  0  0  0
 15 16  2  0  0  0
 16 17  1  0  0  0
 16 18  1  0  0  0
 18 20  1  0  0  0
 20 22  1  0  0  0
 22 23  2  0  0  0
 23 24  1  0  0  0
 24 25  2  0  0  0
 25 26  1  0  0  0
 26 27  2  0  0  0
 26 28  1  0  0  0
 28 29  2  0  0  0
 29 30  1  0  0  0
 30 31  2  0  0  0
 31 32  1  0  0  0
 32 33  2  0  0  0
 18 19  2  0  0  0
 42 37  1  0  0  0
 10  1  1  0  0  0
 19 13  1  0  0  0
  9  4  1  0  0  0
 27 22  1  0  0  0
 33 28  1  0  0  0
 34 35  1  0  0  0
 20 21  1  0  0  0
M  END
> <minimizedAffinity>
-9.75667

> <CNNscore>
0.2051435858

> <CNNaffinity>
6.9217162132

> <CNN_VS>
1.4199457169

> <CNNaffinity_variance>
0.4387400746

$$$$
[H]c1nc(N([H])c2c([H])c(C(=O)N3C([H])([H])c4nc(N([H])C5([H])C([H])([H])C([H])([H])N(C([H])([H])[H])C([H])([H])C5([H])[H])c([H])c([H])c4C([H])([H])C3([H])[H])c([H])c([H])c2C([H])([H])[H])nc(-c2c([H])nc([H])c([H])c2[H])c1[H]


 42 47  0  0  0  0  0  0  0  0999 V2000
    4.7756    6.4393   21.6481 C   0  0  0  0  0  0  0  0  0  0  0  0
    5.5432    5.6689   22.4810 C   0  0  0  0  0  0  0  0  0  0  0  0
    5.8119    4.3588   22.1454 C   0  0  0  0  0  0  0  0  0  0  0  0
    5.3102    3.8496   20.9920 C   0  0  0  0  0  0  0  0  0  0  0  0
    5.5473    2.4026   20.6015 C   0  0  0  0  0  0  0  0  0  0  0  0
    4.2314    1.9049   20.0212 C   0  0  0  0  0  0  0  0  0  0  0  0
    3.8981    2.6701   18.7814 N   0  0  0  0  0  0  0  0  0  0  0  0
    4.0224    4.0716   18.8858 C   0  0  0  0  0  0  0  0  0  0  0  0
    4.5438    4.6122   20.1553 C   0  0  0  0  0  0  0  0  0  0  0  0
    4.2995    5.8943   20.5151 N   0  0  0  0  0  0  0  0  0  0  0  0
    3.5202    1.8632   17.7137 C   0  0  0  0  0  0  0  0  0  0  0  0
    3.5409    0.5865   17.9947 O   0  0  0  0  0  0  0  0  0  0  0  0
    3.1183    2.2319   16.3709 C   0  0  0  0  0  0  0  0  0  0  0  0
    3.1992    1.4580   15.2490 C   0  0  0  0  0  0  0  0  0  0  0  0
    2.7677    1.9322   13.9984 C   0  0  0  0  0  0  0  0  0  0  0  0
    2.2475    3.1779   13.8268 C   0  0  0  0  0  0  0  0  0  0  0  0
    1.8082    3.6342   12.4677 C   0  0  0  0  0  0  0  0  0  0  0  0
    2.1458    4.0068   14.9537 C   0  0  0  0  0  0  0  0  0  0  0  0
    2.5725    3.5258   16.1657 C   0  0  0  0  0  0  0  0  0  0  0  0
    1.6043    5.2803   14.7496 N   0  0  0  0  0  0  0  0  0  0  0  0
    0.6309    5.4327   15.2066 H   0  0  0  0  0  0  0  0  0  0  0  0
    2.1078    6.3893   14.0563 C   0  0  0  0  0  0  0  0  0  0  0  0
    1.1835    7.2440   13.5155 N   0  0  0  0  0  0  0  0  0  0  0  0
    1.4910    8.3394   12.8278 C   0  0  0  0  0  0  0  0  0  0  0  0
    2.8218    8.6485   12.6386 C   0  0  0  0  0  0  0  0  0  0  0  0
    3.7669    7.8031   13.1737 C   0  0  0  0  0  0  0  0  0  0  0  0
    3.3671    6.7156   13.8560 N   0  0  0  0  0  0  0  0  0  0  0  0
    5.1860    8.1060   12.9886 C   0  0  0  0  0  0  0  0  0  0  0  0
    5.8365    7.7488   11.8030 C   0  0  0  0  0  0  0  0  0  0  0  0
    7.1687    8.0238   11.5966 C   0  0  0  0  0  0  0  0  0  0  0  0
    7.9047    8.6680   12.5703 C   0  0  0  0  0  0  0  0  0  0  0  0
    7.2581    8.9997   13.6984 N   0  0  0  0  0  0  0  0  0  0  0  0
    5.9491    8.7391   13.9220 C   0  0  0  0  0  0  0  0  0  0  0  0
    4.4799    7.8150   21.9528 N   0  0  0  0  0  0  0  0  0  0  0  0
    3.7760    8.0298   22.6834 H   0  0  0  0  0  0  0  0  0  0  0  0
    6.5396   10.6020   17.7319 C   0  0  0  0  0  0  0  0  0  0  0  0
    6.4118   10.3244   19.1479 N   0  0  0  0  0  0  0  0  0  0  0  0
    6.7743    8.9347   19.3593 C   0  0  0  0  0  0  0  0  0  0  0  0
    6.5360    8.5296   20.8101 C   0  0  0  0  0  0  0  0  0  0  0  0
    5.1488    8.8597   21.2567 C   0  0  0  0  0  0  0  0  0  0  0  0
    4.3596    9.3188   20.0338 C   0  0  0  0  0  0  0  0  0  0  0  0
    5.0315   10.5743   19.5209 C   0  0  0  0  0  0  0  0  0  0  0  0
 36 37  1  0  0  0
 37 38  1  0  0  0
 38 39  1  0  0  0
 39 40  1  0  0  0
 40 41  1  0  0  0
 41 42  1  0  0  0
 40 34  1  0  0  0
 34  1  1  0  0  0
  1  2  2  0  0  0
  2  3  1  0  0  0
  3  4  2  0  0  0
  4  5  1  0  0  0
  5  6  1  0  0  0
  6  7  1  0  0  0
  7  8  1  0  0  0
  8  9  1  0  0  0
  9 10  2  0  0  0
  7 11  1  0  0  0
 11 12  2  0  0  0
 11 13  1  0  0  0
 13 14  2  0  0  0
 14 15  1  0  0  0
 15 16  2  0  0  0
 16 17  1  0  0  0
 16 18  1  0  0  0
 18 20  1  0  0  0
 20 22  1  0  0  0
 22 23  2  0  0  0
 23 24  1  0  0  0
 24 25  2  0  0  0
 25 26  1  0  0  0
 26 27  2  0  0  0
 26 28  1  0  0  0
 28 29  2  0  0  0
 29 30  1  0  0  0
 30 31  2  0  0  0
 31 32  1  0  0  0
 32 33  2  0  0  0
 18 19  2  0  0  0
 42 37  1  0  0  0
 10  1  1  0  0  0
 19 13  1  0  0  0
  9  4  1  0  0  0
 27 22  1  0  0  0
 33 28  1  0  0  0
 34 35  1  0  0  0
 20 21  1  0  0  0
M  END
> <minimizedAffinity>
-10.77485

> <CNNscore>
0.1686865836

> <CNNaffinity>
6.6100044250

> <CNN_VS>
1.1150190830

> <CNNaffinity_variance>
0.4007077813

$$$$
[H]c1nc(N([H])[H])c2c(-c3c([H])c([H])c(N([H])C(=O)N([H])C([H])([H])C([H])([H])C([H])([H])c4c([H])c([H])c([H])c([H])c4[H])c([H])c3[H])c([H])sc2c1-c1nc([H])n(C([H])([H])[H])c1[H]


 39 43  0  0  0  0  0  0  0  0999 V2000
    3.2286    3.9969   14.9048 C   0  0  0  0  0  0  0  0  0  0  0  0
    3.8781    3.6369   13.7505 C   0  0  0  0  0  0  0  0  0  0  0  0
    3.4192    3.8871   12.4980 C   0  0  0  0  0  0  0  0  0  0  0  0
    2.1936    4.5610   12.3403 C   0  0  0  0  0  0  0  0  0  0  0  0
    1.5418    4.9229   13.4969 C   0  0  0  0  0  0  0  0  0  0  0  0
    2.0398    4.6515   14.7598 C   0  0  0  0  0  0  0  0  0  0  0  0
    4.1299    1.6058   19.1617 C   0  0  0  0  0  0  0  0  0  0  0  0
    3.3219    0.4958   18.8579 C   0  0  0  0  0  0  0  0  0  0  0  0
    2.7344    0.5455   17.6732 N   0  0  0  0  0  0  0  0  0  0  0  0
    2.8351    1.5242   16.7672 C   0  0  0  0  0  0  0  0  0  0  0  0
    2.1316    1.3179   15.5587 N   0  0  0  0  0  0  0  0  0  0  0  0
    3.6309    2.6629   17.0207 C   0  0  0  0  0  0  0  0  0  0  0  0
    3.8599    3.7339   16.2376 C   0  0  0  0  0  0  0  0  0  0  0  0
    4.7087    4.7105   16.7398 C   0  0  0  0  0  0  0  0  0  0  0  0
    5.1361    4.1014   18.2519 S   0  0  0  0  0  0  0  0  0  0  0  0
    4.2579    2.6419   18.2450 C   0  0  0  0  0  0  0  0  0  0  0  0
    2.6706    1.1801   14.6831 H   0  0  0  0  0  0  0  0  0  0  0  0
    1.0945    1.3008   15.5298 H   0  0  0  0  0  0  0  0  0  0  0  0
    5.3347    2.1944   24.0070 C   0  0  0  0  0  0  0  0  0  0  0  0
    5.4057    1.8788   22.5993 N   0  0  0  0  0  0  0  0  0  0  0  0
    6.4350    1.3913   21.9263 C   0  0  0  0  0  0  0  0  0  0  0  0
    6.1071    1.2367   20.6403 N   0  0  0  0  0  0  0  0  0  0  0  0
    4.8098    1.6352   20.4430 C   0  0  0  0  0  0  0  0  0  0  0  0
    4.3987    2.0291   21.6773 C   0  0  0  0  0  0  0  0  0  0  0  0
    1.7644    4.8380   11.0316 N   0  0  0  0  0  0  0  0  0  0  0  0
    1.7785    6.1396   10.4246 C   0  0  0  0  0  0  0  0  0  0  0  0
    2.1718    7.0567   11.1430 O   0  0  0  0  0  0  0  0  0  0  0  0
    1.3651    6.3085    9.1019 N   0  0  0  0  0  0  0  0  0  0  0  0
    1.4094    4.0551   10.4494 H   0  0  0  0  0  0  0  0  0  0  0  0
    1.0561    5.3102    8.6586 H   0  0  0  0  0  0  0  0  0  0  0  0
    1.2150    7.3243    8.1625 C   0  0  0  0  0  0  0  0  0  0  0  0
    0.2038    7.2567    7.0934 C   0  0  0  0  0  0  0  0  0  0  0  0
    0.5338    6.5423    5.8576 C   0  0  0  0  0  0  0  0  0  0  0  0
    0.5747    7.5661    4.7464 C   0  0  0  0  0  0  0  0  0  0  0  0
   -0.4326    8.5208    4.7953 C   0  0  0  0  0  0  0  0  0  0  0  0
   -0.5007    9.4979    3.8574 C   0  0  0  0  0  0  0  0  0  0  0  0
    0.4467    9.5393    2.8427 C   0  0  0  0  0  0  0  0  0  0  0  0
    1.4548    8.6029    2.7741 C   0  0  0  0  0  0  0  0  0  0  0  0
    1.4915    7.6119    3.7585 C   0  0  0  0  0  0  0  0  0  0  0  0
 19 20  1  0  0  0
 20 21  1  0  0  0
 21 22  2  0  0  0
 22 23  1  0  0  0
 23 24  2  0  0  0
 23  7  1  0  0  0
  7  8  2  0  0  0
  8  9  1  0  0  0
  9 10  2  0  0  0
 10 11  1  0  0  0
 10 12  1  0  0  0
 12 13  1  0  0  0
 13 14  2  0  0  0
 14 15  1  0  0  0
 15 16  1  0  0  0
 13  1  1  0  0  0
  1  2  2  0  0  0
  2  3  1  0  0  0
  3  4  2  0  0  0
  4 25  1  0  0  0
 25 26  1  0  0  0
 26 27  2  0  0  0
 26 28  1  0  0  0
 28 31  1  0  0  0
 31 32  1  0  0  0
 32 33  1  0  0  0
 33 34  1  0  0  0
 34 35  2  0  0  0
 35 36  1  0  0  0
 36 37  2  0  0  0
 37 38  1  0  0  0
 38 39  2  0  0  0
  4  5  1  0  0  0
  5  6  2  0  0  0
 24 20  1  0  0  0
 16  7  1  0  0  0
  6  1  1  0  0  0
 16 12  2  0  0  0
 39 34  1  0  0  0
 11 17  1  0  0  0
 11 18  1  0  0  0
 25 29  1  0  0  0
 28 30  1  0  0  0
M  END
> <minimizedAffinity>
-7.30071

> <CNNscore>
0.6339401603

> <CNNaffinity>
6.5789437294

> <CNN_VS>
4.1706566811

> <CNNaffinity_variance>
1.0130019188

$$$$
[H]c1nc(N([H])[H])c2c(-c3c([H])c([H])c(N([H])C(=O)N([H])C([H])([H])C([H])([H])C([H])([H])c4c([H])c([H])c([H])c([H])c4[H])c([H])c3[H])c([H])sc2c1-c1nc([H])n(C([H])([H])[H])c1[H]


 39 43  0  0  0  0  0  0  0  0999 V2000
    3.2074    4.1051   14.9905 C   0  0  0  0  0  0  0  0  0  0  0  0
    3.7957    3.6633   13.8319 C   0  0  0  0  0  0  0  0  0  0  0  0
    3.3262    3.9170   12.5840 C   0  0  0  0  0  0  0  0  0  0  0  0
    2.1553    4.6839   12.4363 C   0  0  0  0  0  0  0  0  0  0  0  0
    1.5649    5.1277   13.5973 C   0  0  0  0  0  0  0  0  0  0  0  0
    2.0719    4.8500   14.8552 C   0  0  0  0  0  0  0  0  0  0  0  0
    4.1564    1.6563   19.2040 C   0  0  0  0  0  0  0  0  0  0  0  0
    3.3553    0.5444   18.8884 C   0  0  0  0  0  0  0  0  0  0  0  0
    2.7596    0.6076   17.7085 N   0  0  0  0  0  0  0  0  0  0  0  0
    2.8463    1.6009   16.8171 C   0  0  0  0  0  0  0  0  0  0  0  0
    2.1364    1.4075   15.6103 N   0  0  0  0  0  0  0  0  0  0  0  0
    3.6347    2.7420   17.0830 C   0  0  0  0  0  0  0  0  0  0  0  0
    3.8497    3.8268   16.3149 C   0  0  0  0  0  0  0  0  0  0  0  0
    4.6940    4.8024   16.8266 C   0  0  0  0  0  0  0  0  0  0  0  0
    5.1364    4.1737   18.3262 S   0  0  0  0  0  0  0  0  0  0  0  0
    4.2699    2.7074   18.3026 C   0  0  0  0  0  0  0  0  0  0  0  0
    2.6707    1.2876   14.7291 H   0  0  0  0  0  0  0  0  0  0  0  0
    1.0993    1.3824   15.5879 H   0  0  0  0  0  0  0  0  0  0  0  0
    5.4007    2.2135   24.0430 C   0  0  0  0  0  0  0  0  0  0  0  0
    5.4578    1.9001   22.6342 N   0  0  0  0  0  0  0  0  0  0  0  0
    6.4748    1.3975   21.9537 C   0  0  0  0  0  0  0  0  0  0  0  0
    6.1365    1.2514   20.6694 N   0  0  0  0  0  0  0  0  0  0  0  0
    4.8446    1.6715   20.4811 C   0  0  0  0  0  0  0  0  0  0  0  0
    4.4477    2.0691   21.7188 C   0  0  0  0  0  0  0  0  0  0  0  0
    1.7161    4.9604   11.1308 N   0  0  0  0  0  0  0  0  0  0  0  0
    0.5628    4.3679   10.5132 C   0  0  0  0  0  0  0  0  0  0  0  0
   -0.0397    3.5414   11.1957 O   0  0  0  0  0  0  0  0  0  0  0  0
    0.1844    4.7353    9.2206 N   0  0  0  0  0  0  0  0  0  0  0  0
    2.2540    5.6405   10.5597 H   0  0  0  0  0  0  0  0  0  0  0  0
    0.8989    5.5170    8.8117 H   0  0  0  0  0  0  0  0  0  0  0  0
   -0.7979    4.4365    8.2812 C   0  0  0  0  0  0  0  0  0  0  0  0
   -2.2145    4.7786    8.4961 C   0  0  0  0  0  0  0  0  0  0  0  0
   -2.5396    5.9220    9.3524 C   0  0  0  0  0  0  0  0  0  0  0  0
   -3.8226    5.5871   10.0780 C   0  0  0  0  0  0  0  0  0  0  0  0
   -4.9319    6.3149    9.6679 C   0  0  0  0  0  0  0  0  0  0  0  0
   -6.1436    6.1021   10.2382 C   0  0  0  0  0  0  0  0  0  0  0  0
   -6.2704    5.1478   11.2394 C   0  0  0  0  0  0  0  0  0  0  0  0
   -5.1840    4.4140   11.6622 C   0  0  0  0  0  0  0  0  0  0  0  0
   -3.9524    4.6619   11.0506 C   0  0  0  0  0  0  0  0  0  0  0  0
 19 20  1  0  0  0
 20 21  1  0  0  0
 21 22  2  0  0  0
 22 23  1  0  0  0
 23 24  2  0  0  0
 23  7  1  0  0  0
  7  8  2  0  0  0
  8  9  1  0  0  0
  9 10  2  0  0  0
 10 11  1  0  0  0
 10 12  1  0  0  0
 12 13  1  0  0  0
 13 14  2  0  0  0
 14 15  1  0  0  0
 15 16  1  0  0  0
 13  1  1  0  0  0
  1  2  2  0  0  0
  2  3  1  0  0  0
  3  4  2  0  0  0
  4 25  1  0  0  0
 25 26  1  0  0  0
 26 27  2  0  0  0
 26 28  1  0  0  0
 28 31  1  0  0  0
 31 32  1  0  0  0
 32 33  1  0  0  0
 33 34  1  0  0  0
 34 35  2  0  0  0
 35 36  1  0  0  0
 36 37  2  0  0  0
 37 38  1  0  0  0
 38 39  2  0  0  0
  4  5  1  0  0  0
  5  6  2  0  0  0
 24 20  1  0  0  0
 16  7  1  0  0  0
  6  1  1  0  0  0
 16 12  2  0  0  0
 39 34  1  0  0  0
 11 17  1  0  0  0
 11 18  1  0  0  0
 25 29  1  0  0  0
 28 30  1  0  0  0
M  END
> <minimizedAffinity>
-8.26699

> <CNNscore>
0.6036944389

> <CNNaffinity>
6.8058662415

> <CNN_VS>
4.1086635590

> <CNNaffinity_variance>
0.4569974840

$$$$
[H]c1nc(N([H])[H])c2c(-c3c([H])c([H])c(N([H])C(=O)N([H])C([H])([H])C([H])([H])C([H])([H])c4c([H])c([H])c([H])c([H])c4[H])c([H])c3[H])c([H])sc2c1-c1nc([H])n(C([H])([H])[H])c1[H]


 39 43  0  0  0  0  0  0  0  0999 V2000
    3.3082    4.1962   14.9240 C   0  0  0  0  0  0  0  0  0  0  0  0
    4.0135    3.9139   13.7809 C   0  0  0  0  0  0  0  0  0  0  0  0
    3.5928    4.2061   12.5240 C   0  0  0  0  0  0  0  0  0  0  0  0
    2.3498    4.8429   12.3492 C   0  0  0  0  0  0  0  0  0  0  0  0
    1.6422    5.1269   13.4947 C   0  0  0  0  0  0  0  0  0  0  0  0
    2.1022    4.8144   14.7625 C   0  0  0  0  0  0  0  0  0  0  0  0
    4.0921    1.6710   19.1263 C   0  0  0  0  0  0  0  0  0  0  0  0
    3.3037    0.5658   18.7598 C   0  0  0  0  0  0  0  0  0  0  0  0
    2.7544    0.6507   17.5590 N   0  0  0  0  0  0  0  0  0  0  0  0
    2.8759    1.6598   16.6897 C   0  0  0  0  0  0  0  0  0  0  0  0
    2.2134    1.4888   15.4528 N   0  0  0  0  0  0  0  0  0  0  0  0
    3.6535    2.7952   17.0065 C   0  0  0  0  0  0  0  0  0  0  0  0
    3.8985    3.8935   16.2671 C   0  0  0  0  0  0  0  0  0  0  0  0
    4.7224    4.8590   16.8288 C   0  0  0  0  0  0  0  0  0  0  0  0
    5.1060    4.2029   18.3329 S   0  0  0  0  0  0  0  0  0  0  0  0
    4.2408    2.7381   18.2491 C   0  0  0  0  0  0  0  0  0  0  0  0
    2.7815    1.3844   14.5911 H   0  0  0  0  0  0  0  0  0  0  0  0
    1.1780    1.4651   15.3897 H   0  0  0  0  0  0  0  0  0  0  0  0
    5.1579    2.1674   24.0144 C   0  0  0  0  0  0  0  0  0  0  0  0
    5.2634    1.8629   22.6064 N   0  0  0  0  0  0  0  0  0  0  0  0
    6.2955    1.3438   21.9620 C   0  0  0  0  0  0  0  0  0  0  0  0
    6.0046    1.2140   20.6644 N   0  0  0  0  0  0  0  0  0  0  0  0
    4.7301    1.6626   20.4293 C   0  0  0  0  0  0  0  0  0  0  0  0
    4.2935    2.0596   21.6538 C   0  0  0  0  0  0  0  0  0  0  0  0
    1.9600    5.1657   11.0387 N   0  0  0  0  0  0  0  0  0  0  0  0
    2.2071    6.4277   10.3993 C   0  0  0  0  0  0  0  0  0  0  0  0
    2.7752    7.2713   11.0904 O   0  0  0  0  0  0  0  0  0  0  0  0
    1.8125    6.6410    9.0773 N   0  0  0  0  0  0  0  0  0  0  0  0
    1.4566    4.4498   10.4801 H   0  0  0  0  0  0  0  0  0  0  0  0
    1.3162    5.7081    8.6624 H   0  0  0  0  0  0  0  0  0  0  0  0
    1.8400    7.6455    8.1145 C   0  0  0  0  0  0  0  0  0  0  0  0
    3.0863    8.3367    7.7418 C   0  0  0  0  0  0  0  0  0  0  0  0
    3.0278    9.3958    6.7313 C   0  0  0  0  0  0  0  0  0  0  0  0
    4.3527    9.3937    6.0038 C   0  0  0  0  0  0  0  0  0  0  0  0
    4.3931    8.5966    4.8675 C   0  0  0  0  0  0  0  0  0  0  0  0
    5.5242    8.5153    4.1238 C   0  0  0  0  0  0  0  0  0  0  0  0
    6.6475    9.2371    4.5062 C   0  0  0  0  0  0  0  0  0  0  0  0
    6.6306   10.0342    5.6295 C   0  0  0  0  0  0  0  0  0  0  0  0
    5.4469   10.0920    6.3697 C   0  0  0  0  0  0  0  0  0  0  0  0
 19 20  1  0  0  0
 20 21  1  0  0  0
 21 22  2  0  0  0
 22 23  1  0  0  0
 23 24  2  0  0  0
 23  7  1  0  0  0
  7  8  2  0  0  0
  8  9  1  0  0  0
  9 10  2  0  0  0
 10 11  1  0  0  0
 10 12  1  0  0  0
 12 13  1  0  0  0
 13 14  2  0  0  0
 14 15  1  0  0  0
 15 16  1  0  0  0
 13  1  1  0  0  0
  1  2  2  0  0  0
  2  3  1  0  0  0
  3  4  2  0  0  0
  4 25  1  0  0  0
 25 26  1  0  0  0
 26 27  2  0  0  0
 26 28  1  0  0  0
 28 31  1  0  0  0
 31 32  1  0  0  0
 32 33  1  0  0  0
 33 34  1  0  0  0
 34 35  2  0  0  0
 35 36  1  0  0  0
 36 37  2  0  0  0
 37 38  1  0  0  0
 38 39  2  0  0  0
  4  5  1  0  0  0
  5  6  2  0  0  0
 24 20  1  0  0  0
 16  7  1  0  0  0
  6  1  1  0  0  0
 16 12  2  0  0  0
 39 34  1  0  0  0
 11 17  1  0  0  0
 11 18  1  0  0  0
 25 29  1  0  0  0
 28 30  1  0  0  0
M  END
> <minimizedAffinity>
-8.60054

> <CNNscore>
0.5783588886

> <CNNaffinity>
6.5998888016

> <CNN_VS>
3.8171043396

> <CNNaffinity_variance>
0.7988435030

$$$$
[H]c1nc(N([H])[H])c2c(-c3c([H])c([H])c(N([H])C(=O)N([H])C([H])([H])C([H])([H])C([H])([H])c4c([H])c([H])c([H])c([H])c4[H])c([H])c3[H])c([H])sc2c1-c1nc([H])n(C([H])([H])[H])c1[H]


 39 43  0  0  0  0  0  0  0  0999 V2000
    3.2450    4.0907   14.9637 C   0  0  0  0  0  0  0  0  0  0  0  0
    3.8716    3.6806   13.8135 C   0  0  0  0  0  0  0  0  0  0  0  0
    3.4187    3.9296   12.5585 C   0  0  0  0  0  0  0  0  0  0  0  0
    2.2248    4.6567   12.3937 C   0  0  0  0  0  0  0  0  0  0  0  0
    1.5961    5.0688   13.5463 C   0  0  0  0  0  0  0  0  0  0  0  0
    2.0871    4.7969   14.8118 C   0  0  0  0  0  0  0  0  0  0  0  0
    4.1493    1.6660   19.2009 C   0  0  0  0  0  0  0  0  0  0  0  0
    3.3605    0.5474   18.8785 C   0  0  0  0  0  0  0  0  0  0  0  0
    2.7815    0.6015   17.6898 N   0  0  0  0  0  0  0  0  0  0  0  0
    2.8745    1.5917   16.7955 C   0  0  0  0  0  0  0  0  0  0  0  0
    2.1835    1.3884   15.5794 N   0  0  0  0  0  0  0  0  0  0  0  0
    3.6511    2.7393   17.0679 C   0  0  0  0  0  0  0  0  0  0  0  0
    3.8699    3.8223   16.2985 C   0  0  0  0  0  0  0  0  0  0  0  0
    4.7000    4.8058   16.8181 C   0  0  0  0  0  0  0  0  0  0  0  0
    5.1249    4.1864   18.3267 S   0  0  0  0  0  0  0  0  0  0  0  0
    4.2688    2.7141   18.2968 C   0  0  0  0  0  0  0  0  0  0  0  0
    2.7312    1.2685   14.7065 H   0  0  0  0  0  0  0  0  0  0  0  0
    1.1470    1.3561   15.5421 H   0  0  0  0  0  0  0  0  0  0  0  0
    5.3172    2.2457   24.0563 C   0  0  0  0  0  0  0  0  0  0  0  0
    5.3982    1.9305   22.6490 N   0  0  0  0  0  0  0  0  0  0  0  0
    6.4306    1.4385   21.9842 C   0  0  0  0  0  0  0  0  0  0  0  0
    6.1125    1.2863   20.6955 N   0  0  0  0  0  0  0  0  0  0  0  0
    4.8188    1.6912   20.4878 C   0  0  0  0  0  0  0  0  0  0  0  0
    4.3995    2.0864   21.7189 C   0  0  0  0  0  0  0  0  0  0  0  0
    1.8026    4.9302   11.0820 N   0  0  0  0  0  0  0  0  0  0  0  0
    0.7134    4.2694   10.4190 C   0  0  0  0  0  0  0  0  0  0  0  0
    0.1547    3.3859   11.0664 O   0  0  0  0  0  0  0  0  0  0  0  0
    0.3447    4.6377    9.1238 N   0  0  0  0  0  0  0  0  0  0  0  0
    2.3046    5.6605   10.5410 H   0  0  0  0  0  0  0  0  0  0  0  0
    1.0108    5.4785    8.7521 H   0  0  0  0  0  0  0  0  0  0  0  0
   -0.5868    4.2896    8.1502 C   0  0  0  0  0  0  0  0  0  0  0  0
   -2.0357    4.3010    8.4155 C   0  0  0  0  0  0  0  0  0  0  0  0
   -2.9273    3.6114    7.4795 C   0  0  0  0  0  0  0  0  0  0  0  0
   -3.2697    2.2725    8.0918 C   0  0  0  0  0  0  0  0  0  0  0  0
   -2.6639    1.1809    7.4837 C   0  0  0  0  0  0  0  0  0  0  0  0
   -2.8864   -0.0748    7.9448 C   0  0  0  0  0  0  0  0  0  0  0  0
   -3.7272   -0.2645    9.0339 C   0  0  0  0  0  0  0  0  0  0  0  0
   -4.3389    0.8033    9.6530 C   0  0  0  0  0  0  0  0  0  0  0  0
   -4.0849    2.0815    9.1489 C   0  0  0  0  0  0  0  0  0  0  0  0
 19 20  1  0  0  0
 20 21  1  0  0  0
 21 22  2  0  0  0
 22 23  1  0  0  0
 23 24  2  0  0  0
 23  7  1  0  0  0
  7  8  2  0  0  0
  8  9  1  0  0  0
  9 10  2  0  0  0
 10 11  1  0  0  0
 10 12  1  0  0  0
 12 13  1  0  0  0
 13 14  2  0  0  0
 14 15  1  0  0  0
 15 16  1  0  0  0
 13  1  1  0  0  0
  1  2  2  0  0  0
  2  3  1  0  0  0
  3  4  2  0  0  0
  4 25  1  0  0  0
 25 26  1  0  0  0
 26 27  2  0  0  0
 26 28  1  0  0  0
 28 31  1  0  0  0
 31 32  1  0  0  0
 32 33  1  0  0  0
 33 34  1  0  0  0
 34 35  2  0  0  0
 35 36  1  0  0  0
 36 37  2  0  0  0
 37 38  1  0  0  0
 38 39  2  0  0  0
  4  5  1  0  0  0
  5  6  2  0  0  0
 24 20  1  0  0  0
 16  7  1  0  0  0
  6  1  1  0  0  0
 16 12  2  0  0  0
 39 34  1  0  0  0
 11 17  1  0  0  0
 11 18  1  0  0  0
 25 29  1  0  0  0
 28 30  1  0  0  0
M  END
> <minimizedAffinity>
-7.24181

> <CNNscore>
0.5780193210

> <CNNaffinity>
6.9239454269

> <CNN_VS>
4.0021743774

> <CNNaffinity_variance>
1.0642521381

$$$$
[H]c1nc(N([H])[H])c2c(-c3c([H])c([H])c(N([H])C(=O)N([H])C([H])([H])C([H])([H])C([H])([H])c4c([H])c([H])c([H])c([H])c4[H])c([H])c3[H])c([H])sc2c1-c1nc([H])n(C([H])([H])[H])c1[H]


 39 43  0  0  0  0  0  0  0  0999 V2000
    2.9876    2.9784   15.0253 C   0  0  0  0  0  0  0  0  0  0  0  0
    1.8091    2.4087   14.6125 C   0  0  0  0  0  0  0  0  0  0  0  0
    1.3205    2.4790   13.3482 C   0  0  0  0  0  0  0  0  0  0  0  0
    2.0516    3.1790   12.3701 C   0  0  0  0  0  0  0  0  0  0  0  0
    3.2335    3.7501   12.7828 C   0  0  0  0  0  0  0  0  0  0  0  0
    3.7024    3.6583   14.0821 C   0  0  0  0  0  0  0  0  0  0  0  0
    4.0678    4.1854   19.7186 C   0  0  0  0  0  0  0  0  0  0  0  0
    3.5380    5.4857   19.6409 C   0  0  0  0  0  0  0  0  0  0  0  0
    3.0109    5.8003   18.4687 N   0  0  0  0  0  0  0  0  0  0  0  0
    2.9387    5.0197   17.3850 C   0  0  0  0  0  0  0  0  0  0  0  0
    2.2912    5.5846   16.2627 N   0  0  0  0  0  0  0  0  0  0  0  0
    3.4566    3.7062   17.4063 C   0  0  0  0  0  0  0  0  0  0  0  0
    3.4690    2.7792   16.4298 C   0  0  0  0  0  0  0  0  0  0  0  0
    4.0365    1.5502   16.7362 C   0  0  0  0  0  0  0  0  0  0  0  0
    4.5187    1.7435   18.3394 S   0  0  0  0  0  0  0  0  0  0  0  0
    4.0112    3.3464   18.6127 C   0  0  0  0  0  0  0  0  0  0  0  0
    1.3854    5.1843   15.9536 H   0  0  0  0  0  0  0  0  0  0  0  0
    2.7000    6.3860   15.7458 H   0  0  0  0  0  0  0  0  0  0  0  0
    4.9967    2.0932   24.1946 C   0  0  0  0  0  0  0  0  0  0  0  0
    5.1394    2.8491   22.9721 N   0  0  0  0  0  0  0  0  0  0  0  0
    6.1794    3.5634   22.5746 C   0  0  0  0  0  0  0  0  0  0  0  0
    5.9257    4.1152   21.3845 N   0  0  0  0  0  0  0  0  0  0  0  0
    4.6689    3.7579   20.9679 C   0  0  0  0  0  0  0  0  0  0  0  0
    4.2037    2.9711   21.9739 C   0  0  0  0  0  0  0  0  0  0  0  0
    1.5380    3.2016   11.0628 N   0  0  0  0  0  0  0  0  0  0  0  0
    0.6233    4.1883   10.5604 C   0  0  0  0  0  0  0  0  0  0  0  0
    0.2628    5.0401   11.3706 O   0  0  0  0  0  0  0  0  0  0  0  0
    0.1970    4.1473    9.2316 N   0  0  0  0  0  0  0  0  0  0  0  0
    1.8324    2.4579   10.4008 H   0  0  0  0  0  0  0  0  0  0  0  0
    0.6775    3.2705    8.6941 H   0  0  0  0  0  0  0  0  0  0  0  0
   -0.6360    4.8501    8.3662 C   0  0  0  0  0  0  0  0  0  0  0  0
   -0.6111    6.3204    8.2797 C   0  0  0  0  0  0  0  0  0  0  0  0
    0.6389    6.9811    7.8958 C   0  0  0  0  0  0  0  0  0  0  0  0
    0.3007    7.9884    6.8208 C   0  0  0  0  0  0  0  0  0  0  0  0
    1.0997    9.1241    6.8132 C   0  0  0  0  0  0  0  0  0  0  0  0
    0.9002   10.0996    5.8925 C   0  0  0  0  0  0  0  0  0  0  0  0
   -0.1121    9.9563    4.9525 C   0  0  0  0  0  0  0  0  0  0  0  0
   -0.9170    8.8384    4.9409 C   0  0  0  0  0  0  0  0  0  0  0  0
   -0.6806    7.8553    5.9053 C   0  0  0  0  0  0  0  0  0  0  0  0
 19 20  1  0  0  0
 20 21  1  0  0  0
 21 22  2  0  0  0
 22 23  1  0  0  0
 23 24  2  0  0  0
 23  7  1  0  0  0
  7  8  2  0  0  0
  8  9  1  0  0  0
  9 10  2  0  0  0
 10 11  1  0  0  0
 10 12  1  0  0  0
 12 13  1  0  0  0
 13 14  2  0  0  0
 14 15  1  0  0  0
 15 16  1  0  0  0
 13  1  1  0  0  0
  1  2  2  0  0  0
  2  3  1  0  0  0
  3  4  2  0  0  0
  4 25  1  0  0  0
 25 26  1  0  0  0
 26 27  2  0  0  0
 26 28  1  0  0  0
 28 31  1  0  0  0
 31 32  1  0  0  0
 32 33  1  0  0  0
 33 34  1  0  0  0
 34 35  2  0  0  0
 35 36  1  0  0  0
 36 37  2  0  0  0
 37 38  1  0  0  0
 38 39  2  0  0  0
  4  5  1  0  0  0
  5  6  2  0  0  0
 24 20  1  0  0  0
 16  7  1  0  0  0
  6  1  1  0  0  0
 16 12  2  0  0  0
 39 34  1  0  0  0
 11 17  1  0  0  0
 11 18  1  0  0  0
 25 29  1  0  0  0
 28 30  1  0  0  0
M  END
> <minimizedAffinity>
-7.50967

> <CNNscore>
0.2361849546

> <CNNaffinity>
6.0635881424

> <CNN_VS>
1.4321283102

> <CNNaffinity_variance>
0.2516960502

$$$$
[H]c1nc(N([H])[H])c2c(-c3c([H])c([H])c(N([H])C(=O)N([H])C([H])([H])C([H])([H])C([H])([H])c4c([H])c([H])c([H])c([H])c4[H])c([H])c3[H])c([H])sc2c1-c1nc([H])n(C([H])([H])[H])c1[H]


 39 43  0  0  0  0  0  0  0  0999 V2000
    2.9631    2.8781   15.0009 C   0  0  0  0  0  0  0  0  0  0  0  0
    3.6766    3.6375   14.1077 C   0  0  0  0  0  0  0  0  0  0  0  0
    3.2804    3.9095   12.8384 C   0  0  0  0  0  0  0  0  0  0  0  0
    2.0564    3.3894   12.3774 C   0  0  0  0  0  0  0  0  0  0  0  0
    1.3399    2.6283   13.2724 C   0  0  0  0  0  0  0  0  0  0  0  0
    1.7747    2.3710   14.5613 C   0  0  0  0  0  0  0  0  0  0  0  0
    4.0534    4.1401   19.6773 C   0  0  0  0  0  0  0  0  0  0  0  0
    3.4945    5.4279   19.5954 C   0  0  0  0  0  0  0  0  0  0  0  0
    2.9513    5.7230   18.4254 N   0  0  0  0  0  0  0  0  0  0  0  0
    2.8879    4.9337   17.3475 C   0  0  0  0  0  0  0  0  0  0  0  0
    2.2192    5.4766   16.2267 N   0  0  0  0  0  0  0  0  0  0  0  0
    3.4347    3.6320   17.3733 C   0  0  0  0  0  0  0  0  0  0  0  0
    3.4599    2.6990   16.4028 C   0  0  0  0  0  0  0  0  0  0  0  0
    4.0567    1.4849   16.7127 C   0  0  0  0  0  0  0  0  0  0  0  0
    4.5472    1.6996   18.3107 S   0  0  0  0  0  0  0  0  0  0  0  0
    4.0066    3.2927   18.5775 C   0  0  0  0  0  0  0  0  0  0  0  0
    1.3200    5.0544   15.9275 H   0  0  0  0  0  0  0  0  0  0  0  0
    2.6062    6.2834   15.7013 H   0  0  0  0  0  0  0  0  0  0  0  0
    5.0665    2.0928   24.1559 C   0  0  0  0  0  0  0  0  0  0  0  0
    5.1810    2.8472   22.9294 N   0  0  0  0  0  0  0  0  0  0  0  0
    6.1988    3.5878   22.5225 C   0  0  0  0  0  0  0  0  0  0  0  0
    5.9228    4.1275   21.3319 N   0  0  0  0  0  0  0  0  0  0  0  0
    4.6736    3.7345   20.9246 C   0  0  0  0  0  0  0  0  0  0  0  0
    4.2362    2.9395   21.9367 C   0  0  0  0  0  0  0  0  0  0  0  0
    1.6567    3.7199   11.0718 N   0  0  0  0  0  0  0  0  0  0  0  0
    0.8646    4.8664   10.7246 C   0  0  0  0  0  0  0  0  0  0  0  0
    0.5035    5.5681   11.6675 O   0  0  0  0  0  0  0  0  0  0  0  0
    0.5487    5.1312    9.3907 N   0  0  0  0  0  0  0  0  0  0  0  0
    1.9481    3.0999   10.2916 H   0  0  0  0  0  0  0  0  0  0  0  0
    1.0044    4.3395    8.7167 H   0  0  0  0  0  0  0  0  0  0  0  0
   -0.1536    6.0659    8.6358 C   0  0  0  0  0  0  0  0  0  0  0  0
   -1.6054    6.2625    8.7892 C   0  0  0  0  0  0  0  0  0  0  0  0
   -2.4370    5.1103    9.1461 C   0  0  0  0  0  0  0  0  0  0  0  0
   -3.7228    5.6502    9.7292 C   0  0  0  0  0  0  0  0  0  0  0  0
   -3.8208    5.5576   11.1113 C   0  0  0  0  0  0  0  0  0  0  0  0
   -4.9238    6.0136   11.7550 C   0  0  0  0  0  0  0  0  0  0  0  0
   -5.9602    6.5765   11.0214 C   0  0  0  0  0  0  0  0  0  0  0  0
   -5.8849    6.6788    9.6497 C   0  0  0  0  0  0  0  0  0  0  0  0
   -4.7325    6.1979    9.0228 C   0  0  0  0  0  0  0  0  0  0  0  0
 19 20  1  0  0  0
 20 21  1  0  0  0
 21 22  2  0  0  0
 22 23  1  0  0  0
 23 24  2  0  0  0
 23  7  1  0  0  0
  7  8  2  0  0  0
  8  9  1  0  0  0
  9 10  2  0  0  0
 10 11  1  0  0  0
 10 12  1  0  0  0
 12 13  1  0  0  0
 13 14  2  0  0  0
 14 15  1  0  0  0
 15 16  1  0  0  0
 13  1  1  0  0  0
  1  2  2  0  0  0
  2  3  1  0  0  0
  3  4  2  0  0  0
  4 25  1  0  0  0
 25 26  1  0  0  0
 26 27  2  0  0  0
 26 28  1  0  0  0
 28 31  1  0  0  0
 31 32  1  0  0  0
 32 33  1  0  0  0
 33 34  1  0  0  0
 34 35  2  0  0  0
 35 36  1  0  0  0
 36 37  2  0  0  0
 37 38  1  0  0  0
 38 39  2  0  0  0
  4  5  1  0  0  0
  5  6  2  0  0  0
 24 20  1  0  0  0
 16  7  1  0  0  0
  6  1  1  0  0  0
 16 12  2  0  0  0
 39 34  1  0  0  0
 11 17  1  0  0  0
 11 18  1  0  0  0
 25 29  1  0  0  0
 28 30  1  0  0  0
M  END
> <minimizedAffinity>
-8.56929

> <CNNscore>
0.2162090391

> <CNNaffinity>
6.1777629852

> <CNN_VS>
1.3356882334

> <CNNaffinity_variance>
0.1909635365

$$$$
[H]c1nc(N([H])[H])c2c(-c3c([H])c([H])c(N([H])C(=O)N([H])C([H])([H])C([H])([H])C([H])([H])c4c([H])c([H])c([H])c([H])c4[H])c([H])c3[H])c([H])sc2c1-c1nc([H])n(C([H])([H])[H])c1[H]


 39 43  0  0  0  0  0  0  0  0999 V2000
    3.2109    4.1992   13.7342 C   0  0  0  0  0  0  0  0  0  0  0  0
    2.0482    4.8325   13.3725 C   0  0  0  0  0  0  0  0  0  0  0  0
    1.8340    5.4219   12.1689 C   0  0  0  0  0  0  0  0  0  0  0  0
    2.8582    5.3984   11.2037 C   0  0  0  0  0  0  0  0  0  0  0  0
    4.0241    4.7632   11.5651 C   0  0  0  0  0  0  0  0  0  0  0  0
    4.2083    4.1717   12.8031 C   0  0  0  0  0  0  0  0  0  0  0  0
    4.4678    3.6181   18.5021 C   0  0  0  0  0  0  0  0  0  0  0  0
    4.9860    4.9161   18.6565 C   0  0  0  0  0  0  0  0  0  0  0  0
    4.9104    5.6753   17.5752 N   0  0  0  0  0  0  0  0  0  0  0  0
    4.4027    5.3317   16.3865 C   0  0  0  0  0  0  0  0  0  0  0  0
    4.4086    6.3438   15.3999 N   0  0  0  0  0  0  0  0  0  0  0  0
    3.8710    4.0407   16.1751 C   0  0  0  0  0  0  0  0  0  0  0  0
    3.3156    3.5192   15.0649 C   0  0  0  0  0  0  0  0  0  0  0  0
    2.8563    2.2120   15.1457 C   0  0  0  0  0  0  0  0  0  0  0  0
    3.2167    1.7802   16.7343 S   0  0  0  0  0  0  0  0  0  0  0  0
    3.9328    3.2256   17.2815 C   0  0  0  0  0  0  0  0  0  0  0  0
    3.5027    6.7313   15.0751 H   0  0  0  0  0  0  0  0  0  0  0  0
    5.2940    6.7050   14.9972 H   0  0  0  0  0  0  0  0  0  0  0  0
    4.0887    1.5221   23.0561 C   0  0  0  0  0  0  0  0  0  0  0  0
    4.3705    1.7279   21.6544 N   0  0  0  0  0  0  0  0  0  0  0  0
    4.9150    0.8762   20.8011 C   0  0  0  0  0  0  0  0  0  0  0  0
    5.0115    1.4396   19.5934 N   0  0  0  0  0  0  0  0  0  0  0  0
    4.5134    2.7166   19.6380 C   0  0  0  0  0  0  0  0  0  0  0  0
    4.1221    2.8687   20.9308 C   0  0  0  0  0  0  0  0  0  0  0  0
    2.5921    5.9841    9.9548 N   0  0  0  0  0  0  0  0  0  0  0  0
    2.6355    7.3945    9.6871 C   0  0  0  0  0  0  0  0  0  0  0  0
    2.8974    8.1106   10.6517 O   0  0  0  0  0  0  0  0  0  0  0  0
    2.3909    7.8789    8.4008 N   0  0  0  0  0  0  0  0  0  0  0  0
    2.3454    5.3651    9.1586 H   0  0  0  0  0  0  0  0  0  0  0  0
    2.1799    7.0173    7.6924 H   0  0  0  0  0  0  0  0  0  0  0  0
    2.3255    9.0923    7.7225 C   0  0  0  0  0  0  0  0  0  0  0  0
    3.2977    9.4568    6.6776 C   0  0  0  0  0  0  0  0  0  0  0  0
    4.7188    9.5152    7.0289 C   0  0  0  0  0  0  0  0  0  0  0  0
    5.5027    9.4138    5.7405 C   0  0  0  0  0  0  0  0  0  0  0  0
    6.6234   10.2312    5.6736 C   0  0  0  0  0  0  0  0  0  0  0  0
    7.4134   10.2267    4.5714 C   0  0  0  0  0  0  0  0  0  0  0  0
    7.0947    9.3963    3.5047 C   0  0  0  0  0  0  0  0  0  0  0  0
    5.9881    8.5770    3.5489 C   0  0  0  0  0  0  0  0  0  0  0  0
    5.1988    8.6098    4.7014 C   0  0  0  0  0  0  0  0  0  0  0  0
 19 20  1  0  0  0
 20 21  1  0  0  0
 21 22  2  0  0  0
 22 23  1  0  0  0
 23 24  2  0  0  0
 23  7  1  0  0  0
  7  8  2  0  0  0
  8  9  1  0  0  0
  9 10  2  0  0  0
 10 11  1  0  0  0
 10 12  1  0  0  0
 12 13  1  0  0  0
 13 14  2  0  0  0
 14 15  1  0  0  0
 15 16  1  0  0  0
 13  1  1  0  0  0
  1  2  2  0  0  0
  2  3  1  0  0  0
  3  4  2  0  0  0
  4 25  1  0  0  0
 25 26  1  0  0  0
 26 27  2  0  0  0
 26 28  1  0  0  0
 28 31  1  0  0  0
 31 32  1  0  0  0
 32 33  1  0  0  0
 33 34  1  0  0  0
 34 35  2  0  0  0
 35 36  1  0  0  0
 36 37  2  0  0  0
 37 38  1  0  0  0
 38 39  2  0  0  0
  4  5  1  0  0  0
  5  6  2  0  0  0
 24 20  1  0  0  0
 16  7  1  0  0  0
  6  1  1  0  0  0
 16 12  2  0  0  0
 39 34  1  0  0  0
 11 17  1  0  0  0
 11 18  1  0  0  0
 25 29  1  0  0  0
 28 30  1  0  0  0
M  END
> <minimizedAffinity>
-8.41877

> <CNNscore>
0.2159105688

> <CNNaffinity>
5.9363379478

> <CNN_VS>
1.2817181349

> <CNNaffinity_variance>
0.2664647102

$$$$
[H]c1nc(N([H])[H])c2c(-c3c([H])c([H])c(N([H])C(=O)N([H])C([H])([H])C([H])([H])C([H])([H])c4c([H])c([H])c([H])c([H])c4[H])c([H])c3[H])c([H])sc2c1-c1nc([H])n(C([H])([H])[H])c1[H]


 39 43  0  0  0  0  0  0  0  0999 V2000
    2.8558    2.3704   14.9853 C   0  0  0  0  0  0  0  0  0  0  0  0
    3.5663    3.0271   14.0118 C   0  0  0  0  0  0  0  0  0  0  0  0
    3.1662    3.1577   12.7215 C   0  0  0  0  0  0  0  0  0  0  0  0
    1.9412    2.5897   12.3242 C   0  0  0  0  0  0  0  0  0  0  0  0
    1.2278    1.9315   13.2997 C   0  0  0  0  0  0  0  0  0  0  0  0
    1.6665    1.8177   14.6077 C   0  0  0  0  0  0  0  0  0  0  0  0
    3.9713    4.1429   19.4869 C   0  0  0  0  0  0  0  0  0  0  0  0
    3.4198    5.4169   19.2626 C   0  0  0  0  0  0  0  0  0  0  0  0
    2.8739    5.5820   18.0685 N   0  0  0  0  0  0  0  0  0  0  0  0
    2.8017    4.6771   17.0863 C   0  0  0  0  0  0  0  0  0  0  0  0
    2.1321    5.0949   15.9137 N   0  0  0  0  0  0  0  0  0  0  0  0
    3.3409    3.3831   17.2565 C   0  0  0  0  0  0  0  0  0  0  0  0
    3.3569    2.3469   16.3969 C   0  0  0  0  0  0  0  0  0  0  0  0
    3.9476    1.1715   16.8395 C   0  0  0  0  0  0  0  0  0  0  0  0
    4.4454    1.5612   18.4016 S   0  0  0  0  0  0  0  0  0  0  0  0
    3.9153    3.1776   18.4894 C   0  0  0  0  0  0  0  0  0  0  0  0
    1.2293    4.6474   15.6666 H   0  0  0  0  0  0  0  0  0  0  0  0
    2.5218    5.8350   15.2998 H   0  0  0  0  0  0  0  0  0  0  0  0
    5.1308    2.3703   24.0464 C   0  0  0  0  0  0  0  0  0  0  0  0
    5.1601    3.1216   22.8131 N   0  0  0  0  0  0  0  0  0  0  0  0
    6.0353    4.0415   22.4420 C   0  0  0  0  0  0  0  0  0  0  0  0
    5.7214    4.5069   21.2296 N   0  0  0  0  0  0  0  0  0  0  0  0
    4.5938    3.8760   20.7700 C   0  0  0  0  0  0  0  0  0  0  0  0
    4.2669    3.0205   21.7744 C   0  0  0  0  0  0  0  0  0  0  0  0
    1.5375    2.7744   10.9914 N   0  0  0  0  0  0  0  0  0  0  0  0
    1.8288    1.8686    9.9157 C   0  0  0  0  0  0  0  0  0  0  0  0
    2.5085    0.8887   10.2154 O   0  0  0  0  0  0  0  0  0  0  0  0
    1.3512    2.1211    8.6283 N   0  0  0  0  0  0  0  0  0  0  0  0
    0.9878    3.6221   10.7522 H   0  0  0  0  0  0  0  0  0  0  0  0
    0.7481    3.0827    8.6170 H   0  0  0  0  0  0  0  0  0  0  0  0
    1.3891    1.5566    7.3568 C   0  0  0  0  0  0  0  0  0  0  0  0
    0.9305    0.1807    7.0988 C   0  0  0  0  0  0  0  0  0  0  0  0
   -0.2220   -0.3282    7.8465 C   0  0  0  0  0  0  0  0  0  0  0  0
    0.1975   -1.6347    8.4804 C   0  0  0  0  0  0  0  0  0  0  0  0
    1.5648   -1.8771    8.4672 C   0  0  0  0  0  0  0  0  0  0  0  0
    2.0676   -3.0128    9.0115 C   0  0  0  0  0  0  0  0  0  0  0  0
    1.2039   -3.9369    9.5852 C   0  0  0  0  0  0  0  0  0  0  0  0
   -0.1558   -3.7177    9.6098 C   0  0  0  0  0  0  0  0  0  0  0  0
   -0.6357   -2.5360    9.0390 C   0  0  0  0  0  0  0  0  0  0  0  0
 19 20  1  0  0  0
 20 21  1  0  0  0
 21 22  2  0  0  0
 22 23  1  0  0  0
 23 24  2  0  0  0
 23  7  1  0  0  0
  7  8  2  0  0  0
  8  9  1  0  0  0
  9 10  2  0  0  0
 10 11  1  0  0  0
 10 12  1  0  0  0
 12 13  1  0  0  0
 13 14  2  0  0  0
 14 15  1  0  0  0
 15 16  1  0  0  0
 13  1  1  0  0  0
  1  2  2  0  0  0
  2  3  1  0  0  0
  3  4  2  0  0  0
  4 25  1  0  0  0
 25 26  1  0  0  0
 26 27  2  0  0  0
 26 28  1  0  0  0
 28 31  1  0  0  0
 31 32  1  0  0  0
 32 33  1  0  0  0
 33 34  1  0  0  0
 34 35  2  0  0  0
 35 36  1  0  0  0
 36 37  2  0  0  0
 37 38  1  0  0  0
 38 39  2  0  0  0
  4  5  1  0  0  0
  5  6  2  0  0  0
 24 20  1  0  0  0
 16  7  1  0  0  0
  6  1  1  0  0  0
 16 12  2  0  0  0
 39 34  1  0  0  0
 11 17  1  0  0  0
 11 18  1  0  0  0
 25 29  1  0  0  0
 28 30  1  0  0  0
M  END
> <minimizedAffinity>
-7.46450

> <CNNscore>
0.1554760635

> <CNNaffinity>
6.2777805328

> <CNN_VS>
0.9760445952

> <CNNaffinity_variance>
0.2020479441

$$$$
[H]c1nc(N([H])[H])c2c(-c3c([H])c([H])c(N([H])C(=O)N([H])C([H])([H])C([H])([H])C([H])([H])c4c([H])c([H])c([H])c([H])c4[H])c([H])c3[H])c([H])sc2c1-c1nc([H])n(C([H])([H])[H])c1[H]


 39 43  0  0  0  0  0  0  0  0999 V2000
    2.8427    4.0706   13.4664 C   0  0  0  0  0  0  0  0  0  0  0  0
    2.8685    2.7087   13.2986 C   0  0  0  0  0  0  0  0  0  0  0  0
    2.6502    1.8061   14.2885 C   0  0  0  0  0  0  0  0  0  0  0  0
    2.3762    2.2697   15.5889 C   0  0  0  0  0  0  0  0  0  0  0  0
    2.3497    3.6351   15.7581 C   0  0  0  0  0  0  0  0  0  0  0  0
    2.5769    4.5277   14.7246 C   0  0  0  0  0  0  0  0  0  0  0  0
    1.5470    6.7537    9.4949 C   0  0  0  0  0  0  0  0  0  0  0  0
    0.1652    6.5365    9.6396 C   0  0  0  0  0  0  0  0  0  0  0  0
   -0.1731    5.7954   10.6824 N   0  0  0  0  0  0  0  0  0  0  0  0
    0.6528    5.2508   11.5824 C   0  0  0  0  0  0  0  0  0  0  0  0
    0.0330    4.5283   12.6273 N   0  0  0  0  0  0  0  0  0  0  0  0
    2.0495    5.4348   11.4843 C   0  0  0  0  0  0  0  0  0  0  0  0
    3.0277    4.9781   12.2889 C   0  0  0  0  0  0  0  0  0  0  0  0
    4.3291    5.3299   11.9590 C   0  0  0  0  0  0  0  0  0  0  0  0
    4.1303    6.2600   10.5678 S   0  0  0  0  0  0  0  0  0  0  0  0
    2.4352    6.2031   10.4104 C   0  0  0  0  0  0  0  0  0  0  0  0
    0.0878    4.9004   13.5942 H   0  0  0  0  0  0  0  0  0  0  0  0
   -0.4727    3.6400   12.4483 H   0  0  0  0  0  0  0  0  0  0  0  0
    3.7235    8.3994    5.2723 C   0  0  0  0  0  0  0  0  0  0  0  0
    2.9587    8.3463    6.4965 N   0  0  0  0  0  0  0  0  0  0  0  0
    2.2850    9.3254    7.0773 C   0  0  0  0  0  0  0  0  0  0  0  0
    1.7088    8.8805    8.1977 N   0  0  0  0  0  0  0  0  0  0  0  0
    2.0069    7.5537    8.3753 C   0  0  0  0  0  0  0  0  0  0  0  0
    2.7847    7.2483    7.3032 C   0  0  0  0  0  0  0  0  0  0  0  0
    2.1179    1.3112   16.5829 N   0  0  0  0  0  0  0  0  0  0  0  0
    3.0119    0.9880   17.6595 C   0  0  0  0  0  0  0  0  0  0  0  0
    4.0830    1.5918   17.6600 O   0  0  0  0  0  0  0  0  0  0  0  0
    2.6489    0.0445   18.6223 N   0  0  0  0  0  0  0  0  0  0  0  0
    1.2196    0.7916   16.5499 H   0  0  0  0  0  0  0  0  0  0  0  0
    1.6124   -0.3618   18.3999 H   0  0  0  0  0  0  0  0  0  0  0  0
    3.1681   -0.5504   19.7683 C   0  0  0  0  0  0  0  0  0  0  0  0
    3.6101    0.2424   20.9284 C   0  0  0  0  0  0  0  0  0  0  0  0
    5.0383    0.5320   21.0792 C   0  0  0  0  0  0  0  0  0  0  0  0
    5.1704    2.0185   21.3193 C   0  0  0  0  0  0  0  0  0  0  0  0
    6.2959    2.3953   22.0401 C   0  0  0  0  0  0  0  0  0  0  0  0
    6.5310    3.7021   22.3155 C   0  0  0  0  0  0  0  0  0  0  0  0
    5.6361    4.6666   21.8707 C   0  0  0  0  0  0  0  0  0  0  0  0
    4.5130    4.3162   21.1540 C   0  0  0  0  0  0  0  0  0  0  0  0
    4.3054    2.9599   20.8902 C   0  0  0  0  0  0  0  0  0  0  0  0
 19 20  1  0  0  0
 20 21  1  0  0  0
 21 22  2  0  0  0
 22 23  1  0  0  0
 23 24  2  0  0  0
 23  7  1  0  0  0
  7  8  2  0  0  0
  8  9  1  0  0  0
  9 10  2  0  0  0
 10 11  1  0  0  0
 10 12  1  0  0  0
 12 13  1  0  0  0
 13 14  2  0  0  0
 14 15  1  0  0  0
 15 16  1  0  0  0
 13  1  1  0  0  0
  1  2  2  0  0  0
  2  3  1  0  0  0
  3  4  2  0  0  0
  4 25  1  0  0  0
 25 26  1  0  0  0
 26 27  2  0  0  0
 26 28  1  0  0  0
 28 31  1  0  0  0
 31 32  1  0  0  0
 32 33  1  0  0  0
 33 34  1  0  0  0
 34 35  2  0  0  0
 35 36  1  0  0  0
 36 37  2  0  0  0
 37 38  1  0  0  0
 38 39  2  0  0  0
  4  5  1  0  0  0
  5  6  2  0  0  0
 24 20  1  0  0  0
 16  7  1  0  0  0
  6  1  1  0  0  0
 16 12  2  0  0  0
 39 34  1  0  0  0
 11 17  1  0  0  0
 11 18  1  0  0  0
 25 29  1  0  0  0
 28 30  1  0  0  0
M  END
> <minimizedAffinity>
-7.77057

> <CNNscore>
0.1066566855

> <CNNaffinity>
6.1430006027

> <CNN_VS>
0.6551920772

> <CNNaffinity_variance>
0.1544783860

$$$$
[H]c1nc2c([H])c(C([H])([H])[H])c([H])c([H])n2c1C(=O)N([H])c1c([H])c(N2C([H])([H])C([H])([H])N(C(=O)N([H])c3c([H])c([H])c(OC(F)(F)F)c([H])c3[H])C([H])([H])C2([H])[H])c([H])c([H])c1C([H])([H])[H]


 42 46  0  0  0  0  0  0  0  0999 V2000
    0.5388    5.6696    9.7951 C   0  0  0  0  0  0  0  0  0  0  0  0
    0.7156    6.1825   11.0628 C   0  0  0  0  0  0  0  0  0  0  0  0
    1.7706    5.8007   11.8944 C   0  0  0  0  0  0  0  0  0  0  0  0
    2.6728    4.8734   11.4312 C   0  0  0  0  0  0  0  0  0  0  0  0
    2.5391    4.3314   10.1721 C   0  0  0  0  0  0  0  0  0  0  0  0
    1.4943    4.7260    9.3800 C   0  0  0  0  0  0  0  0  0  0  0  0
    1.3717    4.1341    8.0412 C   0  0  0  0  0  0  0  0  0  0  0  0
    1.9222    6.3700   13.1822 N   0  0  0  0  0  0  0  0  0  0  0  0
    2.9827    7.3210   13.4307 C   0  0  0  0  0  0  0  0  0  0  0  0
    3.8119    6.8857   14.5810 C   0  0  0  0  0  0  0  0  0  0  0  0
    3.1526    6.0874   15.5747 N   0  0  0  0  0  0  0  0  0  0  0  0
    1.8199    5.5680   15.4917 C   0  0  0  0  0  0  0  0  0  0  0  0
    1.0584    6.0840   14.3041 C   0  0  0  0  0  0  0  0  0  0  0  0
    3.9086    5.7819   16.7718 C   0  0  0  0  0  0  0  0  0  0  0  0
    5.0769    6.2112   16.9044 O   0  0  0  0  0  0  0  0  0  0  0  0
    3.3479    5.0001   17.8051 N   0  0  0  0  0  0  0  0  0  0  0  0
    2.3419    4.6827   17.5883 H   0  0  0  0  0  0  0  0  0  0  0  0
    3.9113    4.6104   19.0185 C   0  0  0  0  0  0  0  0  0  0  0  0
    4.5465    3.3566   19.0634 C   0  0  0  0  0  0  0  0  0  0  0  0
    5.1277    2.8555   20.2007 C   0  0  0  0  0  0  0  0  0  0  0  0
    5.1001    3.5925   21.3566 C   0  0  0  0  0  0  0  0  0  0  0  0
    4.4878    4.8120   21.3326 C   0  0  0  0  0  0  0  0  0  0  0  0
    3.8925    5.3258   20.1692 C   0  0  0  0  0  0  0  0  0  0  0  0
    5.6797    3.0989   22.5003 O   0  0  0  0  0  0  0  0  0  0  0  0
    4.9179    2.4907   23.5361 C   0  0  0  0  0  0  0  0  0  0  0  0
    5.7934    2.1341   24.5453 F   0  0  0  0  0  0  0  0  0  0  0  0
    4.0441    3.4257   24.0833 F   0  0  0  0  0  0  0  0  0  0  0  0
    4.2422    1.3793   23.0924 F   0  0  0  0  0  0  0  0  0  0  0  0
   -0.6405    7.1165    8.0780 C   0  0  0  0  0  0  0  0  0  0  0  0
    0.2722    8.0117    8.0891 O   0  0  0  0  0  0  0  0  0  0  0  0
   -0.4847    5.9948    8.9011 N   0  0  0  0  0  0  0  0  0  0  0  0
   -1.2573    5.2689    8.7945 H   0  0  0  0  0  0  0  0  0  0  0  0
   -7.2870    6.8465    6.8586 C   0  0  0  0  0  0  0  0  0  0  0  0
   -5.8121    6.9575    7.0290 C   0  0  0  0  0  0  0  0  0  0  0  0
   -5.1714    6.5946    8.2035 C   0  0  0  0  0  0  0  0  0  0  0  0
   -3.8102    6.7100    8.3252 C   0  0  0  0  0  0  0  0  0  0  0  0
   -3.0715    7.1816    7.2935 N   0  0  0  0  0  0  0  0  0  0  0  0
   -1.7451    7.3975    7.1780 C   0  0  0  0  0  0  0  0  0  0  0  0
   -1.5503    7.9118    5.9058 C   0  0  0  0  0  0  0  0  0  0  0  0
   -2.7440    7.9793    5.3202 N   0  0  0  0  0  0  0  0  0  0  0  0
   -3.6957    7.5352    6.1529 C   0  0  0  0  0  0  0  0  0  0  0  0
   -5.0767    7.4376    5.9777 C   0  0  0  0  0  0  0  0  0  0  0  0
 33 34  1  0  0  0
 34 35  1  0  0  0
 35 36  2  0  0  0
 36 37  1  0  0  0
 37 38  1  0  0  0
 38 39  2  0  0  0
 39 40  1  0  0  0
 40 41  2  0  0  0
 41 42  1  0  0  0
 38 29  1  0  0  0
 29 30  2  0  0  0
 29 31  1  0  0  0
 31  1  1  0  0  0
  1  2  2  0  0  0
  2  3  1  0  0  0
  3  4  2  0  0  0
  4  5  1  0  0  0
  5  6  2  0  0  0
  6  7  1  0  0  0
  3  8  1  0  0  0
  8  9  1  0  0  0
  9 10  1  0  0  0
 10 11  1  0  0  0
 11 12  1  0  0  0
 12 13  1  0  0  0
 11 14  1  0  0  0
 14 15  2  0  0  0
 14 16  1  0  0  0
 16 18  1  0  0  0
 18 19  2  0  0  0
 19 20  1  0  0  0
 20 21  2  0  0  0
 21 24  1  0  0  0
 24 25  1  0  0  0
 25 26  1  0  0  0
 25 27  1  0  0  0
 25 28  1  0  0  0
 21 22  1  0  0  0
 22 23  2  0  0  0
 42 34  2  0  0  0
  6  1  1  0  0  0
 13  8  1  0  0  0
 23 18  1  0  0  0
 41 37  1  0  0  0
 31 32  1  0  0  0
 16 17  1  0  0  0
M  END
> <minimizedAffinity>
-8.02863

> <CNNscore>
0.2648446262

> <CNNaffinity>
5.9337315559

> <CNN_VS>
1.5715168715

> <CNNaffinity_variance>
0.9626653790

$$$$
[H]c1nc2c([H])c(C([H])([H])[H])c([H])c([H])n2c1C(=O)N([H])c1c([H])c(N2C([H])([H])C([H])([H])N(C(=O)N([H])c3c([H])c([H])c(OC(F)(F)F)c([H])c3[H])C([H])([H])C2([H])[H])c([H])c([H])c1C([H])([H])[H]


 42 46  0  0  0  0  0  0  0  0999 V2000
    5.9832    6.8522   17.5003 C   0  0  0  0  0  0  0  0  0  0  0  0
    5.3025    7.1661   16.3429 C   0  0  0  0  0  0  0  0  0  0  0  0
    5.5249    8.3457   15.6292 C   0  0  0  0  0  0  0  0  0  0  0  0
    6.4623    9.2338   16.0992 C   0  0  0  0  0  0  0  0  0  0  0  0
    7.1681    8.9659   17.2512 C   0  0  0  0  0  0  0  0  0  0  0  0
    6.9279    7.8006   17.9289 C   0  0  0  0  0  0  0  0  0  0  0  0
    7.6923    7.5366   19.1550 C   0  0  0  0  0  0  0  0  0  0  0  0
    4.8149    8.6157   14.4340 N   0  0  0  0  0  0  0  0  0  0  0  0
    3.7953    9.6408   14.4160 C   0  0  0  0  0  0  0  0  0  0  0  0
    2.5124    9.0889   13.9162 C   0  0  0  0  0  0  0  0  0  0  0  0
    2.6069    7.9851   13.0040 N   0  0  0  0  0  0  0  0  0  0  0  0
    3.8065    7.2913   12.6405 C   0  0  0  0  0  0  0  0  0  0  0  0
    5.0497    7.9402   13.1789 C   0  0  0  0  0  0  0  0  0  0  0  0
    1.3719    7.5349   12.3958 C   0  0  0  0  0  0  0  0  0  0  0  0
    0.2915    8.1042   12.6706 O   0  0  0  0  0  0  0  0  0  0  0  0
    1.3613    6.4537   11.4880 N   0  0  0  0  0  0  0  0  0  0  0  0
    2.3410    6.0375   11.3244 H   0  0  0  0  0  0  0  0  0  0  0  0
    0.2862    5.8878   10.8056 C   0  0  0  0  0  0  0  0  0  0  0  0
   -0.0723    6.4628    9.5734 C   0  0  0  0  0  0  0  0  0  0  0  0
   -1.1187    6.0048    8.8133 C   0  0  0  0  0  0  0  0  0  0  0  0
   -1.8617    4.9405    9.2549 C   0  0  0  0  0  0  0  0  0  0  0  0
   -1.5289    4.3693   10.4489 C   0  0  0  0  0  0  0  0  0  0  0  0
   -0.4583    4.8372   11.2277 C   0  0  0  0  0  0  0  0  0  0  0  0
   -2.9112    4.4749    8.5003 O   0  0  0  0  0  0  0  0  0  0  0  0
   -4.2667    4.7467    8.8352 C   0  0  0  0  0  0  0  0  0  0  0  0
   -5.0000    4.7233    7.6630 F   0  0  0  0  0  0  0  0  0  0  0  0
   -4.7649    3.7211    9.6332 F   0  0  0  0  0  0  0  0  0  0  0  0
   -4.4095    5.9680    9.4488 F   0  0  0  0  0  0  0  0  0  0  0  0
    4.8390    4.7048   18.2162 C   0  0  0  0  0  0  0  0  0  0  0  0
    3.9255    4.8021   17.3271 O   0  0  0  0  0  0  0  0  0  0  0  0
    5.8228    5.6992   18.2734 N   0  0  0  0  0  0  0  0  0  0  0  0
    6.5788    5.5190   19.0021 H   0  0  0  0  0  0  0  0  0  0  0  0
    5.5130    1.9625   24.3612 C   0  0  0  0  0  0  0  0  0  0  0  0
    5.3268    2.4676   22.9731 C   0  0  0  0  0  0  0  0  0  0  0  0
    5.4997    3.8020   22.6395 C   0  0  0  0  0  0  0  0  0  0  0  0
    5.3199    4.2321   21.3497 C   0  0  0  0  0  0  0  0  0  0  0  0
    4.9705    3.3535   20.3809 N   0  0  0  0  0  0  0  0  0  0  0  0
    4.7255    3.5332   19.0668 C   0  0  0  0  0  0  0  0  0  0  0  0
    4.3867    2.2858   18.5665 C   0  0  0  0  0  0  0  0  0  0  0  0
    4.4440    1.4249   19.5804 N   0  0  0  0  0  0  0  0  0  0  0  0
    4.8015    2.0570   20.7068 C   0  0  0  0  0  0  0  0  0  0  0  0
    4.9718    1.5683   22.0028 C   0  0  0  0  0  0  0  0  0  0  0  0
 33 34  1  0  0  0
 34 35  1  0  0  0
 35 36  2  0  0  0
 36 37  1  0  0  0
 37 38  1  0  0  0
 38 39  2  0  0  0
 39 40  1  0  0  0
 40 41  2  0  0  0
 41 42  1  0  0  0
 38 29  1  0  0  0
 29 30  2  0  0  0
 29 31  1  0  0  0
 31  1  1  0  0  0
  1  2  2  0  0  0
  2  3  1  0  0  0
  3  4  2  0  0  0
  4  5  1  0  0  0
  5  6  2  0  0  0
  6  7  1  0  0  0
  3  8  1  0  0  0
  8  9  1  0  0  0
  9 10  1  0  0  0
 10 11  1  0  0  0
 11 12  1  0  0  0
 12 13  1  0  0  0
 11 14  1  0  0  0
 14 15  2  0  0  0
 14 16  1  0  0  0
 16 18  1  0  0  0
 18 19  2  0  0  0
 19 20  1  0  0  0
 20 21  2  0  0  0
 21 24  1  0  0  0
 24 25  1  0  0  0
 25 26  1  0  0  0
 25 27  1  0  0  0
 25 28  1  0  0  0
 21 22  1  0  0  0
 22 23  2  0  0  0
 42 34  2  0  0  0
  6  1  1  0  0  0
 13  8  1  0  0  0
 23 18  1  0  0  0
 41 37  1  0  0  0
 31 32  1  0  0  0
 16 17  1  0  0  0
M  END
> <minimizedAffinity>
-7.82618

> <CNNscore>
0.2525166869

> <CNNaffinity>
6.2170515060

> <CNN_VS>
1.5699092150

> <CNNaffinity_variance>
0.4217319489

$$$$
[H]c1nc2c([H])c(C([H])([H])[H])c([H])c([H])n2c1C(=O)N([H])c1c([H])c(N2C([H])([H])C([H])([H])N(C(=O)N([H])c3c([H])c([H])c(OC(F)(F)F)c([H])c3[H])C([H])([H])C2([H])[H])c([H])c([H])c1C([H])([H])[H]


 42 46  0  0  0  0  0  0  0  0999 V2000
    4.3505    6.9499   17.4940 C   0  0  0  0  0  0  0  0  0  0  0  0
    4.1145    7.0315   16.1378 C   0  0  0  0  0  0  0  0  0  0  0  0
    3.8605    8.2392   15.4841 C   0  0  0  0  0  0  0  0  0  0  0  0
    3.8443    9.3979   16.2227 C   0  0  0  0  0  0  0  0  0  0  0  0
    4.0739    9.3686   17.5804 C   0  0  0  0  0  0  0  0  0  0  0  0
    4.3203    8.1690   18.1929 C   0  0  0  0  0  0  0  0  0  0  0  0
    4.5619    8.1623   19.6418 C   0  0  0  0  0  0  0  0  0  0  0  0
    3.6431    8.2755   14.0852 N   0  0  0  0  0  0  0  0  0  0  0  0
    2.6754    9.1946   13.5288 C   0  0  0  0  0  0  0  0  0  0  0  0
    1.6902    8.4676   12.6914 C   0  0  0  0  0  0  0  0  0  0  0  0
    2.1520    7.2594   12.0698 N   0  0  0  0  0  0  0  0  0  0  0  0
    3.4200    6.6294   12.2886 C   0  0  0  0  0  0  0  0  0  0  0  0
    4.3511    7.4539   13.1310 C   0  0  0  0  0  0  0  0  0  0  0  0
    1.2489    6.6218   11.1340 C   0  0  0  0  0  0  0  0  0  0  0  0
    0.1282    7.1270   10.8979 O   0  0  0  0  0  0  0  0  0  0  0  0
    1.6110    5.4272   10.4744 N   0  0  0  0  0  0  0  0  0  0  0  0
    2.5922    5.0797   10.7507 H   0  0  0  0  0  0  0  0  0  0  0  0
    0.8873    4.6791    9.5480 C   0  0  0  0  0  0  0  0  0  0  0  0
    0.0679    3.6505   10.0462 C   0  0  0  0  0  0  0  0  0  0  0  0
   -0.6834    2.8372    9.2359 C   0  0  0  0  0  0  0  0  0  0  0  0
   -0.6494    3.0169    7.8771 C   0  0  0  0  0  0  0  0  0  0  0  0
    0.1404    4.0103    7.3748 C   0  0  0  0  0  0  0  0  0  0  0  0
    0.9098    4.8432    8.2031 C   0  0  0  0  0  0  0  0  0  0  0  0
   -1.3985    2.2074    7.0579 O   0  0  0  0  0  0  0  0  0  0  0  0
   -0.8148    1.1808    6.2650 C   0  0  0  0  0  0  0  0  0  0  0  0
    0.2751    0.6860    6.9575 F   0  0  0  0  0  0  0  0  0  0  0  0
   -1.7121    0.1250    6.1343 F   0  0  0  0  0  0  0  0  0  0  0  0
   -0.4128    1.6464    5.0362 F   0  0  0  0  0  0  0  0  0  0  0  0
    3.8399    4.6304   18.3839 C   0  0  0  0  0  0  0  0  0  0  0  0
    2.7173    4.5584   17.7767 O   0  0  0  0  0  0  0  0  0  0  0  0
    4.6114    5.7879   18.2249 N   0  0  0  0  0  0  0  0  0  0  0  0
    5.5561    5.7495   18.7158 H   0  0  0  0  0  0  0  0  0  0  0  0
    5.6202    2.0421   24.3728 C   0  0  0  0  0  0  0  0  0  0  0  0
    5.2262    2.5079   23.0147 C   0  0  0  0  0  0  0  0  0  0  0  0
    4.9115    3.8310   22.7463 C   0  0  0  0  0  0  0  0  0  0  0  0
    4.5528    4.2247   21.4825 C   0  0  0  0  0  0  0  0  0  0  0  0
    4.5025    3.3210   20.4758 N   0  0  0  0  0  0  0  0  0  0  0  0
    4.1695    3.4587   19.1760 C   0  0  0  0  0  0  0  0  0  0  0  0
    4.2725    2.1939   18.6185 C   0  0  0  0  0  0  0  0  0  0  0  0
    4.6585    1.3658   19.5868 N   0  0  0  0  0  0  0  0  0  0  0  0
    4.8074    2.0351   20.7384 C   0  0  0  0  0  0  0  0  0  0  0  0
    5.1779    1.5829   22.0055 C   0  0  0  0  0  0  0  0  0  0  0  0
 33 34  1  0  0  0
 34 35  1  0  0  0
 35 36  2  0  0  0
 36 37  1  0  0  0
 37 38  1  0  0  0
 38 39  2  0  0  0
 39 40  1  0  0  0
 40 41  2  0  0  0
 41 42  1  0  0  0
 38 29  1  0  0  0
 29 30  2  0  0  0
 29 31  1  0  0  0
 31  1  1  0  0  0
  1  2  2  0  0  0
  2  3  1  0  0  0
  3  4  2  0  0  0
  4  5  1  0  0  0
  5  6  2  0  0  0
  6  7  1  0  0  0
  3  8  1  0  0  0
  8  9  1  0  0  0
  9 10  1  0  0  0
 10 11  1  0  0  0
 11 12  1  0  0  0
 12 13  1  0  0  0
 11 14  1  0  0  0
 14 15  2  0  0  0
 14 16  1  0  0  0
 16 18  1  0  0  0
 18 19  2  0  0  0
 19 20  1  0  0  0
 20 21  2  0  0  0
 21 24  1  0  0  0
 24 25  1  0  0  0
 25 26  1  0  0  0
 25 27  1  0  0  0
 25 28  1  0  0  0
 21 22  1  0  0  0
 22 23  2  0  0  0
 42 34  2  0  0  0
  6  1  1  0  0  0
 13  8  1  0  0  0
 23 18  1  0  0  0
 41 37  1  0  0  0
 31 32  1  0  0  0
 16 17  1  0  0  0
M  END
> <minimizedAffinity>
-7.70042

> <CNNscore>
0.2382743657

> <CNNaffinity>
6.1242012978

> <CNN_VS>
1.4592401981

> <CNNaffinity_variance>
0.7692193389

$$$$
[H]c1nc2c([H])c(C([H])([H])[H])c([H])c([H])n2c1C(=O)N([H])c1c([H])c(N2C([H])([H])C([H])([H])N(C(=O)N([H])c3c([H])c([H])c(OC(F)(F)F)c([H])c3[H])C([H])([H])C2([H])[H])c([H])c([H])c1C([H])([H])[H]


 42 46  0  0  0  0  0  0  0  0999 V2000
    3.3712    4.6124    8.7792 C   0  0  0  0  0  0  0  0  0  0  0  0
    3.1360    5.2257    9.9916 C   0  0  0  0  0  0  0  0  0  0  0  0
    2.6453    4.5401   11.1051 C   0  0  0  0  0  0  0  0  0  0  0  0
    2.3847    3.1959   10.9894 C   0  0  0  0  0  0  0  0  0  0  0  0
    2.6030    2.5380    9.7992 C   0  0  0  0  0  0  0  0  0  0  0  0
    3.0849    3.2374    8.7252 C   0  0  0  0  0  0  0  0  0  0  0  0
    3.3094    2.5149    7.4662 C   0  0  0  0  0  0  0  0  0  0  0  0
    2.4379    5.2091   12.3359 N   0  0  0  0  0  0  0  0  0  0  0  0
    3.1848    6.4094   12.6399 C   0  0  0  0  0  0  0  0  0  0  0  0
    3.8872    6.2691   13.9388 C   0  0  0  0  0  0  0  0  0  0  0  0
    3.2782    5.3952   14.9005 N   0  0  0  0  0  0  0  0  0  0  0  0
    2.1405    4.5541   14.6747 C   0  0  0  0  0  0  0  0  0  0  0  0
    1.4900    4.7869   13.3408 C   0  0  0  0  0  0  0  0  0  0  0  0
    3.8718    5.3649   16.2213 C   0  0  0  0  0  0  0  0  0  0  0  0
    4.8653    6.0808   16.4808 O   0  0  0  0  0  0  0  0  0  0  0  0
    3.3464    4.5342   17.2348 N   0  0  0  0  0  0  0  0  0  0  0  0
    2.4960    3.9617   16.9051 H   0  0  0  0  0  0  0  0  0  0  0  0
    3.7731    4.3753   18.5518 C   0  0  0  0  0  0  0  0  0  0  0  0
    3.2928    5.2937   19.5022 C   0  0  0  0  0  0  0  0  0  0  0  0
    3.6485    5.2506   20.8267 C   0  0  0  0  0  0  0  0  0  0  0  0
    4.5091    4.2777   21.2656 C   0  0  0  0  0  0  0  0  0  0  0  0
    4.9859    3.3773   20.3575 C   0  0  0  0  0  0  0  0  0  0  0  0
    4.6228    3.4205   19.0018 C   0  0  0  0  0  0  0  0  0  0  0  0
    4.8706    4.2267   22.5901 O   0  0  0  0  0  0  0  0  0  0  0  0
    4.1962    3.3990   23.5300 C   0  0  0  0  0  0  0  0  0  0  0  0
    3.3876    4.2141   24.3007 F   0  0  0  0  0  0  0  0  0  0  0  0
    3.3483    2.5240   22.8573 F   0  0  0  0  0  0  0  0  0  0  0  0
    5.0744    2.7174   24.3378 F   0  0  0  0  0  0  0  0  0  0  0  0
    3.2098    6.0474    6.6941 C   0  0  0  0  0  0  0  0  0  0  0  0
    1.9821    6.3413    6.8956 O   0  0  0  0  0  0  0  0  0  0  0  0
    3.8585    5.2210    7.6195 N   0  0  0  0  0  0  0  0  0  0  0  0
    4.8923    5.0676    7.4130 H   0  0  0  0  0  0  0  0  0  0  0  0
    7.9090   10.0343    3.9087 C   0  0  0  0  0  0  0  0  0  0  0  0
    6.8372    9.1356    4.4190 C   0  0  0  0  0  0  0  0  0  0  0  0
    6.7433    8.7768    5.7548 C   0  0  0  0  0  0  0  0  0  0  0  0
    5.7421    7.9466    6.1898 C   0  0  0  0  0  0  0  0  0  0  0  0
    4.8275    7.4656    5.3153 N   0  0  0  0  0  0  0  0  0  0  0  0
    3.7786    6.6370    5.4949 C   0  0  0  0  0  0  0  0  0  0  0  0
    3.2054    6.4683    4.2443 C   0  0  0  0  0  0  0  0  0  0  0  0
    3.9182    7.1909    3.3827 N   0  0  0  0  0  0  0  0  0  0  0  0
    4.9208    7.8141    4.0171 C   0  0  0  0  0  0  0  0  0  0  0  0
    5.9193    8.6547    3.5232 C   0  0  0  0  0  0  0  0  0  0  0  0
 33 34  1  0  0  0
 34 35  1  0  0  0
 35 36  2  0  0  0
 36 37  1  0  0  0
 37 38  1  0  0  0
 38 39  2  0  0  0
 39 40  1  0  0  0
 40 41  2  0  0  0
 41 42  1  0  0  0
 38 29  1  0  0  0
 29 30  2  0  0  0
 29 31  1  0  0  0
 31  1  1  0  0  0
  1  2  2  0  0  0
  2  3  1  0  0  0
  3  4  2  0  0  0
  4  5  1  0  0  0
  5  6  2  0  0  0
  6  7  1  0  0  0
  3  8  1  0  0  0
  8  9  1  0  0  0
  9 10  1  0  0  0
 10 11  1  0  0  0
 11 12  1  0  0  0
 12 13  1  0  0  0
 11 14  1  0  0  0
 14 15  2  0  0  0
 14 16  1  0  0  0
 16 18  1  0  0  0
 18 19  2  0  0  0
 19 20  1  0  0  0
 20 21  2  0  0  0
 21 24  1  0  0  0
 24 25  1  0  0  0
 25 26  1  0  0  0
 25 27  1  0  0  0
 25 28  1  0  0  0
 21 22  1  0  0  0
 22 23  2  0  0  0
 42 34  2  0  0  0
  6  1  1  0  0  0
 13  8  1  0  0  0
 23 18  1  0  0  0
 41 37  1  0  0  0
 31 32  1  0  0  0
 16 17  1  0  0  0
M  END
> <minimizedAffinity>
-7.90409

> <CNNscore>
0.2292114645

> <CNNaffinity>
5.7103519440

> <CNN_VS>
1.3088781834

> <CNNaffinity_variance>
0.5199531317

$$$$
[H]c1nc2c([H])c(C([H])([H])[H])c([H])c([H])n2c1C(=O)N([H])c1c([H])c(N2C([H])([H])C([H])([H])N(C(=O)N([H])c3c([H])c([H])c(OC(F)(F)F)c([H])c3[H])C([H])([H])C2([H])[H])c([H])c([H])c1C([H])([H])[H]


 42 46  0  0  0  0  0  0  0  0999 V2000
    3.8236    1.2491    9.0678 C   0  0  0  0  0  0  0  0  0  0  0  0
    3.5906    1.9876   10.2087 C   0  0  0  0  0  0  0  0  0  0  0  0
    2.4355    1.8454   10.9808 C   0  0  0  0  0  0  0  0  0  0  0  0
    1.4886    0.9303   10.5879 C   0  0  0  0  0  0  0  0  0  0  0  0
    1.6750    0.1689    9.4555 C   0  0  0  0  0  0  0  0  0  0  0  0
    2.8180    0.3310    8.7193 C   0  0  0  0  0  0  0  0  0  0  0  0
    2.9948   -0.4916    7.5153 C   0  0  0  0  0  0  0  0  0  0  0  0
    2.2492    2.6127   12.1563 N   0  0  0  0  0  0  0  0  0  0  0  0
    2.9196    3.8858   12.3010 C   0  0  0  0  0  0  0  0  0  0  0  0
    3.7041    3.9196   13.5595 C   0  0  0  0  0  0  0  0  0  0  0  0
    3.2191    3.1012   14.6339 N   0  0  0  0  0  0  0  0  0  0  0  0
    2.1372    2.1650   14.5593 C   0  0  0  0  0  0  0  0  0  0  0  0
    1.3953    2.2233   13.2544 C   0  0  0  0  0  0  0  0  0  0  0  0
    3.8883    3.2388   15.9110 C   0  0  0  0  0  0  0  0  0  0  0  0
    4.8381    4.0439   16.0399 O   0  0  0  0  0  0  0  0  0  0  0  0
    3.4864    2.4740   17.0276 N   0  0  0  0  0  0  0  0  0  0  0  0
    2.6641    1.8146   16.8069 H   0  0  0  0  0  0  0  0  0  0  0  0
    3.9988    2.4719   18.3235 C   0  0  0  0  0  0  0  0  0  0  0  0
    4.0734    3.7073   18.9913 C   0  0  0  0  0  0  0  0  0  0  0  0
    4.5696    3.8381   20.2637 C   0  0  0  0  0  0  0  0  0  0  0  0
    5.0181    2.7289   20.9332 C   0  0  0  0  0  0  0  0  0  0  0  0
    4.9539    1.5210   20.3012 C   0  0  0  0  0  0  0  0  0  0  0  0
    4.4465    1.3858   18.9989 C   0  0  0  0  0  0  0  0  0  0  0  0
    5.5164    2.8503   22.2078 O   0  0  0  0  0  0  0  0  0  0  0  0
    4.6964    2.7039   23.3608 C   0  0  0  0  0  0  0  0  0  0  0  0
    5.5211    2.3794   24.4223 F   0  0  0  0  0  0  0  0  0  0  0  0
    4.1107    3.9267   23.6753 F   0  0  0  0  0  0  0  0  0  0  0  0
    3.7457    1.7257   23.1946 F   0  0  0  0  0  0  0  0  0  0  0  0
    5.3268    2.3204    7.3284 C   0  0  0  0  0  0  0  0  0  0  0  0
    4.5780    3.3486    7.1997 O   0  0  0  0  0  0  0  0  0  0  0  0
    4.9468    1.3283    8.2402 N   0  0  0  0  0  0  0  0  0  0  0  0
    5.6487    0.5320    8.3312 H   0  0  0  0  0  0  0  0  0  0  0  0
   11.9036    3.7410    6.6477 C   0  0  0  0  0  0  0  0  0  0  0  0
   10.4577    3.3890    6.6934 C   0  0  0  0  0  0  0  0  0  0  0  0
    9.7051    3.4923    7.8530 C   0  0  0  0  0  0  0  0  0  0  0  0
    8.3746    3.1594    7.8582 C   0  0  0  0  0  0  0  0  0  0  0  0
    7.7766    2.7247    6.7243 N   0  0  0  0  0  0  0  0  0  0  0  0
    6.5091    2.3302    6.4850 C   0  0  0  0  0  0  0  0  0  0  0  0
    6.4671    1.9670    5.1481 C   0  0  0  0  0  0  0  0  0  0  0  0
    7.6865    2.1574    4.6488 N   0  0  0  0  0  0  0  0  0  0  0  0
    8.5096    2.6236    5.5982 C   0  0  0  0  0  0  0  0  0  0  0  0
    9.8653    2.9490    5.5393 C   0  0  0  0  0  0  0  0  0  0  0  0
 33 34  1  0  0  0
 34 35  1  0  0  0
 35 36  2  0  0  0
 36 37  1  0  0  0
 37 38  1  0  0  0
 38 39  2  0  0  0
 39 40  1  0  0  0
 40 41  2  0  0  0
 41 42  1  0  0  0
 38 29  1  0  0  0
 29 30  2  0  0  0
 29 31  1  0  0  0
 31  1  1  0  0  0
  1  2  2  0  0  0
  2  3  1  0  0  0
  3  4  2  0  0  0
  4  5  1  0  0  0
  5  6  2  0  0  0
  6  7  1  0  0  0
  3  8  1  0  0  0
  8  9  1  0  0  0
  9 10  1  0  0  0
 10 11  1  0  0  0
 11 12  1  0  0  0
 12 13  1  0  0  0
 11 14  1  0  0  0
 14 15  2  0  0  0
 14 16  1  0  0  0
 16 18  1  0  0  0
 18 19  2  0  0  0
 19 20  1  0  0  0
 20 21  2  0  0  0
 21 24  1  0  0  0
 24 25  1  0  0  0
 25 26  1  0  0  0
 25 27  1  0  0  0
 25 28  1  0  0  0
 21 22  1  0  0  0
 22 23  2  0  0  0
 42 34  2  0  0  0
  6  1  1  0  0  0
 13  8  1  0  0  0
 23 18  1  0  0  0
 41 37  1  0  0  0
 31 32  1  0  0  0
 16 17  1  0  0  0
M  END
> <minimizedAffinity>
-8.28541

> <CNNscore>
0.2122005820

> <CNNaffinity>
6.3748979568

> <CNN_VS>
1.3527570963

> <CNNaffinity_variance>
0.3437755704

$$$$
[H]c1nc2c([H])c(C([H])([H])[H])c([H])c([H])n2c1C(=O)N([H])c1c([H])c(N2C([H])([H])C([H])([H])N(C(=O)N([H])c3c([H])c([H])c(OC(F)(F)F)c([H])c3[H])C([H])([H])C2([H])[H])c([H])c([H])c1C([H])([H])[H]


 42 46  0  0  0  0  0  0  0  0999 V2000
    4.0386    5.7618   17.2485 C   0  0  0  0  0  0  0  0  0  0  0  0
    3.6277    5.5940   15.9429 C   0  0  0  0  0  0  0  0  0  0  0  0
    3.7155    6.6063   14.9848 C   0  0  0  0  0  0  0  0  0  0  0  0
    4.2333    7.8235   15.3573 C   0  0  0  0  0  0  0  0  0  0  0  0
    4.6571    8.0406   16.6497 C   0  0  0  0  0  0  0  0  0  0  0  0
    4.5585    7.0284   17.5665 C   0  0  0  0  0  0  0  0  0  0  0  0
    5.0163    7.2832   18.9388 C   0  0  0  0  0  0  0  0  0  0  0  0
    3.2986    6.3807   13.6504 N   0  0  0  0  0  0  0  0  0  0  0  0
    3.1301    7.4979   12.7481 C   0  0  0  0  0  0  0  0  0  0  0  0
    1.7700    7.4872   12.1563 C   0  0  0  0  0  0  0  0  0  0  0  0
    1.1428    6.2030   12.0259 N   0  0  0  0  0  0  0  0  0  0  0  0
    1.6495    4.9615   12.5306 C   0  0  0  0  0  0  0  0  0  0  0  0
    3.0391    5.0749   13.0897 C   0  0  0  0  0  0  0  0  0  0  0  0
   -0.1191    6.1632   11.3161 C   0  0  0  0  0  0  0  0  0  0  0  0
   -0.6108    7.2148   10.8480 O   0  0  0  0  0  0  0  0  0  0  0  0
   -0.8147    4.9475   11.1390 N   0  0  0  0  0  0  0  0  0  0  0  0
   -0.3053    4.1078   11.5808 H   0  0  0  0  0  0  0  0  0  0  0  0
   -2.0240    4.7121   10.4879 C   0  0  0  0  0  0  0  0  0  0  0  0
   -3.2047    5.0342   11.1806 C   0  0  0  0  0  0  0  0  0  0  0  0
   -4.4558    4.8380   10.6528 C   0  0  0  0  0  0  0  0  0  0  0  0
   -4.5849    4.3057    9.3959 C   0  0  0  0  0  0  0  0  0  0  0  0
   -3.4501    3.9865    8.7081 C   0  0  0  0  0  0  0  0  0  0  0  0
   -2.1691    4.1867    9.2473 C   0  0  0  0  0  0  0  0  0  0  0  0
   -5.8338    4.1059    8.8592 O   0  0  0  0  0  0  0  0  0  0  0  0
   -6.6653    3.0214    9.2538 C   0  0  0  0  0  0  0  0  0  0  0  0
   -5.8476    1.9315    9.4898 F   0  0  0  0  0  0  0  0  0  0  0  0
   -7.2813    3.3225   10.4650 F   0  0  0  0  0  0  0  0  0  0  0  0
   -7.5924    2.7071    8.2894 F   0  0  0  0  0  0  0  0  0  0  0  0
    4.4809    3.4971   18.3013 C   0  0  0  0  0  0  0  0  0  0  0  0
    5.1028    3.0538   17.2761 O   0  0  0  0  0  0  0  0  0  0  0  0
    3.9860    4.8063   18.2668 N   0  0  0  0  0  0  0  0  0  0  0  0
    3.5302    5.1211   19.1768 H   0  0  0  0  0  0  0  0  0  0  0  0
    5.8794    1.9523   24.7350 C   0  0  0  0  0  0  0  0  0  0  0  0
    5.5165    2.1958   23.3118 C   0  0  0  0  0  0  0  0  0  0  0  0
    5.7885    3.3948   22.6713 C   0  0  0  0  0  0  0  0  0  0  0  0
    5.4399    3.5841   21.3585 C   0  0  0  0  0  0  0  0  0  0  0  0
    4.8235    2.5964   20.6679 N   0  0  0  0  0  0  0  0  0  0  0  0
    4.3768    2.5486   19.3961 C   0  0  0  0  0  0  0  0  0  0  0  0
    3.8079    1.2948   19.2370 C   0  0  0  0  0  0  0  0  0  0  0  0
    3.9367    0.6529   20.3962 N   0  0  0  0  0  0  0  0  0  0  0  0
    4.5586    1.4320   21.2920 C   0  0  0  0  0  0  0  0  0  0  0  0
    4.8919    1.1885   22.6251 C   0  0  0  0  0  0  0  0  0  0  0  0
 33 34  1  0  0  0
 34 35  1  0  0  0
 35 36  2  0  0  0
 36 37  1  0  0  0
 37 38  1  0  0  0
 38 39  2  0  0  0
 39 40  1  0  0  0
 40 41  2  0  0  0
 41 42  1  0  0  0
 38 29  1  0  0  0
 29 30  2  0  0  0
 29 31  1  0  0  0
 31  1  1  0  0  0
  1  2  2  0  0  0
  2  3  1  0  0  0
  3  4  2  0  0  0
  4  5  1  0  0  0
  5  6  2  0  0  0
  6  7  1  0  0  0
  3  8  1  0  0  0
  8  9  1  0  0  0
  9 10  1  0  0  0
 10 11  1  0  0  0
 11 12  1  0  0  0
 12 13  1  0  0  0
 11 14  1  0  0  0
 14 15  2  0  0  0
 14 16  1  0  0  0
 16 18  1  0  0  0
 18 19  2  0  0  0
 19 20  1  0  0  0
 20 21  2  0  0  0
 21 24  1  0  0  0
 24 25  1  0  0  0
 25 26  1  0  0  0
 25 27  1  0  0  0
 25 28  1  0  0  0
 21 22  1  0  0  0
 22 23  2  0  0  0
 42 34  2  0  0  0
  6  1  1  0  0  0
 13  8  1  0  0  0
 23 18  1  0  0  0
 41 37  1  0  0  0
 31 32  1  0  0  0
 16 17  1  0  0  0
M  END
> <minimizedAffinity>
-8.10768

> <CNNscore>
0.2078645378

> <CNNaffinity>
6.0685396194

> <CNN_VS>
1.2614341974

> <CNNaffinity_variance>
0.6329339743

$$$$
[H]c1nc2c([H])c(C([H])([H])[H])c([H])c([H])n2c1C(=O)N([H])c1c([H])c(N2C([H])([H])C([H])([H])N(C(=O)N([H])c3c([H])c([H])c(OC(F)(F)F)c([H])c3[H])C([H])([H])C2([H])[H])c([H])c([H])c1C([H])([H])[H]


 42 46  0  0  0  0  0  0  0  0999 V2000
    3.1675    0.6768    9.4926 C   0  0  0  0  0  0  0  0  0  0  0  0
    2.7763    1.1243   10.7368 C   0  0  0  0  0  0  0  0  0  0  0  0
    2.9296    2.4502   11.1480 C   0  0  0  0  0  0  0  0  0  0  0  0
    3.4949    3.3495   10.2762 C   0  0  0  0  0  0  0  0  0  0  0  0
    3.9022    2.9512    9.0223 C   0  0  0  0  0  0  0  0  0  0  0  0
    3.7385    1.6443    8.6479 C   0  0  0  0  0  0  0  0  0  0  0  0
    4.1808    1.2425    7.3061 C   0  0  0  0  0  0  0  0  0  0  0  0
    2.4944    2.8676   12.4293 N   0  0  0  0  0  0  0  0  0  0  0  0
    2.7708    4.2125   12.8828 C   0  0  0  0  0  0  0  0  0  0  0  0
    3.4714    4.1862   14.1900 C   0  0  0  0  0  0  0  0  0  0  0  0
    3.2033    3.0563   15.0331 N   0  0  0  0  0  0  0  0  0  0  0  0
    2.4345    1.9011   14.6764 C   0  0  0  0  0  0  0  0  0  0  0  0
    1.7502    2.0354   13.3459 C   0  0  0  0  0  0  0  0  0  0  0  0
    3.7632    3.0921   16.3684 C   0  0  0  0  0  0  0  0  0  0  0  0
    4.4407    4.0769   16.7400 O   0  0  0  0  0  0  0  0  0  0  0  0
    3.5580    2.0259   17.2708 N   0  0  0  0  0  0  0  0  0  0  0  0
    2.9644    1.2321   16.8499 H   0  0  0  0  0  0  0  0  0  0  0  0
    4.0068    1.8843   18.5824 C   0  0  0  0  0  0  0  0  0  0  0  0
    4.8442    2.8927   19.0917 C   0  0  0  0  0  0  0  0  0  0  0  0
    5.3607    2.8617   20.3625 C   0  0  0  0  0  0  0  0  0  0  0  0
    5.0603    1.8108   21.1902 C   0  0  0  0  0  0  0  0  0  0  0  0
    4.2491    0.8222   20.7134 C   0  0  0  0  0  0  0  0  0  0  0  0
    3.7201    0.8527   19.4130 C   0  0  0  0  0  0  0  0  0  0  0  0
    5.5727    1.7715   22.4644 O   0  0  0  0  0  0  0  0  0  0  0  0
    4.7976    2.1181   23.6056 C   0  0  0  0  0  0  0  0  0  0  0  0
    3.9336    1.0686   23.8590 F   0  0  0  0  0  0  0  0  0  0  0  0
    5.6269    2.2245   24.7183 F   0  0  0  0  0  0  0  0  0  0  0  0
    4.0804    3.2736   23.4081 F   0  0  0  0  0  0  0  0  0  0  0  0
    3.7918   -1.7747    9.3104 C   0  0  0  0  0  0  0  0  0  0  0  0
    4.7232   -1.6838   10.1814 O   0  0  0  0  0  0  0  0  0  0  0  0
    3.0517   -0.6268    9.0028 N   0  0  0  0  0  0  0  0  0  0  0  0
    2.2590   -0.7951    8.3112 H   0  0  0  0  0  0  0  0  0  0  0  0
    0.9562   -7.8988    9.7484 C   0  0  0  0  0  0  0  0  0  0  0  0
    1.6270   -6.5835    9.5563 C   0  0  0  0  0  0  0  0  0  0  0  0
    1.3885   -5.5004   10.3880 C   0  0  0  0  0  0  0  0  0  0  0  0
    2.0249   -4.3032   10.1813 C   0  0  0  0  0  0  0  0  0  0  0  0
    2.8994   -4.1643    9.1575 N   0  0  0  0  0  0  0  0  0  0  0  0
    3.6244   -3.1032    8.7479 C   0  0  0  0  0  0  0  0  0  0  0  0
    4.3287   -3.5282    7.6324 C   0  0  0  0  0  0  0  0  0  0  0  0
    4.0061   -4.8030    7.4241 N   0  0  0  0  0  0  0  0  0  0  0  0
    3.1293   -5.2174    8.3490 C   0  0  0  0  0  0  0  0  0  0  0  0
    2.5084   -6.4561    8.5155 C   0  0  0  0  0  0  0  0  0  0  0  0
 33 34  1  0  0  0
 34 35  1  0  0  0
 35 36  2  0  0  0
 36 37  1  0  0  0
 37 38  1  0  0  0
 38 39  2  0  0  0
 39 40  1  0  0  0
 40 41  2  0  0  0
 41 42  1  0  0  0
 38 29  1  0  0  0
 29 30  2  0  0  0
 29 31  1  0  0  0
 31  1  1  0  0  0
  1  2  2  0  0  0
  2  3  1  0  0  0
  3  4  2  0  0  0
  4  5  1  0  0  0
  5  6  2  0  0  0
  6  7  1  0  0  0
  3  8  1  0  0  0
  8  9  1  0  0  0
  9 10  1  0  0  0
 10 11  1  0  0  0
 11 12  1  0  0  0
 12 13  1  0  0  0
 11 14  1  0  0  0
 14 15  2  0  0  0
 14 16  1  0  0  0
 16 18  1  0  0  0
 18 19  2  0  0  0
 19 20  1  0  0  0
 20 21  2  0  0  0
 21 24  1  0  0  0
 24 25  1  0  0  0
 25 26  1  0  0  0
 25 27  1  0  0  0
 25 28  1  0  0  0
 21 22  1  0  0  0
 22 23  2  0  0  0
 42 34  2  0  0  0
  6  1  1  0  0  0
 13  8  1  0  0  0
 23 18  1  0  0  0
 41 37  1  0  0  0
 31 32  1  0  0  0
 16 17  1  0  0  0
M  END
> <minimizedAffinity>
-8.82038

> <CNNscore>
0.1962562054

> <CNNaffinity>
6.6629929543

> <CNN_VS>
1.3076536655

> <CNNaffinity_variance>
0.0898668095

$$$$
[H]c1nc2c([H])c(C([H])([H])[H])c([H])c([H])n2c1C(=O)N([H])c1c([H])c(N2C([H])([H])C([H])([H])N(C(=O)N([H])c3c([H])c([H])c(OC(F)(F)F)c([H])c3[H])C([H])([H])C2([H])[H])c([H])c([H])c1C([H])([H])[H]


 42 46  0  0  0  0  0  0  0  0999 V2000
    0.1910    6.8578    8.5514 C   0  0  0  0  0  0  0  0  0  0  0  0
    1.0804    6.2285    9.3965 C   0  0  0  0  0  0  0  0  0  0  0  0
    2.4483    6.1417    9.1288 C   0  0  0  0  0  0  0  0  0  0  0  0
    2.9310    6.7071    7.9730 C   0  0  0  0  0  0  0  0  0  0  0  0
    2.0826    7.3464    7.0964 C   0  0  0  0  0  0  0  0  0  0  0  0
    0.7463    7.4155    7.3868 C   0  0  0  0  0  0  0  0  0  0  0  0
   -0.1393    8.1019    6.4369 C   0  0  0  0  0  0  0  0  0  0  0  0
    3.3264    5.5018   10.0370 N   0  0  0  0  0  0  0  0  0  0  0  0
    3.2863    4.0644   10.1886 C   0  0  0  0  0  0  0  0  0  0  0  0
    3.0936    3.6975   11.6129 C   0  0  0  0  0  0  0  0  0  0  0  0
    3.5943    4.6286   12.5833 N   0  0  0  0  0  0  0  0  0  0  0  0
    4.1368    5.9255   12.3066 C   0  0  0  0  0  0  0  0  0  0  0  0
    4.3107    6.1915   10.8385 C   0  0  0  0  0  0  0  0  0  0  0  0
    3.5456    4.2138   13.9702 C   0  0  0  0  0  0  0  0  0  0  0  0
    3.0863    3.0898   14.2746 O   0  0  0  0  0  0  0  0  0  0  0  0
    4.0112    5.0615   14.9986 N   0  0  0  0  0  0  0  0  0  0  0  0
    4.3828    6.0017   14.6274 H   0  0  0  0  0  0  0  0  0  0  0  0
    4.0503    4.8379   16.3735 C   0  0  0  0  0  0  0  0  0  0  0  0
    5.2106    4.2417   16.8988 C   0  0  0  0  0  0  0  0  0  0  0  0
    5.3652    3.9591   18.2324 C   0  0  0  0  0  0  0  0  0  0  0  0
    4.3569    4.2629   19.1105 C   0  0  0  0  0  0  0  0  0  0  0  0
    3.2229    4.8419   18.6191 C   0  0  0  0  0  0  0  0  0  0  0  0
    3.0634    5.1314   17.2544 C   0  0  0  0  0  0  0  0  0  0  0  0
    4.5030    3.9838   20.4478 O   0  0  0  0  0  0  0  0  0  0  0  0
    4.4079    2.6611   20.9623 C   0  0  0  0  0  0  0  0  0  0  0  0
    5.6917    2.2240   21.2323 F   0  0  0  0  0  0  0  0  0  0  0  0
    3.7333    2.6812   22.1795 F   0  0  0  0  0  0  0  0  0  0  0  0
    3.8029    1.8059   20.0729 F   0  0  0  0  0  0  0  0  0  0  0  0
   -2.2268    6.0984    8.4497 C   0  0  0  0  0  0  0  0  0  0  0  0
   -1.9314    4.9626    7.9427 O   0  0  0  0  0  0  0  0  0  0  0  0
   -1.1871    6.9893    8.7418 N   0  0  0  0  0  0  0  0  0  0  0  0
   -1.5078    7.8897    9.2124 H   0  0  0  0  0  0  0  0  0  0  0  0
   -7.9833    4.0387   11.3404 C   0  0  0  0  0  0  0  0  0  0  0  0
   -6.7726    4.5788   10.6628 C   0  0  0  0  0  0  0  0  0  0  0  0
   -5.5131    4.0291   10.8447 C   0  0  0  0  0  0  0  0  0  0  0  0
   -4.4195    4.5527   10.2038 C   0  0  0  0  0  0  0  0  0  0  0  0
   -4.5577    5.6180    9.3801 N   0  0  0  0  0  0  0  0  0  0  0  0
   -3.6479    6.3086    8.6627 C   0  0  0  0  0  0  0  0  0  0  0  0
   -4.3510    7.3161    8.0212 C   0  0  0  0  0  0  0  0  0  0  0  0
   -5.6294    7.1895    8.3706 N   0  0  0  0  0  0  0  0  0  0  0  0
   -5.7823    6.1521    9.2052 C   0  0  0  0  0  0  0  0  0  0  0  0
   -6.9264    5.6580    9.8333 C   0  0  0  0  0  0  0  0  0  0  0  0
 33 34  1  0  0  0
 34 35  1  0  0  0
 35 36  2  0  0  0
 36 37  1  0  0  0
 37 38  1  0  0  0
 38 39  2  0  0  0
 39 40  1  0  0  0
 40 41  2  0  0  0
 41 42  1  0  0  0
 38 29  1  0  0  0
 29 30  2  0  0  0
 29 31  1  0  0  0
 31  1  1  0  0  0
  1  2  2  0  0  0
  2  3  1  0  0  0
  3  4  2  0  0  0
  4  5  1  0  0  0
  5  6  2  0  0  0
  6  7  1  0  0  0
  3  8  1  0  0  0
  8  9  1  0  0  0
  9 10  1  0  0  0
 10 11  1  0  0  0
 11 12  1  0  0  0
 12 13  1  0  0  0
 11 14  1  0  0  0
 14 15  2  0  0  0
 14 16  1  0  0  0
 16 18  1  0  0  0
 18 19  2  0  0  0
 19 20  1  0  0  0
 20 21  2  0  0  0
 21 24  1  0  0  0
 24 25  1  0  0  0
 25 26  1  0  0  0
 25 27  1  0  0  0
 25 28  1  0  0  0
 21 22  1  0  0  0
 22 23  2  0  0  0
 42 34  2  0  0  0
  6  1  1  0  0  0
 13  8  1  0  0  0
 23 18  1  0  0  0
 41 37  1  0  0  0
 31 32  1  0  0  0
 16 17  1  0  0  0
M  END
> <minimizedAffinity>
-8.00464

> <CNNscore>
0.1954800487

> <CNNaffinity>
5.9798636436

> <CNN_VS>
1.1689440012

> <CNNaffinity_variance>
0.0518699586

$$$$
[H]c1nc2c([H])c(C([H])([H])[H])c([H])c([H])n2c1C(=O)N([H])c1c([H])c(N2C([H])([H])C([H])([H])N(C(=O)N([H])c3c([H])c([H])c(OC(F)(F)F)c([H])c3[H])C([H])([H])C2([H])[H])c([H])c([H])c1C([H])([H])[H]


 42 46  0  0  0  0  0  0  0  0999 V2000
   -0.1949    5.5408   10.4745 C   0  0  0  0  0  0  0  0  0  0  0  0
    0.4943    6.4772   11.2159 C   0  0  0  0  0  0  0  0  0  0  0  0
    1.8891    6.5297   11.2626 C   0  0  0  0  0  0  0  0  0  0  0  0
    2.6080    5.6087   10.5391 C   0  0  0  0  0  0  0  0  0  0  0  0
    1.9657    4.6532    9.7832 C   0  0  0  0  0  0  0  0  0  0  0  0
    0.5970    4.6274    9.7574 C   0  0  0  0  0  0  0  0  0  0  0  0
   -0.0660    3.5990    8.9447 C   0  0  0  0  0  0  0  0  0  0  0  0
    2.5529    7.5227   12.0233 N   0  0  0  0  0  0  0  0  0  0  0  0
    3.9930    7.6372   11.9608 C   0  0  0  0  0  0  0  0  0  0  0  0
    4.5789    7.5715   13.3220 C   0  0  0  0  0  0  0  0  0  0  0  0
    3.7474    8.0352   14.3957 N   0  0  0  0  0  0  0  0  0  0  0  0
    2.3730    8.4259   14.2903 C   0  0  0  0  0  0  0  0  0  0  0  0
    1.8822    8.4804   12.8716 C   0  0  0  0  0  0  0  0  0  0  0  0
    4.3594    8.1150   15.7061 C   0  0  0  0  0  0  0  0  0  0  0  0
    5.5586    7.7912   15.8608 O   0  0  0  0  0  0  0  0  0  0  0  0
    3.6220    8.5559   16.8264 N   0  0  0  0  0  0  0  0  0  0  0  0
    2.6036    8.8069   16.5824 H   0  0  0  0  0  0  0  0  0  0  0  0
    4.0346    8.7029   18.1492 C   0  0  0  0  0  0  0  0  0  0  0  0
    4.3080   10.0065   18.6002 C   0  0  0  0  0  0  0  0  0  0  0  0
    4.7327   10.2805   19.8757 C   0  0  0  0  0  0  0  0  0  0  0  0
    4.9051    9.2533   20.7675 C   0  0  0  0  0  0  0  0  0  0  0  0
    4.6449    7.9810   20.3479 C   0  0  0  0  0  0  0  0  0  0  0  0
    4.2104    7.6993   19.0427 C   0  0  0  0  0  0  0  0  0  0  0  0
    5.3299    9.5182   22.0469 O   0  0  0  0  0  0  0  0  0  0  0  0
    6.7080    9.5558   22.3970 C   0  0  0  0  0  0  0  0  0  0  0  0
    6.9236   10.7120   23.1244 F   0  0  0  0  0  0  0  0  0  0  0  0
    7.0028    8.4938   23.2469 F   0  0  0  0  0  0  0  0  0  0  0  0
    7.5204    9.5456   21.2886 F   0  0  0  0  0  0  0  0  0  0  0  0
   -2.5539    5.3019   11.3748 C   0  0  0  0  0  0  0  0  0  0  0  0
   -2.1748    5.3223   12.5955 O   0  0  0  0  0  0  0  0  0  0  0  0
   -1.5831    5.4175   10.3728 N   0  0  0  0  0  0  0  0  0  0  0  0
   -1.9816    5.4484    9.3852 H   0  0  0  0  0  0  0  0  0  0  0  0
   -7.7078    1.8805    8.6420 C   0  0  0  0  0  0  0  0  0  0  0  0
   -6.6484    2.7003    9.2918 C   0  0  0  0  0  0  0  0  0  0  0  0
   -5.3064    2.3567    9.2376 C   0  0  0  0  0  0  0  0  0  0  0  0
   -4.3572    3.1361    9.8479 C   0  0  0  0  0  0  0  0  0  0  0  0
   -4.7211    4.2572   10.5134 N   0  0  0  0  0  0  0  0  0  0  0  0
   -3.9882    5.1618   11.1945 C   0  0  0  0  0  0  0  0  0  0  0  0
   -4.8902    6.0898   11.6909 C   0  0  0  0  0  0  0  0  0  0  0  0
   -6.1034    5.7131   11.2926 N   0  0  0  0  0  0  0  0  0  0  0  0
   -6.0258    4.5893   10.5664 C   0  0  0  0  0  0  0  0  0  0  0  0
   -7.0305    3.8315    9.9633 C   0  0  0  0  0  0  0  0  0  0  0  0
 33 34  1  0  0  0
 34 35  1  0  0  0
 35 36  2  0  0  0
 36 37  1  0  0  0
 37 38  1  0  0  0
 38 39  2  0  0  0
 39 40  1  0  0  0
 40 41  2  0  0  0
 41 42  1  0  0  0
 38 29  1  0  0  0
 29 30  2  0  0  0
 29 31  1  0  0  0
 31  1  1  0  0  0
  1  2  2  0  0  0
  2  3  1  0  0  0
  3  4  2  0  0  0
  4  5  1  0  0  0
  5  6  2  0  0  0
  6  7  1  0  0  0
  3  8  1  0  0  0
  8  9  1  0  0  0
  9 10  1  0  0  0
 10 11  1  0  0  0
 11 12  1  0  0  0
 12 13  1  0  0  0
 11 14  1  0  0  0
 14 15  2  0  0  0
 14 16  1  0  0  0
 16 18  1  0  0  0
 18 19  2  0  0  0
 19 20  1  0  0  0
 20 21  2  0  0  0
 21 24  1  0  0  0
 24 25  1  0  0  0
 25 26  1  0  0  0
 25 27  1  0  0  0
 25 28  1  0  0  0
 21 22  1  0  0  0
 22 23  2  0  0  0
 42 34  2  0  0  0
  6  1  1  0  0  0
 13  8  1  0  0  0
 23 18  1  0  0  0
 41 37  1  0  0  0
 31 32  1  0  0  0
 16 17  1  0  0  0
M  END
> <minimizedAffinity>
-8.15000

> <CNNscore>
0.1908980608

> <CNNaffinity>
5.9646086693

> <CNN_VS>
1.1386321783

> <CNNaffinity_variance>
0.5090581179

$$$$
[H]c1nc(N([H])[H])c2c(C#Cc3c(C([H])([H])[H])nc([H])c(N([H])C(=O)c4sc(C(F)(F)F)c([H])c4[H])c3[H])nn(C3([H])C([H])([H])C([H])([H])C([H])([H])C3([H])[H])c2n1


 39 43  0  0  0  0  0  0  0  0999 V2000
    3.6823    6.7984   15.5576 C   0  0  0  0  0  0  0  0  0  0  0  0
    3.7690    5.9498   14.3365 C   0  0  0  0  0  0  0  0  0  0  0  0
    3.7174    6.5084   13.1099 N   0  0  0  0  0  0  0  0  0  0  0  0
    3.8022    5.8397   11.9521 C   0  0  0  0  0  0  0  0  0  0  0  0
    3.9534    4.4702   11.9835 C   0  0  0  0  0  0  0  0  0  0  0  0
    4.0134    3.8581   13.2184 C   0  0  0  0  0  0  0  0  0  0  0  0
    3.9192    4.5904   14.4008 C   0  0  0  0  0  0  0  0  0  0  0  0
    3.9977    3.6970   10.7991 N   0  0  0  0  0  0  0  0  0  0  0  0
    2.8783    3.1147   10.1658 C   0  0  0  0  0  0  0  0  0  0  0  0
    1.7423    3.2392   10.6469 O   0  0  0  0  0  0  0  0  0  0  0  0
    4.9762    3.5797   10.3901 H   0  0  0  0  0  0  0  0  0  0  0  0
    3.0815    2.3574    8.9248 C   0  0  0  0  0  0  0  0  0  0  0  0
    2.1362    1.8400    8.0836 C   0  0  0  0  0  0  0  0  0  0  0  0
    2.5753    1.1751    7.0009 C   0  0  0  0  0  0  0  0  0  0  0  0
    3.9317    1.0758    6.8339 C   0  0  0  0  0  0  0  0  0  0  0  0
    4.5564    1.9023    8.1783 S   0  0  0  0  0  0  0  0  0  0  0  0
    4.6536    0.3668    5.7019 C   0  0  0  0  0  0  0  0  0  0  0  0
    4.2241   -0.9401    5.5758 F   0  0  0  0  0  0  0  0  0  0  0  0
    6.0066    0.3488    5.9093 F   0  0  0  0  0  0  0  0  0  0  0  0
    4.3839    1.1066    4.5690 F   0  0  0  0  0  0  0  0  0  0  0  0
    3.9020    3.8972   15.6725 C   0  0  0  0  0  0  0  0  0  0  0  0
    3.9115    3.3496   16.7799 C   0  0  0  0  0  0  0  0  0  0  0  0
    3.9584    2.7749   18.0995 C   0  0  0  0  0  0  0  0  0  0  0  0
    4.5734    3.3045   19.1675 N   0  0  0  0  0  0  0  0  0  0  0  0
    4.4916    2.4771   20.2298 N   0  0  0  0  0  0  0  0  0  0  0  0
    3.8136    1.3756   19.8810 C   0  0  0  0  0  0  0  0  0  0  0  0
    3.4439    0.2544   20.5076 N   0  0  0  0  0  0  0  0  0  0  0  0
    2.7449   -0.6990   19.8716 C   0  0  0  0  0  0  0  0  0  0  0  0
    2.4085   -0.5259   18.5842 N   0  0  0  0  0  0  0  0  0  0  0  0
    2.7557    0.5730   17.9067 C   0  0  0  0  0  0  0  0  0  0  0  0
    2.3757    0.7576   16.5392 N   0  0  0  0  0  0  0  0  0  0  0  0
    3.4760    1.5704   18.5291 C   0  0  0  0  0  0  0  0  0  0  0  0
    2.6545    0.0299   15.8650 H   0  0  0  0  0  0  0  0  0  0  0  0
    1.8471    1.6019   16.3032 H   0  0  0  0  0  0  0  0  0  0  0  0
    5.0889    2.7577   21.5077 C   0  0  0  0  0  0  0  0  0  0  0  0
    5.8512    4.0158   21.5663 C   0  0  0  0  0  0  0  0  0  0  0  0
    5.0698    5.0040   22.4101 C   0  0  0  0  0  0  0  0  0  0  0  0
    3.8986    4.2693   22.9887 C   0  0  0  0  0  0  0  0  0  0  0  0
    3.9588    2.8504   22.5355 C   0  0  0  0  0  0  0  0  0  0  0  0
  1  2  1  0  0  0
  2  3  2  0  0  0
  3  4  1  0  0  0
  4  5  2  0  0  0
  5  8  1  0  0  0
  8  9  1  0  0  0
  9 10  2  0  0  0
  9 12  1  0  0  0
 12 13  2  0  0  0
 13 14  1  0  0  0
 14 15  2  0  0  0
 15 16  1  0  0  0
 15 17  1  0  0  0
 17 18  1  0  0  0
 17 19  1  0  0  0
 17 20  1  0  0  0
  5  6  1  0  0  0
  6  7  2  0  0  0
  7 21  1  0  0  0
 21 22  3  0  0  0
 22 23  1  0  0  0
 23 24  2  0  0  0
 24 25  1  0  0  0
 25 35  1  0  0  0
 35 36  1  0  0  0
 36 37  1  0  0  0
 37 38  1  0  0  0
 38 39  1  0  0  0
 25 26  1  0  0  0
 26 27  2  0  0  0
 27 28  1  0  0  0
 28 29  2  0  0  0
 29 30  1  0  0  0
 30 31  1  0  0  0
 30 32  2  0  0  0
  7  2  1  0  0  0
 32 23  1  0  0  0
 16 12  1  0  0  0
 39 35  1  0  0  0
 32 26  1  0  0  0
  8 11  1  0  0  0
 31 33  1  0  0  0
 31 34  1  0  0  0
M  END
> <minimizedAffinity>
-7.34334

> <CNNscore>
0.4021480083

> <CNNaffinity>
7.1424202919

> <CNN_VS>
2.8723101616

> <CNNaffinity_variance>
0.5988239050

$$$$
[H]c1nc(N([H])[H])c2c(C#Cc3c(C([H])([H])[H])nc([H])c(N([H])C(=O)c4sc(C(F)(F)F)c([H])c4[H])c3[H])nn(C3([H])C([H])([H])C([H])([H])C([H])([H])C3([H])[H])c2n1


 39 43  0  0  0  0  0  0  0  0999 V2000
    2.5961    5.5034   12.7073 C   0  0  0  0  0  0  0  0  0  0  0  0
    2.5015    4.1894   12.0122 C   0  0  0  0  0  0  0  0  0  0  0  0
    2.0679    4.1194   10.7369 N   0  0  0  0  0  0  0  0  0  0  0  0
    1.9609    2.9943   10.0177 C   0  0  0  0  0  0  0  0  0  0  0  0
    2.3133    1.7958   10.5998 C   0  0  0  0  0  0  0  0  0  0  0  0
    2.7650    1.8222   11.9031 C   0  0  0  0  0  0  0  0  0  0  0  0
    2.8597    3.0150   12.6181 C   0  0  0  0  0  0  0  0  0  0  0  0
    2.1763    0.5649    9.9152 N   0  0  0  0  0  0  0  0  0  0  0  0
    3.1919   -0.0651    9.1636 C   0  0  0  0  0  0  0  0  0  0  0  0
    4.3080    0.4609    9.0408 O   0  0  0  0  0  0  0  0  0  0  0  0
    1.2128    0.1165   10.0109 H   0  0  0  0  0  0  0  0  0  0  0  0
    2.9047   -1.3569    8.5283 C   0  0  0  0  0  0  0  0  0  0  0  0
    2.6817   -1.6195    7.2054 C   0  0  0  0  0  0  0  0  0  0  0  0
    2.4330   -2.8963    6.8661 C   0  0  0  0  0  0  0  0  0  0  0  0
    2.4269   -3.8232    7.8752 C   0  0  0  0  0  0  0  0  0  0  0  0
    2.7629   -2.9011    9.2600 S   0  0  0  0  0  0  0  0  0  0  0  0
    2.1598   -5.3111    7.7344 C   0  0  0  0  0  0  0  0  0  0  0  0
    2.9978   -6.0488    8.5481 F   0  0  0  0  0  0  0  0  0  0  0  0
    2.3469   -5.7299    6.4446 F   0  0  0  0  0  0  0  0  0  0  0  0
    0.8336   -5.4836    8.0735 F   0  0  0  0  0  0  0  0  0  0  0  0
    3.2583    2.9851   14.0104 C   0  0  0  0  0  0  0  0  0  0  0  0
    3.5557    2.9920   15.2095 C   0  0  0  0  0  0  0  0  0  0  0  0
    3.8412    3.0477   16.6199 C   0  0  0  0  0  0  0  0  0  0  0  0
    4.4618    4.0508   17.2586 N   0  0  0  0  0  0  0  0  0  0  0  0
    4.6389    3.7549   18.5627 N   0  0  0  0  0  0  0  0  0  0  0  0
    4.1326    2.5402   18.8131 C   0  0  0  0  0  0  0  0  0  0  0  0
    4.0339    1.7611   19.8946 N   0  0  0  0  0  0  0  0  0  0  0  0
    3.4509    0.5536   19.8305 C   0  0  0  0  0  0  0  0  0  0  0  0
    2.9563    0.1184   18.6616 N   0  0  0  0  0  0  0  0  0  0  0  0
    3.0315    0.8530   17.5472 C   0  0  0  0  0  0  0  0  0  0  0  0
    2.4837    0.3888   16.3091 N   0  0  0  0  0  0  0  0  0  0  0  0
    3.6262    2.0967   17.5776 C   0  0  0  0  0  0  0  0  0  0  0  0
    2.8141   -0.5200   15.9531 H   0  0  0  0  0  0  0  0  0  0  0  0
    1.7929    0.9834   15.8430 H   0  0  0  0  0  0  0  0  0  0  0  0
    5.3080    4.6228   19.4942 C   0  0  0  0  0  0  0  0  0  0  0  0
    6.1784    5.6352   18.8739 C   0  0  0  0  0  0  0  0  0  0  0  0
    5.5195    6.9909   19.0384 C   0  0  0  0  0  0  0  0  0  0  0  0
    4.3126    6.7988   19.9059 C   0  0  0  0  0  0  0  0  0  0  0  0
    4.2315    5.3614   20.2928 C   0  0  0  0  0  0  0  0  0  0  0  0
  1  2  1  0  0  0
  2  3  2  0  0  0
  3  4  1  0  0  0
  4  5  2  0  0  0
  5  8  1  0  0  0
  8  9  1  0  0  0
  9 10  2  0  0  0
  9 12  1  0  0  0
 12 13  2  0  0  0
 13 14  1  0  0  0
 14 15  2  0  0  0
 15 16  1  0  0  0
 15 17  1  0  0  0
 17 18  1  0  0  0
 17 19  1  0  0  0
 17 20  1  0  0  0
  5  6  1  0  0  0
  6  7  2  0  0  0
  7 21  1  0  0  0
 21 22  3  0  0  0
 22 23  1  0  0  0
 23 24  2  0  0  0
 24 25  1  0  0  0
 25 35  1  0  0  0
 35 36  1  0  0  0
 36 37  1  0  0  0
 37 38  1  0  0  0
 38 39  1  0  0  0
 25 26  1  0  0  0
 26 27  2  0  0  0
 27 28  1  0  0  0
 28 29  2  0  0  0
 29 30  1  0  0  0
 30 31  1  0  0  0
 30 32  2  0  0  0
  7  2  1  0  0  0
 32 23  1  0  0  0
 16 12  1  0  0  0
 39 35  1  0  0  0
 32 26  1  0  0  0
  8 11  1  0  0  0
 31 33  1  0  0  0
 31 34  1  0  0  0
M  END
> <minimizedAffinity>
-7.19602

> <CNNscore>
0.3800397217

> <CNNaffinity>
7.0848960876

> <CNN_VS>
2.6925418377

> <CNNaffinity_variance>
0.9340189695

$$$$
[H]c1nc(N([H])[H])c2c(C#Cc3c(C([H])([H])[H])nc([H])c(N([H])C(=O)c4sc(C(F)(F)F)c([H])c4[H])c3[H])nn(C3([H])C([H])([H])C([H])([H])C([H])([H])C3([H])[H])c2n1


 39 43  0  0  0  0  0  0  0  0999 V2000
    4.0045    6.1575   15.5675 C   0  0  0  0  0  0  0  0  0  0  0  0
    3.5633    5.0620   14.6598 C   0  0  0  0  0  0  0  0  0  0  0  0
    3.2395    5.3248   13.3771 N   0  0  0  0  0  0  0  0  0  0  0  0
    2.8476    4.4134   12.4768 C   0  0  0  0  0  0  0  0  0  0  0  0
    2.7570    3.0932   12.8617 C   0  0  0  0  0  0  0  0  0  0  0  0
    3.0818    2.7797   14.1654 C   0  0  0  0  0  0  0  0  0  0  0  0
    3.4836    3.7590   15.0725 C   0  0  0  0  0  0  0  0  0  0  0  0
    2.3007    2.0875   11.9769 N   0  0  0  0  0  0  0  0  0  0  0  0
    2.8828    1.7774   10.7286 C   0  0  0  0  0  0  0  0  0  0  0  0
    3.8619    2.4132   10.3107 O   0  0  0  0  0  0  0  0  0  0  0  0
    1.4513    1.5469   12.3303 H   0  0  0  0  0  0  0  0  0  0  0  0
    2.3089    0.6867    9.9311 C   0  0  0  0  0  0  0  0  0  0  0  0
    2.9587   -0.2072    9.1265 C   0  0  0  0  0  0  0  0  0  0  0  0
    2.2056   -1.1206    8.4896 C   0  0  0  0  0  0  0  0  0  0  0  0
    0.8530   -1.0773    8.7040 C   0  0  0  0  0  0  0  0  0  0  0  0
    0.6650    0.2245    9.7768 S   0  0  0  0  0  0  0  0  0  0  0  0
   -0.1897   -1.9928    8.0879 C   0  0  0  0  0  0  0  0  0  0  0  0
    0.3087   -3.2686    7.9075 F   0  0  0  0  0  0  0  0  0  0  0  0
   -0.6046   -1.5252    6.8700 F   0  0  0  0  0  0  0  0  0  0  0  0
   -1.2580   -1.9786    8.9608 F   0  0  0  0  0  0  0  0  0  0  0  0
    3.7331    3.3969   16.4527 C   0  0  0  0  0  0  0  0  0  0  0  0
    3.9244    3.1360   17.6450 C   0  0  0  0  0  0  0  0  0  0  0  0
    4.1171    2.9022   19.0528 C   0  0  0  0  0  0  0  0  0  0  0  0
    4.6629    3.7616   19.9263 N   0  0  0  0  0  0  0  0  0  0  0  0
    4.7656    3.2040   21.1503 N   0  0  0  0  0  0  0  0  0  0  0  0
    4.2838    1.9547   21.1088 C   0  0  0  0  0  0  0  0  0  0  0  0
    4.1413    0.9660   21.9968 N   0  0  0  0  0  0  0  0  0  0  0  0
    3.6029   -0.2122   21.6446 C   0  0  0  0  0  0  0  0  0  0  0  0
    3.1984   -0.4036   20.3796 N   0  0  0  0  0  0  0  0  0  0  0  0
    3.3210    0.5481   19.4488 C   0  0  0  0  0  0  0  0  0  0  0  0
    2.8688    0.3417   18.1066 N   0  0  0  0  0  0  0  0  0  0  0  0
    3.8720    1.7689   19.7764 C   0  0  0  0  0  0  0  0  0  0  0  0
    3.2505   -0.4669   17.5945 H   0  0  0  0  0  0  0  0  0  0  0  0
    2.1905    1.0077   17.7266 H   0  0  0  0  0  0  0  0  0  0  0  0
    5.3453    3.8711   22.2850 C   0  0  0  0  0  0  0  0  0  0  0  0
    6.8008    4.0753   22.1997 C   0  0  0  0  0  0  0  0  0  0  0  0
    7.0596    5.5533   21.9818 C   0  0  0  0  0  0  0  0  0  0  0  0
    5.7421    6.2589   22.0937 C   0  0  0  0  0  0  0  0  0  0  0  0
    4.6883    5.2488   22.3964 C   0  0  0  0  0  0  0  0  0  0  0  0
  1  2  1  0  0  0
  2  3  2  0  0  0
  3  4  1  0  0  0
  4  5  2  0  0  0
  5  8  1  0  0  0
  8  9  1  0  0  0
  9 10  2  0  0  0
  9 12  1  0  0  0
 12 13  2  0  0  0
 13 14  1  0  0  0
 14 15  2  0  0  0
 15 16  1  0  0  0
 15 17  1  0  0  0
 17 18  1  0  0  0
 17 19  1  0  0  0
 17 20  1  0  0  0
  5  6  1  0  0  0
  6  7  2  0  0  0
  7 21  1  0  0  0
 21 22  3  0  0  0
 22 23  1  0  0  0
 23 24  2  0  0  0
 24 25  1  0  0  0
 25 35  1  0  0  0
 35 36  1  0  0  0
 36 37  1  0  0  0
 37 38  1  0  0  0
 38 39  1  0  0  0
 25 26  1  0  0  0
 26 27  2  0  0  0
 27 28  1  0  0  0
 28 29  2  0  0  0
 29 30  1  0  0  0
 30 31  1  0  0  0
 30 32  2  0  0  0
  7  2  1  0  0  0
 32 23  1  0  0  0
 16 12  1  0  0  0
 39 35  1  0  0  0
 32 26  1  0  0  0
  8 11  1  0  0  0
 31 33  1  0  0  0
 31 34  1  0  0  0
M  END
> <minimizedAffinity>
-8.01596

> <CNNscore>
0.3670196533

> <CNNaffinity>
7.1978883743

> <CNN_VS>
2.6417665482

> <CNNaffinity_variance>
1.0493558645

$$$$
[H]c1nc(N([H])[H])c2c(C#Cc3c(C([H])([H])[H])nc([H])c(N([H])C(=O)c4sc(C(F)(F)F)c([H])c4[H])c3[H])nn(C3([H])C([H])([H])C([H])([H])C([H])([H])C3([H])[H])c2n1


 39 43  0  0  0  0  0  0  0  0999 V2000
    4.3244    1.3012   22.1797 C   0  0  0  0  0  0  0  0  0  0  0  0
    4.1197    1.4622   20.7131 C   0  0  0  0  0  0  0  0  0  0  0  0
    3.5125    0.4942   19.9965 N   0  0  0  0  0  0  0  0  0  0  0  0
    3.2661    0.5460   18.6807 C   0  0  0  0  0  0  0  0  0  0  0  0
    3.6530    1.6643   17.9743 C   0  0  0  0  0  0  0  0  0  0  0  0
    4.2757    2.6804   18.6694 C   0  0  0  0  0  0  0  0  0  0  0  0
    4.5157    2.5864   20.0393 C   0  0  0  0  0  0  0  0  0  0  0  0
    3.4702    1.7630   16.5745 N   0  0  0  0  0  0  0  0  0  0  0  0
    2.7109    2.7583   15.9218 C   0  0  0  0  0  0  0  0  0  0  0  0
    2.1183    3.6317   16.5725 O   0  0  0  0  0  0  0  0  0  0  0  0
    3.9705    1.0054   16.0140 H   0  0  0  0  0  0  0  0  0  0  0  0
    2.6342    2.7427   14.4559 C   0  0  0  0  0  0  0  0  0  0  0  0
    3.4379    3.3889   13.5585 C   0  0  0  0  0  0  0  0  0  0  0  0
    3.1614    3.2202   12.2538 C   0  0  0  0  0  0  0  0  0  0  0  0
    2.0999    2.4138   11.9372 C   0  0  0  0  0  0  0  0  0  0  0  0
    1.5169    1.9162   13.4516 S   0  0  0  0  0  0  0  0  0  0  0  0
    1.5960    2.0887   10.5424 C   0  0  0  0  0  0  0  0  0  0  0  0
    1.2270    3.2343    9.8643 F   0  0  0  0  0  0  0  0  0  0  0  0
    0.5102    1.2562   10.5876 F   0  0  0  0  0  0  0  0  0  0  0  0
    2.6363    1.4345    9.9153 F   0  0  0  0  0  0  0  0  0  0  0  0
    5.2477    3.6402   20.7117 C   0  0  0  0  0  0  0  0  0  0  0  0
    5.8717    4.5673   21.2383 C   0  0  0  0  0  0  0  0  0  0  0  0
    6.5977    5.6853   21.7831 C   0  0  0  0  0  0  0  0  0  0  0  0
    7.7863    5.6260   22.4019 N   0  0  0  0  0  0  0  0  0  0  0  0
    8.1525    6.8413   22.8589 N   0  0  0  0  0  0  0  0  0  0  0  0
    7.2048    7.7350   22.5465 C   0  0  0  0  0  0  0  0  0  0  0  0
    7.0392    9.0464   22.7444 N   0  0  0  0  0  0  0  0  0  0  0  0
    5.9468    9.6846   22.2957 C   0  0  0  0  0  0  0  0  0  0  0  0
    5.0028    8.9969   21.6352 N   0  0  0  0  0  0  0  0  0  0  0  0
    5.1134    7.6833   21.4129 C   0  0  0  0  0  0  0  0  0  0  0  0
    4.1106    6.9618   20.6903 N   0  0  0  0  0  0  0  0  0  0  0  0
    6.2215    6.9968   21.8625 C   0  0  0  0  0  0  0  0  0  0  0  0
    3.1435    7.0079   21.0431 H   0  0  0  0  0  0  0  0  0  0  0  0
    4.4066    6.4385   19.8617 H   0  0  0  0  0  0  0  0  0  0  0  0
    9.3630    7.0850   23.5963 C   0  0  0  0  0  0  0  0  0  0  0  0
    9.9696    5.8847   24.1952 C   0  0  0  0  0  0  0  0  0  0  0  0
   11.2366    5.5613   23.4277 C   0  0  0  0  0  0  0  0  0  0  0  0
   11.4670    6.6779   22.4549 C   0  0  0  0  0  0  0  0  0  0  0  0
   10.3822    7.6861   22.6258 C   0  0  0  0  0  0  0  0  0  0  0  0
  1  2  1  0  0  0
  2  3  2  0  0  0
  3  4  1  0  0  0
  4  5  2  0  0  0
  5  8  1  0  0  0
  8  9  1  0  0  0
  9 10  2  0  0  0
  9 12  1  0  0  0
 12 13  2  0  0  0
 13 14  1  0  0  0
 14 15  2  0  0  0
 15 16  1  0  0  0
 15 17  1  0  0  0
 17 18  1  0  0  0
 17 19  1  0  0  0
 17 20  1  0  0  0
  5  6  1  0  0  0
  6  7  2  0  0  0
  7 21  1  0  0  0
 21 22  3  0  0  0
 22 23  1  0  0  0
 23 24  2  0  0  0
 24 25  1  0  0  0
 25 35  1  0  0  0
 35 36  1  0  0  0
 36 37  1  0  0  0
 37 38  1  0  0  0
 38 39  1  0  0  0
 25 26  1  0  0  0
 26 27  2  0  0  0
 27 28  1  0  0  0
 28 29  2  0  0  0
 29 30  1  0  0  0
 30 31  1  0  0  0
 30 32  2  0  0  0
  7  2  1  0  0  0
 32 23  1  0  0  0
 16 12  1  0  0  0
 39 35  1  0  0  0
 32 26  1  0  0  0
  8 11  1  0  0  0
 31 33  1  0  0  0
 31 34  1  0  0  0
M  END
> <minimizedAffinity>
-9.37177

> <CNNscore>
0.1547209918

> <CNNaffinity>
6.8896970749

> <CNN_VS>
1.0659807920

> <CNNaffinity_variance>
0.2732108533

$$$$
[H]c1nc(N([H])[H])c2c(C#Cc3c(C([H])([H])[H])nc([H])c(N([H])C(=O)c4sc(C(F)(F)F)c([H])c4[H])c3[H])nn(C3([H])C([H])([H])C([H])([H])C([H])([H])C3([H])[H])c2n1


 39 43  0  0  0  0  0  0  0  0999 V2000
    6.0414    8.4069   13.5463 C   0  0  0  0  0  0  0  0  0  0  0  0
    4.6152    8.0631   13.2892 C   0  0  0  0  0  0  0  0  0  0  0  0
    4.1398    8.0134   12.0279 N   0  0  0  0  0  0  0  0  0  0  0  0
    2.8825    7.7001   11.6878 C   0  0  0  0  0  0  0  0  0  0  0  0
    1.9780    7.4010   12.6836 C   0  0  0  0  0  0  0  0  0  0  0  0
    2.4233    7.4375   13.9889 C   0  0  0  0  0  0  0  0  0  0  0  0
    3.7404    7.7705   14.3011 C   0  0  0  0  0  0  0  0  0  0  0  0
    0.6223    7.1122   12.3984 N   0  0  0  0  0  0  0  0  0  0  0  0
    0.0905    5.8196   12.2000 C   0  0  0  0  0  0  0  0  0  0  0  0
    0.8218    4.8194   12.2485 O   0  0  0  0  0  0  0  0  0  0  0  0
   -0.0060    7.9730   12.3454 H   0  0  0  0  0  0  0  0  0  0  0  0
   -1.3463    5.6781   11.9350 C   0  0  0  0  0  0  0  0  0  0  0  0
   -2.3908    6.2698   12.5890 C   0  0  0  0  0  0  0  0  0  0  0  0
   -3.6302    5.9766   12.1588 C   0  0  0  0  0  0  0  0  0  0  0  0
   -3.7384    5.1122   11.1012 C   0  0  0  0  0  0  0  0  0  0  0  0
   -2.1252    4.7310   10.7365 S   0  0  0  0  0  0  0  0  0  0  0  0
   -5.0253    4.6290   10.4566 C   0  0  0  0  0  0  0  0  0  0  0  0
   -5.7377    3.8121   11.3132 F   0  0  0  0  0  0  0  0  0  0  0  0
   -4.7730    3.9227    9.3113 F   0  0  0  0  0  0  0  0  0  0  0  0
   -5.7294    5.7705   10.1330 F   0  0  0  0  0  0  0  0  0  0  0  0
    4.1416    7.8787   15.6887 C   0  0  0  0  0  0  0  0  0  0  0  0
    4.4395    7.9421   16.8860 C   0  0  0  0  0  0  0  0  0  0  0  0
    4.7215    7.9753   18.2978 C   0  0  0  0  0  0  0  0  0  0  0  0
    4.5158    6.9733   19.1656 N   0  0  0  0  0  0  0  0  0  0  0  0
    4.8146    7.3569   20.4239 N   0  0  0  0  0  0  0  0  0  0  0  0
    5.2285    8.6309   20.4110 C   0  0  0  0  0  0  0  0  0  0  0  0
    5.6375    9.5020   21.3386 N   0  0  0  0  0  0  0  0  0  0  0  0
    6.0028   10.7504   21.0067 C   0  0  0  0  0  0  0  0  0  0  0  0
    5.9591   11.1334   19.7215 N   0  0  0  0  0  0  0  0  0  0  0  0
    5.5538   10.3060   18.7528 C   0  0  0  0  0  0  0  0  0  0  0  0
    5.5291   10.7173   17.3822 N   0  0  0  0  0  0  0  0  0  0  0  0
    5.1693    9.0179   19.0596 C   0  0  0  0  0  0  0  0  0  0  0  0
    4.9817   11.5581   17.1470 H   0  0  0  0  0  0  0  0  0  0  0  0
    6.0562   10.1551   16.7083 H   0  0  0  0  0  0  0  0  0  0  0  0
    4.6598    6.5085   21.5748 C   0  0  0  0  0  0  0  0  0  0  0  0
    3.9443    5.2479   21.3168 C   0  0  0  0  0  0  0  0  0  0  0  0
    4.9463    4.1121   21.3865 C   0  0  0  0  0  0  0  0  0  0  0  0
    6.2493    4.6932   21.8457 C   0  0  0  0  0  0  0  0  0  0  0  0
    6.0605    6.1534   22.0789 C   0  0  0  0  0  0  0  0  0  0  0  0
  1  2  1  0  0  0
  2  3  2  0  0  0
  3  4  1  0  0  0
  4  5  2  0  0  0
  5  8  1  0  0  0
  8  9  1  0  0  0
  9 10  2  0  0  0
  9 12  1  0  0  0
 12 13  2  0  0  0
 13 14  1  0  0  0
 14 15  2  0  0  0
 15 16  1  0  0  0
 15 17  1  0  0  0
 17 18  1  0  0  0
 17 19  1  0  0  0
 17 20  1  0  0  0
  5  6  1  0  0  0
  6  7  2  0  0  0
  7 21  1  0  0  0
 21 22  3  0  0  0
 22 23  1  0  0  0
 23 24  2  0  0  0
 24 25  1  0  0  0
 25 35  1  0  0  0
 35 36  1  0  0  0
 36 37  1  0  0  0
 37 38  1  0  0  0
 38 39  1  0  0  0
 25 26  1  0  0  0
 26 27  2  0  0  0
 27 28  1  0  0  0
 28 29  2  0  0  0
 29 30  1  0  0  0
 30 31  1  0  0  0
 30 32  2  0  0  0
  7  2  1  0  0  0
 32 23  1  0  0  0
 16 12  1  0  0  0
 39 35  1  0  0  0
 32 26  1  0  0  0
  8 11  1  0  0  0
 31 33  1  0  0  0
 31 34  1  0  0  0
M  END
> <minimizedAffinity>
-7.65134

> <CNNscore>
0.1491501182

> <CNNaffinity>
6.0408811569

> <CNN_VS>
0.9009981155

> <CNNaffinity_variance>
0.4108868241

$$$$
[H]c1nc(N([H])[H])c2c(C#Cc3c(C([H])([H])[H])nc([H])c(N([H])C(=O)c4sc(C(F)(F)F)c([H])c4[H])c3[H])nn(C3([H])C([H])([H])C([H])([H])C([H])([H])C3([H])[H])c2n1


 39 43  0  0  0  0  0  0  0  0999 V2000
    5.4016    8.3152   15.1754 C   0  0  0  0  0  0  0  0  0  0  0  0
    4.1026    7.9748   14.5310 C   0  0  0  0  0  0  0  0  0  0  0  0
    3.7140    8.6012   13.4015 N   0  0  0  0  0  0  0  0  0  0  0  0
    2.5768    8.3594   12.7358 C   0  0  0  0  0  0  0  0  0  0  0  0
    1.7131    7.4005   13.2194 C   0  0  0  0  0  0  0  0  0  0  0  0
    2.0732    6.7333   14.3720 C   0  0  0  0  0  0  0  0  0  0  0  0
    3.2655    7.0162   15.0362 C   0  0  0  0  0  0  0  0  0  0  0  0
    0.4719    7.1312   12.5952 N   0  0  0  0  0  0  0  0  0  0  0  0
    0.2545    6.1437   11.6100 C   0  0  0  0  0  0  0  0  0  0  0  0
    1.1890    5.4367   11.2046 O   0  0  0  0  0  0  0  0  0  0  0  0
   -0.3308    7.7465   12.9353 H   0  0  0  0  0  0  0  0  0  0  0  0
   -1.0998    5.9664   11.0721 C   0  0  0  0  0  0  0  0  0  0  0  0
   -1.4939    5.9321    9.7635 C   0  0  0  0  0  0  0  0  0  0  0  0
   -2.8050    5.7608    9.5212 C   0  0  0  0  0  0  0  0  0  0  0  0
   -3.6315    5.6334   10.6066 C   0  0  0  0  0  0  0  0  0  0  0  0
   -2.5714    5.7560   11.9265 S   0  0  0  0  0  0  0  0  0  0  0  0
   -5.1378    5.4451   10.5787 C   0  0  0  0  0  0  0  0  0  0  0  0
   -5.6466    5.2939   11.8542 F   0  0  0  0  0  0  0  0  0  0  0  0
   -5.4873    4.3398    9.8505 F   0  0  0  0  0  0  0  0  0  0  0  0
   -5.6406    6.5690    9.9563 F   0  0  0  0  0  0  0  0  0  0  0  0
    3.5625    6.3511   16.2883 C   0  0  0  0  0  0  0  0  0  0  0  0
    3.7859    5.7413   17.3393 C   0  0  0  0  0  0  0  0  0  0  0  0
    4.0015    4.9719   18.5373 C   0  0  0  0  0  0  0  0  0  0  0  0
    4.3372    5.4638   19.7392 N   0  0  0  0  0  0  0  0  0  0  0  0
    4.5369    4.4689   20.6281 N   0  0  0  0  0  0  0  0  0  0  0  0
    4.3336    3.2901   20.0252 C   0  0  0  0  0  0  0  0  0  0  0  0
    4.3912    2.0103   20.4064 N   0  0  0  0  0  0  0  0  0  0  0  0
    4.1225    1.0159   19.5456 C   0  0  0  0  0  0  0  0  0  0  0  0
    3.7884    1.3085   18.2794 N   0  0  0  0  0  0  0  0  0  0  0  0
    3.7200    2.5699   17.8420 C   0  0  0  0  0  0  0  0  0  0  0  0
    3.3438    2.8731   16.4948 N   0  0  0  0  0  0  0  0  0  0  0  0
    3.9924    3.6148   18.6994 C   0  0  0  0  0  0  0  0  0  0  0  0
    3.8975    2.4457   15.7381 H   0  0  0  0  0  0  0  0  0  0  0  0
    2.5452    3.4979   16.3541 H   0  0  0  0  0  0  0  0  0  0  0  0
    4.9427    4.6858   21.9908 C   0  0  0  0  0  0  0  0  0  0  0  0
    3.9331    4.3199   22.9979 C   0  0  0  0  0  0  0  0  0  0  0  0
    4.4060    3.0669   23.7088 C   0  0  0  0  0  0  0  0  0  0  0  0
    5.7922    2.7726   23.2209 C   0  0  0  0  0  0  0  0  0  0  0  0
    6.1849    3.8289   22.2449 C   0  0  0  0  0  0  0  0  0  0  0  0
  1  2  1  0  0  0
  2  3  2  0  0  0
  3  4  1  0  0  0
  4  5  2  0  0  0
  5  8  1  0  0  0
  8  9  1  0  0  0
  9 10  2  0  0  0
  9 12  1  0  0  0
 12 13  2  0  0  0
 13 14  1  0  0  0
 14 15  2  0  0  0
 15 16  1  0  0  0
 15 17  1  0  0  0
 17 18  1  0  0  0
 17 19  1  0  0  0
 17 20  1  0  0  0
  5  6  1  0  0  0
  6  7  2  0  0  0
  7 21  1  0  0  0
 21 22  3  0  0  0
 22 23  1  0  0  0
 23 24  2  0  0  0
 24 25  1  0  0  0
 25 35  1  0  0  0
 35 36  1  0  0  0
 36 37  1  0  0  0
 37 38  1  0  0  0
 38 39  1  0  0  0
 25 26  1  0  0  0
 26 27  2  0  0  0
 27 28  1  0  0  0
 28 29  2  0  0  0
 29 30  1  0  0  0
 30 31  1  0  0  0
 30 32  2  0  0  0
  7  2  1  0  0  0
 32 23  1  0  0  0
 16 12  1  0  0  0
 39 35  1  0  0  0
 32 26  1  0  0  0
  8 11  1  0  0  0
 31 33  1  0  0  0
 31 34  1  0  0  0
M  END
> <minimizedAffinity>
-8.78864

> <CNNscore>
0.1430612355

> <CNNaffinity>
6.3885378838

> <CNN_VS>
0.9139521122

> <CNNaffinity_variance>
0.5410974622

$$$$
[H]c1nc(N([H])[H])c2c(C#Cc3c(C([H])([H])[H])nc([H])c(N([H])C(=O)c4sc(C(F)(F)F)c([H])c4[H])c3[H])nn(C3([H])C([H])([H])C([H])([H])C([H])([H])C3([H])[H])c2n1


 39 43  0  0  0  0  0  0  0  0999 V2000
    3.5843    9.4431   14.8462 C   0  0  0  0  0  0  0  0  0  0  0  0
    3.0219    8.2933   14.0844 C   0  0  0  0  0  0  0  0  0  0  0  0
    2.5284    8.4714   12.8418 N   0  0  0  0  0  0  0  0  0  0  0  0
    2.0163    7.5051   12.0679 C   0  0  0  0  0  0  0  0  0  0  0  0
    1.9752    6.2156   12.5523 C   0  0  0  0  0  0  0  0  0  0  0  0
    2.4724    5.9884   13.8191 C   0  0  0  0  0  0  0  0  0  0  0  0
    2.9953    7.0226   14.5936 C   0  0  0  0  0  0  0  0  0  0  0  0
    1.4011    5.1571   11.8089 N   0  0  0  0  0  0  0  0  0  0  0  0
    2.0987    4.3256   10.9062 C   0  0  0  0  0  0  0  0  0  0  0  0
    3.3076    4.4980   10.6907 O   0  0  0  0  0  0  0  0  0  0  0  0
    0.3584    5.0147   11.9851 H   0  0  0  0  0  0  0  0  0  0  0  0
    1.3679    3.2501   10.2249 C   0  0  0  0  0  0  0  0  0  0  0  0
    0.7067    3.3002    9.0294 C   0  0  0  0  0  0  0  0  0  0  0  0
    0.1041    2.1730    8.6131 C   0  0  0  0  0  0  0  0  0  0  0  0
    0.2069    1.0718    9.4220 C   0  0  0  0  0  0  0  0  0  0  0  0
    1.1309    1.6294   10.7321 S   0  0  0  0  0  0  0  0  0  0  0  0
   -0.3975   -0.2973    9.1665 C   0  0  0  0  0  0  0  0  0  0  0  0
   -0.0482   -0.7729    7.9174 F   0  0  0  0  0  0  0  0  0  0  0  0
   -1.7641   -0.2584    9.2368 F   0  0  0  0  0  0  0  0  0  0  0  0
    0.0802   -1.1079   10.1755 F   0  0  0  0  0  0  0  0  0  0  0  0
    3.4281    6.7530   15.9494 C   0  0  0  0  0  0  0  0  0  0  0  0
    3.8409    6.5547   17.0969 C   0  0  0  0  0  0  0  0  0  0  0  0
    4.3842    6.3686   18.4174 C   0  0  0  0  0  0  0  0  0  0  0  0
    4.7620    5.1995   18.9558 N   0  0  0  0  0  0  0  0  0  0  0  0
    5.1557    5.3634   20.2356 N   0  0  0  0  0  0  0  0  0  0  0  0
    5.0458    6.6560   20.5697 C   0  0  0  0  0  0  0  0  0  0  0  0
    5.2844    7.3713   21.6733 N   0  0  0  0  0  0  0  0  0  0  0  0
    5.0723    8.6966   21.7019 C   0  0  0  0  0  0  0  0  0  0  0  0
    4.6139    9.3176   20.6044 N   0  0  0  0  0  0  0  0  0  0  0  0
    4.3534    8.6518   19.4748 C   0  0  0  0  0  0  0  0  0  0  0  0
    3.8831    9.3258   18.3030 N   0  0  0  0  0  0  0  0  0  0  0  0
    4.5578    7.2896   19.4122 C   0  0  0  0  0  0  0  0  0  0  0  0
    3.0226    9.8862   18.3890 H   0  0  0  0  0  0  0  0  0  0  0  0
    4.4260    9.2158   17.4421 H   0  0  0  0  0  0  0  0  0  0  0  0
    5.5819    4.2831   21.0840 C   0  0  0  0  0  0  0  0  0  0  0  0
    4.8749    4.1985   22.3726 C   0  0  0  0  0  0  0  0  0  0  0  0
    3.9645    2.9866   22.3344 C   0  0  0  0  0  0  0  0  0  0  0  0
    4.2511    2.2524   21.0596 C   0  0  0  0  0  0  0  0  0  0  0  0
    5.3305    2.9759   20.3290 C   0  0  0  0  0  0  0  0  0  0  0  0
  1  2  1  0  0  0
  2  3  2  0  0  0
  3  4  1  0  0  0
  4  5  2  0  0  0
  5  8  1  0  0  0
  8  9  1  0  0  0
  9 10  2  0  0  0
  9 12  1  0  0  0
 12 13  2  0  0  0
 13 14  1  0  0  0
 14 15  2  0  0  0
 15 16  1  0  0  0
 15 17  1  0  0  0
 17 18  1  0  0  0
 17 19  1  0  0  0
 17 20  1  0  0  0
  5  6  1  0  0  0
  6  7  2  0  0  0
  7 21  1  0  0  0
 21 22  3  0  0  0
 22 23  1  0  0  0
 23 24  2  0  0  0
 24 25  1  0  0  0
 25 35  1  0  0  0
 35 36  1  0  0  0
 36 37  1  0  0  0
 37 38  1  0  0  0
 38 39  1  0  0  0
 25 26  1  0  0  0
 26 27  2  0  0  0
 27 28  1  0  0  0
 28 29  2  0  0  0
 29 30  1  0  0  0
 30 31  1  0  0  0
 30 32  2  0  0  0
  7  2  1  0  0  0
 32 23  1  0  0  0
 16 12  1  0  0  0
 39 35  1  0  0  0
 32 26  1  0  0  0
  8 11  1  0  0  0
 31 33  1  0  0  0
 31 34  1  0  0  0
M  END
> <minimizedAffinity>
-7.50594

> <CNNscore>
0.1061660051

> <CNNaffinity>
6.1932845116

> <CNN_VS>
0.6575163007

> <CNNaffinity_variance>
0.6746640801

$$$$
[H]c1nc(N([H])[H])c2c(C#Cc3c(C([H])([H])[H])nc([H])c(N([H])C(=O)c4sc(C(F)(F)F)c([H])c4[H])c3[H])nn(C3([H])C([H])([H])C([H])([H])C([H])([H])C3([H])[H])c2n1


 39 43  0  0  0  0  0  0  0  0999 V2000
    2.2026    4.4295   10.1678 C   0  0  0  0  0  0  0  0  0  0  0  0
    2.6099    3.9850   11.5298 C   0  0  0  0  0  0  0  0  0  0  0  0
    3.3652    4.7825   12.3127 N   0  0  0  0  0  0  0  0  0  0  0  0
    3.7712    4.4860   13.5544 C   0  0  0  0  0  0  0  0  0  0  0  0
    3.4055    3.2761   14.1036 C   0  0  0  0  0  0  0  0  0  0  0  0
    2.6302    2.4303   13.3375 C   0  0  0  0  0  0  0  0  0  0  0  0
    2.2300    2.7758   12.0477 C   0  0  0  0  0  0  0  0  0  0  0  0
    3.8424    2.8776   15.3893 N   0  0  0  0  0  0  0  0  0  0  0  0
    3.2502    3.2733   16.6082 C   0  0  0  0  0  0  0  0  0  0  0  0
    2.2793    4.0445   16.6200 O   0  0  0  0  0  0  0  0  0  0  0  0
    4.6847    2.2227   15.3810 H   0  0  0  0  0  0  0  0  0  0  0  0
    3.8037    2.7553   17.8653 C   0  0  0  0  0  0  0  0  0  0  0  0
    4.6292    3.3886   18.7521 C   0  0  0  0  0  0  0  0  0  0  0  0
    5.0080    2.6965   19.8405 C   0  0  0  0  0  0  0  0  0  0  0  0
    4.5321    1.4178   19.9671 C   0  0  0  0  0  0  0  0  0  0  0  0
    3.5785    1.2123   18.5782 S   0  0  0  0  0  0  0  0  0  0  0  0
    4.8324    0.4492   21.0971 C   0  0  0  0  0  0  0  0  0  0  0  0
    4.0536   -0.6878   21.0014 F   0  0  0  0  0  0  0  0  0  0  0  0
    4.5966    1.0213   22.3182 F   0  0  0  0  0  0  0  0  0  0  0  0
    6.1771    0.1599   20.9901 F   0  0  0  0  0  0  0  0  0  0  0  0
    1.4883    1.8219   11.2488 C   0  0  0  0  0  0  0  0  0  0  0  0
    0.8602    0.9723   10.6084 C   0  0  0  0  0  0  0  0  0  0  0  0
    0.1376   -0.0673    9.9223 C   0  0  0  0  0  0  0  0  0  0  0  0
    0.5098   -1.3523    9.8249 N   0  0  0  0  0  0  0  0  0  0  0  0
   -0.3506   -2.0456    9.0510 N   0  0  0  0  0  0  0  0  0  0  0  0
   -1.3172   -1.2245    8.6197 C   0  0  0  0  0  0  0  0  0  0  0  0
   -2.3980   -1.3606    7.8451 N   0  0  0  0  0  0  0  0  0  0  0  0
   -3.2042   -0.3186    7.5878 C   0  0  0  0  0  0  0  0  0  0  0  0
   -2.9238    0.8821    8.1170 N   0  0  0  0  0  0  0  0  0  0  0  0
   -1.8540    1.0771    8.8947 C   0  0  0  0  0  0  0  0  0  0  0  0
   -1.5737    2.3570    9.4707 N   0  0  0  0  0  0  0  0  0  0  0  0
   -1.0039    0.0288    9.1768 C   0  0  0  0  0  0  0  0  0  0  0  0
   -1.4836    3.1585    8.8294 H   0  0  0  0  0  0  0  0  0  0  0  0
   -1.4777    2.4086   10.4886 H   0  0  0  0  0  0  0  0  0  0  0  0
   -0.1929   -3.4394    8.7333 C   0  0  0  0  0  0  0  0  0  0  0  0
    1.2017   -3.9110    8.7142 C   0  0  0  0  0  0  0  0  0  0  0  0
    1.4174   -4.7999    9.9235 C   0  0  0  0  0  0  0  0  0  0  0  0
    0.0860   -4.9825   10.5870 C   0  0  0  0  0  0  0  0  0  0  0  0
   -0.9412   -4.2437    9.7988 C   0  0  0  0  0  0  0  0  0  0  0  0
  1  2  1  0  0  0
  2  3  2  0  0  0
  3  4  1  0  0  0
  4  5  2  0  0  0
  5  8  1  0  0  0
  8  9  1  0  0  0
  9 10  2  0  0  0
  9 12  1  0  0  0
 12 13  2  0  0  0
 13 14  1  0  0  0
 14 15  2  0  0  0
 15 16  1  0  0  0
 15 17  1  0  0  0
 17 18  1  0  0  0
 17 19  1  0  0  0
 17 20  1  0  0  0
  5  6  1  0  0  0
  6  7  2  0  0  0
  7 21  1  0  0  0
 21 22  3  0  0  0
 22 23  1  0  0  0
 23 24  2  0  0  0
 24 25  1  0  0  0
 25 35  1  0  0  0
 35 36  1  0  0  0
 36 37  1  0  0  0
 37 38  1  0  0  0
 38 39  1  0  0  0
 25 26  1  0  0  0
 26 27  2  0  0  0
 27 28  1  0  0  0
 28 29  2  0  0  0
 29 30  1  0  0  0
 30 31  1  0  0  0
 30 32  2  0  0  0
  7  2  1  0  0  0
 32 23  1  0  0  0
 16 12  1  0  0  0
 39 35  1  0  0  0
 32 26  1  0  0  0
  8 11  1  0  0  0
 31 33  1  0  0  0
 31 34  1  0  0  0
M  END
> <minimizedAffinity>
-7.94840

> <CNNscore>
0.1012348309

> <CNNaffinity>
6.4378609657

> <CNN_VS>
0.6517357826

> <CNNaffinity_variance>
0.1651529372

$$$$
[H]c1nc(N([H])[H])c2c(C#Cc3c(C([H])([H])[H])nc([H])c(N([H])C(=O)c4sc(C(F)(F)F)c([H])c4[H])c3[H])nn(C3([H])C([H])([H])C([H])([H])C([H])([H])C3([H])[H])c2n1


 39 43  0  0  0  0  0  0  0  0999 V2000
    3.8477    7.1232   15.6304 C   0  0  0  0  0  0  0  0  0  0  0  0
    3.6479    5.9954   14.6781 C   0  0  0  0  0  0  0  0  0  0  0  0
    3.3268    6.2359   13.3903 N   0  0  0  0  0  0  0  0  0  0  0  0
    3.1414    5.2978   12.4520 C   0  0  0  0  0  0  0  0  0  0  0  0
    3.2814    3.9715   12.7994 C   0  0  0  0  0  0  0  0  0  0  0  0
    3.6120    3.6808   14.1069 C   0  0  0  0  0  0  0  0  0  0  0  0
    3.7945    4.6871   15.0541 C   0  0  0  0  0  0  0  0  0  0  0  0
    3.0494    2.9285   11.8715 N   0  0  0  0  0  0  0  0  0  0  0  0
    1.8044    2.3020   11.6468 C   0  0  0  0  0  0  0  0  0  0  0  0
    0.8015    2.6349   12.2955 O   0  0  0  0  0  0  0  0  0  0  0  0
    3.9142    2.6335   11.3205 H   0  0  0  0  0  0  0  0  0  0  0  0
    1.7159    1.2474   10.6296 C   0  0  0  0  0  0  0  0  0  0  0  0
    0.6077    0.5651   10.2108 C   0  0  0  0  0  0  0  0  0  0  0  0
    0.7842   -0.3679    9.2593 C   0  0  0  0  0  0  0  0  0  0  0  0
    2.0586   -0.5523    8.7908 C   0  0  0  0  0  0  0  0  0  0  0  0
    2.9720    0.5677    9.6809 S   0  0  0  0  0  0  0  0  0  0  0  0
    2.4978   -1.5500    7.7341 C   0  0  0  0  0  0  0  0  0  0  0  0
    2.1009   -2.8322    8.0612 F   0  0  0  0  0  0  0  0  0  0  0  0
    3.8590   -1.5532    7.5887 F   0  0  0  0  0  0  0  0  0  0  0  0
    1.9224   -1.1202    6.5562 F   0  0  0  0  0  0  0  0  0  0  0  0
    4.0573    4.3323   16.4337 C   0  0  0  0  0  0  0  0  0  0  0  0
    4.3039    4.0791   17.6175 C   0  0  0  0  0  0  0  0  0  0  0  0
    4.6239    3.8552   19.0036 C   0  0  0  0  0  0  0  0  0  0  0  0
    5.1617    4.7532   19.8425 N   0  0  0  0  0  0  0  0  0  0  0  0
    5.4051    4.2001   21.0485 N   0  0  0  0  0  0  0  0  0  0  0  0
    5.0280    2.9148   21.0296 C   0  0  0  0  0  0  0  0  0  0  0  0
    5.0379    1.9130   21.9144 N   0  0  0  0  0  0  0  0  0  0  0  0
    4.5745    0.6954   21.5908 C   0  0  0  0  0  0  0  0  0  0  0  0
    4.0908    0.4770   20.3585 N   0  0  0  0  0  0  0  0  0  0  0  0
    4.0609    1.4404   19.4321 C   0  0  0  0  0  0  0  0  0  0  0  0
    3.5251    1.2034   18.1262 N   0  0  0  0  0  0  0  0  0  0  0  0
    4.5314    2.7016   19.7306 C   0  0  0  0  0  0  0  0  0  0  0  0
    3.9324    0.4325   17.5770 H   0  0  0  0  0  0  0  0  0  0  0  0
    2.7659    1.8116   17.8071 H   0  0  0  0  0  0  0  0  0  0  0  0
    6.0130    4.9080   22.1430 C   0  0  0  0  0  0  0  0  0  0  0  0
    7.4852    4.9101   22.1310 C   0  0  0  0  0  0  0  0  0  0  0  0
    7.9537    6.3084   21.7785 C   0  0  0  0  0  0  0  0  0  0  0  0
    6.7408    7.1876   21.7317 C   0  0  0  0  0  0  0  0  0  0  0  0
    5.5453    6.3632   22.0688 C   0  0  0  0  0  0  0  0  0  0  0  0
  1  2  1  0  0  0
  2  3  2  0  0  0
  3  4  1  0  0  0
  4  5  2  0  0  0
  5  8  1  0  0  0
  8  9  1  0  0  0
  9 10  2  0  0  0
  9 12  1  0  0  0
 12 13  2  0  0  0
 13 14  1  0  0  0
 14 15  2  0  0  0
 15 16  1  0  0  0
 15 17  1  0  0  0
 17 18  1  0  0  0
 17 19  1  0  0  0
 17 20  1  0  0  0
  5  6  1  0  0  0
  6  7  2  0  0  0
  7 21  1  0  0  0
 21 22  3  0  0  0
 22 23  1  0  0  0
 23 24  2  0  0  0
 24 25  1  0  0  0
 25 35  1  0  0  0
 35 36  1  0  0  0
 36 37  1  0  0  0
 37 38  1  0  0  0
 38 39  1  0  0  0
 25 26  1  0  0  0
 26 27  2  0  0  0
 27 28  1  0  0  0
 28 29  2  0  0  0
 29 30  1  0  0  0
 30 31  1  0  0  0
 30 32  2  0  0  0
  7  2  1  0  0  0
 32 23  1  0  0  0
 16 12  1  0  0  0
 39 35  1  0  0  0
 32 26  1  0  0  0
  8 11  1  0  0  0
 31 33  1  0  0  0
 31 34  1  0  0  0
M  END
> <minimizedAffinity>
-7.58541

> <CNNscore>
0.0997181535

> <CNNaffinity>
6.7245268822

> <CNN_VS>
0.6705573797

> <CNNaffinity_variance>
1.0369927883

$$$$
[H]c1c([H])c(N([H])C(=O)[C@](c2nc3c(c(C([H])([H])[H])c(C([H])([H])[H])n3-c3c([H])c([H])c(OC([H])([H])[H])c(OC([H])([H])[H])c3[H])c(=O)n2[H])(C([H])([H])[H])C([H])([H])C([H])([H])C([H])([H])N=C(N([H])[H])N([H])[H])c([H])c([H])c1Cl


 47 50  0  0  0  0  0  0  0  0999 V2000
    3.6043    4.4422   16.1293 C   0  0  0  0  0  0  0  0  0  0  0  0
    4.3849    3.7927   15.0168 C   0  0  0  0  0  0  0  0  0  0  0  0
    4.9358    3.5205   20.7985 N   0  0  0  0  0  0  0  0  0  0  0  0
    4.8238    2.3547   21.4852 C   0  0  0  0  0  0  0  0  0  0  0  0
    5.2549    2.1488   22.8968 C   0  0  0  0  0  0  0  0  0  0  0  0
    4.2643    1.3706   20.7274 C   0  0  0  0  0  0  0  0  0  0  0  0
    3.9460   -0.0469   21.0389 C   0  0  0  0  0  0  0  0  0  0  0  0
    4.0127    1.9552   19.4970 C   0  0  0  0  0  0  0  0  0  0  0  0
    4.4338    3.2626   19.5768 C   0  0  0  0  0  0  0  0  0  0  0  0
    4.2931    4.0393   18.4921 N   0  0  0  0  0  0  0  0  0  0  0  0
    3.7672    3.5882   17.3614 C   0  0  0  0  0  0  0  0  0  0  0  0
    3.3484    2.3143   17.2588 N   0  0  0  0  0  0  0  0  0  0  0  0
    3.4626    1.4871   18.3115 C   0  0  0  0  0  0  0  0  0  0  0  0
    3.0824    0.2965   18.2476 O   0  0  0  0  0  0  0  0  0  0  0  0
    2.9308    1.9492   16.3654 H   0  0  0  0  0  0  0  0  0  0  0  0
    6.5030    7.1618   22.3280 C   0  0  0  0  0  0  0  0  0  0  0  0
    5.1589    6.9978   22.0739 C   0  0  0  0  0  0  0  0  0  0  0  0
    4.6421    5.8099   21.5719 C   0  0  0  0  0  0  0  0  0  0  0  0
    5.4820    4.7396   21.3094 C   0  0  0  0  0  0  0  0  0  0  0  0
    6.8242    4.9218   21.5695 C   0  0  0  0  0  0  0  0  0  0  0  0
    7.3493    6.0935   22.0667 C   0  0  0  0  0  0  0  0  0  0  0  0
    6.1065    9.4601   22.9502 C   0  0  0  0  0  0  0  0  0  0  0  0
    6.9887    8.3609   22.8297 O   0  0  0  0  0  0  0  0  0  0  0  0
    8.6982    6.2731   22.3262 O   0  0  0  0  0  0  0  0  0  0  0  0
    9.3789    5.7190   23.4282 C   0  0  0  0  0  0  0  0  0  0  0  0
    4.2298    5.7554   16.5081 C   0  0  0  0  0  0  0  0  0  0  0  0
    3.9587    6.8014   15.9093 O   0  0  0  0  0  0  0  0  0  0  0  0
    5.1432    5.7441   17.5805 N   0  0  0  0  0  0  0  0  0  0  0  0
    5.3395    4.7941   18.0614 H   0  0  0  0  0  0  0  0  0  0  0  0
    5.8583    6.8131   18.1420 C   0  0  0  0  0  0  0  0  0  0  0  0
    7.2363    6.7296   18.3337 C   0  0  0  0  0  0  0  0  0  0  0  0
    7.9560    7.7469   18.8944 C   0  0  0  0  0  0  0  0  0  0  0  0
    7.3454    8.9214   19.3029 C   0  0  0  0  0  0  0  0  0  0  0  0
    8.2744   10.2107   20.0154 Cl  0  0  0  0  0  0  0  0  0  0  0  0
    5.9841    9.0012   19.1125 C   0  0  0  0  0  0  0  0  0  0  0  0
    5.2525    7.9588   18.5396 C   0  0  0  0  0  0  0  0  0  0  0  0
    2.1421    4.5496   15.8892 C   0  0  0  0  0  0  0  0  0  0  0  0
    1.7138    4.7085   14.4717 C   0  0  0  0  0  0  0  0  0  0  0  0
    0.9367    6.0309   14.3969 C   0  0  0  0  0  0  0  0  0  0  0  0
    1.2051    6.7561   13.1887 N   0  0  0  0  0  0  0  0  0  0  0  0
    1.7445    7.9111   13.1198 C   0  0  0  0  0  0  0  0  0  0  0  0
    2.1356    8.5906   14.3034 N   0  0  0  0  0  0  0  0  0  0  0  0
    1.9470    8.5059   11.8482 N   0  0  0  0  0  0  0  0  0  0  0  0
    2.9109    9.3012   14.2998 H   0  0  0  0  0  0  0  0  0  0  0  0
    1.6750    8.4194   15.2341 H   0  0  0  0  0  0  0  0  0  0  0  0
    1.2540    9.2178   11.4817 H   0  0  0  0  0  0  0  0  0  0  0  0
    2.7481    8.2828   11.2419 H   0  0  0  0  0  0  0  0  0  0  0  0
 22 23  1  0  0  0
 23 16  1  0  0  0
 16 17  2  0  0  0
 17 18  1  0  0  0
 18 19  2  0  0  0
 19 20  1  0  0  0
 20 21  2  0  0  0
 21 24  1  0  0  0
 24 25  1  0  0  0
 19  3  1  0  0  0
  3  4  1  0  0  0
  4  5  1  0  0  0
  4  6  2  0  0  0
  6  7  1  0  0  0
  6  8  1  0  0  0
  8  9  2  0  0  0
  9 10  1  0  0  0
 10 11  2  0  0  0
 11 12  1  0  0  0
 12 13  1  0  0  0
 13 14  2  0  0  0
 11  1  1  0  0  0
  1  2  1  0  0  0
  1 37  1  0  0  0
 37 38  1  0  0  0
 38 39  1  0  0  0
 39 40  1  0  0  0
 40 41  2  0  0  0
 41 42  1  0  0  0
 41 43  1  0  0  0
  1 26  1  0  0  0
 26 27  2  0  0  0
 26 28  1  0  0  0
 28 30  1  0  0  0
 30 31  2  0  0  0
 31 32  1  0  0  0
 32 33  2  0  0  0
 33 34  1  0  0  0
 33 35  1  0  0  0
 35 36  2  0  0  0
 21 16  1  0  0  0
  9  3  1  0  0  0
 36 30  1  0  0  0
 13  8  1  0  0  0
 12 15  1  0  0  0
 42 44  1  0  0  0
 42 45  1  0  0  0
 43 46  1  0  0  0
 43 47  1  0  0  0
 28 29  1  0  0  0
M  END
> <minimizedAffinity>
-8.23680

> <CNNscore>
0.3844515085

> <CNNaffinity>
7.3248963356

> <CNN_VS>
2.8160674572

> <CNNaffinity_variance>
0.2739301920

$$$$
[H]c1c([H])c(N([H])C(=O)[C@](c2nc3c(c(C([H])([H])[H])c(C([H])([H])[H])n3-c3c([H])c([H])c(OC([H])([H])[H])c(OC([H])([H])[H])c3[H])c(=O)n2[H])(C([H])([H])[H])C([H])([H])C([H])([H])C([H])([H])N=C(N([H])[H])N([H])[H])c([H])c([H])c1Cl


 47 50  0  0  0  0  0  0  0  0999 V2000
    3.6188    4.3735   16.5486 C   0  0  0  0  0  0  0  0  0  0  0  0
    2.3186    5.1135   16.7240 C   0  0  0  0  0  0  0  0  0  0  0  0
    5.1404    3.3614   21.1404 N   0  0  0  0  0  0  0  0  0  0  0  0
    5.0290    2.1909   21.8191 C   0  0  0  0  0  0  0  0  0  0  0  0
    5.5194    1.9569   23.2067 C   0  0  0  0  0  0  0  0  0  0  0  0
    4.4085    1.2311   21.0778 C   0  0  0  0  0  0  0  0  0  0  0  0
    4.0670   -0.1811   21.3888 C   0  0  0  0  0  0  0  0  0  0  0  0
    4.1160    1.8367   19.8669 C   0  0  0  0  0  0  0  0  0  0  0  0
    4.5754    3.1315   19.9408 C   0  0  0  0  0  0  0  0  0  0  0  0
    4.4055    3.9244   18.8722 N   0  0  0  0  0  0  0  0  0  0  0  0
    3.8157    3.5010   17.7625 C   0  0  0  0  0  0  0  0  0  0  0  0
    3.3584    2.2399   17.6661 N   0  0  0  0  0  0  0  0  0  0  0  0
    3.4990    1.3975   18.7035 C   0  0  0  0  0  0  0  0  0  0  0  0
    3.0842    0.2182   18.6447 O   0  0  0  0  0  0  0  0  0  0  0  0
    2.8901    1.8966   16.7893 H   0  0  0  0  0  0  0  0  0  0  0  0
    6.8758    6.9377   22.6415 C   0  0  0  0  0  0  0  0  0  0  0  0
    5.5115    6.7493   22.6079 C   0  0  0  0  0  0  0  0  0  0  0  0
    4.9394    5.5826   22.1161 C   0  0  0  0  0  0  0  0  0  0  0  0
    5.7424    4.5596   21.6382 C   0  0  0  0  0  0  0  0  0  0  0  0
    7.1055    4.7657   21.6793 C   0  0  0  0  0  0  0  0  0  0  0  0
    7.6854    5.9168   22.1638 C   0  0  0  0  0  0  0  0  0  0  0  0
    7.3993    8.3396   24.5355 C   0  0  0  0  0  0  0  0  0  0  0  0
    7.4171    8.1145   23.1390 O   0  0  0  0  0  0  0  0  0  0  0  0
    9.0550    6.1206   22.2031 O   0  0  0  0  0  0  0  0  0  0  0  0
    9.8848    5.7564   23.2818 C   0  0  0  0  0  0  0  0  0  0  0  0
    3.5148    3.3985   15.4093 C   0  0  0  0  0  0  0  0  0  0  0  0
    4.0993    2.3104   15.4294 O   0  0  0  0  0  0  0  0  0  0  0  0
    2.7185    3.7791   14.3113 N   0  0  0  0  0  0  0  0  0  0  0  0
    2.2354    4.7471   14.3544 H   0  0  0  0  0  0  0  0  0  0  0  0
    2.4435    3.0693   13.1324 C   0  0  0  0  0  0  0  0  0  0  0  0
    1.3706    2.1822   13.0652 C   0  0  0  0  0  0  0  0  0  0  0  0
    1.0895    1.4642   11.9371 C   0  0  0  0  0  0  0  0  0  0  0  0
    1.8640    1.5845   10.7948 C   0  0  0  0  0  0  0  0  0  0  0  0
    1.4944    0.6642    9.3633 Cl  0  0  0  0  0  0  0  0  0  0  0  0
    2.9233    2.4615   10.8639 C   0  0  0  0  0  0  0  0  0  0  0  0
    3.2072    3.1929   12.0191 C   0  0  0  0  0  0  0  0  0  0  0  0
    4.8243    5.2371   16.4582 C   0  0  0  0  0  0  0  0  0  0  0  0
    4.5868    6.6762   16.1573 C   0  0  0  0  0  0  0  0  0  0  0  0
    5.3130    7.4752   17.2492 C   0  0  0  0  0  0  0  0  0  0  0  0
    4.4808    8.4881   17.8316 N   0  0  0  0  0  0  0  0  0  0  0  0
    3.6721    8.3165   18.8042 C   0  0  0  0  0  0  0  0  0  0  0  0
    3.5370    7.0378   19.4062 N   0  0  0  0  0  0  0  0  0  0  0  0
    2.9111    9.4172   19.2744 N   0  0  0  0  0  0  0  0  0  0  0  0
    3.2308    6.9296   20.4065 H   0  0  0  0  0  0  0  0  0  0  0  0
    3.7346    6.1433   18.8880 H   0  0  0  0  0  0  0  0  0  0  0  0
    1.9104    9.5438   18.9518 H   0  0  0  0  0  0  0  0  0  0  0  0
    3.2807   10.1207   19.9283 H   0  0  0  0  0  0  0  0  0  0  0  0
 22 23  1  0  0  0
 23 16  1  0  0  0
 16 17  2  0  0  0
 17 18  1  0  0  0
 18 19  2  0  0  0
 19 20  1  0  0  0
 20 21  2  0  0  0
 21 24  1  0  0  0
 24 25  1  0  0  0
 19  3  1  0  0  0
  3  4  1  0  0  0
  4  5  1  0  0  0
  4  6  2  0  0  0
  6  7  1  0  0  0
  6  8  1  0  0  0
  8  9  2  0  0  0
  9 10  1  0  0  0
 10 11  2  0  0  0
 11 12  1  0  0  0
 12 13  1  0  0  0
 13 14  2  0  0  0
 11  1  1  0  0  0
  1  2  1  0  0  0
  1 37  1  0  0  0
 37 38  1  0  0  0
 38 39  1  0  0  0
 39 40  1  0  0  0
 40 41  2  0  0  0
 41 42  1  0  0  0
 41 43  1  0  0  0
  1 26  1  0  0  0
 26 27  2  0  0  0
 26 28  1  0  0  0
 28 30  1  0  0  0
 30 31  2  0  0  0
 31 32  1  0  0  0
 32 33  2  0  0  0
 33 34  1  0  0  0
 33 35  1  0  0  0
 35 36  2  0  0  0
 21 16  1  0  0  0
  9  3  1  0  0  0
 36 30  1  0  0  0
 13  8  1  0  0  0
 12 15  1  0  0  0
 42 44  1  0  0  0
 42 45  1  0  0  0
 43 46  1  0  0  0
 43 47  1  0  0  0
 28 29  1  0  0  0
M  END
> <minimizedAffinity>
-8.56238

> <CNNscore>
0.3595569730

> <CNNaffinity>
7.2439298630

> <CNN_VS>
2.6046054363

> <CNNaffinity_variance>
0.3183511198

$$$$
[H]c1c([H])c(N([H])C(=O)[C@](c2nc3c(c(C([H])([H])[H])c(C([H])([H])[H])n3-c3c([H])c([H])c(OC([H])([H])[H])c(OC([H])([H])[H])c3[H])c(=O)n2[H])(C([H])([H])[H])C([H])([H])C([H])([H])C([H])([H])N=C(N([H])[H])N([H])[H])c([H])c([H])c1Cl


 47 50  0  0  0  0  0  0  0  0999 V2000
    3.2026    4.3571   16.0180 C   0  0  0  0  0  0  0  0  0  0  0  0
    4.3825    4.0057   15.1501 C   0  0  0  0  0  0  0  0  0  0  0  0
    4.5908    6.5175   20.2405 N   0  0  0  0  0  0  0  0  0  0  0  0
    4.8512    7.8315   20.4611 C   0  0  0  0  0  0  0  0  0  0  0  0
    5.2614    8.4141   21.7700 C   0  0  0  0  0  0  0  0  0  0  0  0
    4.6915    8.5773   19.3324 C   0  0  0  0  0  0  0  0  0  0  0  0
    4.8598   10.0329   19.0860 C   0  0  0  0  0  0  0  0  0  0  0  0
    4.3093    7.6777   18.3509 C   0  0  0  0  0  0  0  0  0  0  0  0
    4.2584    6.4349   18.9390 C   0  0  0  0  0  0  0  0  0  0  0  0
    3.9048    5.3890   18.1771 N   0  0  0  0  0  0  0  0  0  0  0  0
    3.6070    5.5179   16.8913 C   0  0  0  0  0  0  0  0  0  0  0  0
    3.6495    6.7221   16.2939 N   0  0  0  0  0  0  0  0  0  0  0  0
    3.9970    7.8082   17.0046 C   0  0  0  0  0  0  0  0  0  0  0  0
    4.0458    8.9423   16.4776 O   0  0  0  0  0  0  0  0  0  0  0  0
    3.4143    6.8324   15.2748 H   0  0  0  0  0  0  0  0  0  0  0  0
    4.7569    3.4385   23.1641 C   0  0  0  0  0  0  0  0  0  0  0  0
    3.7222    4.3472   23.1222 C   0  0  0  0  0  0  0  0  0  0  0  0
    3.6647    5.3569   22.1695 C   0  0  0  0  0  0  0  0  0  0  0  0
    4.6657    5.4772   21.2192 C   0  0  0  0  0  0  0  0  0  0  0  0
    5.6935    4.5592   21.2765 C   0  0  0  0  0  0  0  0  0  0  0  0
    5.7628    3.5541   22.2151 C   0  0  0  0  0  0  0  0  0  0  0  0
    3.9664    1.3005   23.9582 C   0  0  0  0  0  0  0  0  0  0  0  0
    4.7859    2.4410   24.1281 O   0  0  0  0  0  0  0  0  0  0  0  0
    6.7970    2.6340   22.2699 O   0  0  0  0  0  0  0  0  0  0  0  0
    6.7975    1.3941   21.6011 C   0  0  0  0  0  0  0  0  0  0  0  0
    2.0815    4.9030   15.1786 C   0  0  0  0  0  0  0  0  0  0  0  0
    1.1772    5.5878   15.6676 O   0  0  0  0  0  0  0  0  0  0  0  0
    2.1049    4.5995   13.8031 N   0  0  0  0  0  0  0  0  0  0  0  0
    2.9235    3.9922   13.4379 H   0  0  0  0  0  0  0  0  0  0  0  0
    1.2008    4.9806   12.7998 C   0  0  0  0  0  0  0  0  0  0  0  0
    0.1298    4.1591   12.4523 C   0  0  0  0  0  0  0  0  0  0  0  0
   -0.7558    4.4954   11.4675 C   0  0  0  0  0  0  0  0  0  0  0  0
   -0.6311    5.6801   10.7604 C   0  0  0  0  0  0  0  0  0  0  0  0
   -1.7671    6.0973    9.5080 Cl  0  0  0  0  0  0  0  0  0  0  0  0
    0.4278    6.4897   11.1055 C   0  0  0  0  0  0  0  0  0  0  0  0
    1.3308    6.1417   12.1123 C   0  0  0  0  0  0  0  0  0  0  0  0
    2.7590    3.2794   16.9393 C   0  0  0  0  0  0  0  0  0  0  0  0
    2.4333    1.9670   16.3150 C   0  0  0  0  0  0  0  0  0  0  0  0
    3.4142    0.9462   16.9098 C   0  0  0  0  0  0  0  0  0  0  0  0
    3.6236    1.1425   18.3153 N   0  0  0  0  0  0  0  0  0  0  0  0
    3.1448    0.4126   19.2467 C   0  0  0  0  0  0  0  0  0  0  0  0
    2.3271   -0.7046   18.9325 N   0  0  0  0  0  0  0  0  0  0  0  0
    3.4390    0.7319   20.5970 N   0  0  0  0  0  0  0  0  0  0  0  0
    2.2548   -1.5327   19.5768 H   0  0  0  0  0  0  0  0  0  0  0  0
    1.7584   -0.7604   18.0487 H   0  0  0  0  0  0  0  0  0  0  0  0
    2.7401    1.2788   21.1748 H   0  0  0  0  0  0  0  0  0  0  0  0
    4.3141    0.4576   21.0640 H   0  0  0  0  0  0  0  0  0  0  0  0
 22 23  1  0  0  0
 23 16  1  0  0  0
 16 17  2  0  0  0
 17 18  1  0  0  0
 18 19  2  0  0  0
 19 20  1  0  0  0
 20 21  2  0  0  0
 21 24  1  0  0  0
 24 25  1  0  0  0
 19  3  1  0  0  0
  3  4  1  0  0  0
  4  5  1  0  0  0
  4  6  2  0  0  0
  6  7  1  0  0  0
  6  8  1  0  0  0
  8  9  2  0  0  0
  9 10  1  0  0  0
 10 11  2  0  0  0
 11 12  1  0  0  0
 12 13  1  0  0  0
 13 14  2  0  0  0
 11  1  1  0  0  0
  1  2  1  0  0  0
  1 37  1  0  0  0
 37 38  1  0  0  0
 38 39  1  0  0  0
 39 40  1  0  0  0
 40 41  2  0  0  0
 41 42  1  0  0  0
 41 43  1  0  0  0
  1 26  1  0  0  0
 26 27  2  0  0  0
 26 28  1  0  0  0
 28 30  1  0  0  0
 30 31  2  0  0  0
 31 32  1  0  0  0
 32 33  2  0  0  0
 33 34  1  0  0  0
 33 35  1  0  0  0
 35 36  2  0  0  0
 21 16  1  0  0  0
  9  3  1  0  0  0
 36 30  1  0  0  0
 13  8  1  0  0  0
 12 15  1  0  0  0
 42 44  1  0  0  0
 42 45  1  0  0  0
 43 46  1  0  0  0
 43 47  1  0  0  0
 28 29  1  0  0  0
M  END
> <minimizedAffinity>
-8.67473

> <CNNscore>
0.3145948648

> <CNNaffinity>
7.3555364609

> <CNN_VS>
2.3140139580

> <CNNaffinity_variance>
0.5863784552

$$$$
[H]c1c([H])c(N([H])C(=O)[C@](c2nc3c(c(C([H])([H])[H])c(C([H])([H])[H])n3-c3c([H])c([H])c(OC([H])([H])[H])c(OC([H])([H])[H])c3[H])c(=O)n2[H])(C([H])([H])[H])C([H])([H])C([H])([H])C([H])([H])N=C(N([H])[H])N([H])[H])c([H])c([H])c1Cl


 47 50  0  0  0  0  0  0  0  0999 V2000
    3.3643    5.8151   14.7240 C   0  0  0  0  0  0  0  0  0  0  0  0
    3.8539    6.7338   13.6354 C   0  0  0  0  0  0  0  0  0  0  0  0
    4.5726    5.8472   19.5159 N   0  0  0  0  0  0  0  0  0  0  0  0
    4.7541    6.9221   20.3251 C   0  0  0  0  0  0  0  0  0  0  0  0
    5.1136    6.8540   21.7698 C   0  0  0  0  0  0  0  0  0  0  0  0
    4.5659    8.0959   19.6601 C   0  0  0  0  0  0  0  0  0  0  0  0
    4.6531    9.5073   20.1165 C   0  0  0  0  0  0  0  0  0  0  0  0
    4.2485    7.7335   18.3614 C   0  0  0  0  0  0  0  0  0  0  0  0
    4.2619    6.3586   18.3105 C   0  0  0  0  0  0  0  0  0  0  0  0
    3.9787    5.7667   17.1406 N   0  0  0  0  0  0  0  0  0  0  0  0
    3.6901    6.4599   16.0475 C   0  0  0  0  0  0  0  0  0  0  0  0
    3.6707    7.8044   16.0722 N   0  0  0  0  0  0  0  0  0  0  0  0
    3.9461    8.4554   17.2149 C   0  0  0  0  0  0  0  0  0  0  0  0
    3.9360    9.7056   17.2701 O   0  0  0  0  0  0  0  0  0  0  0  0
    3.4423    8.3610   15.2096 H   0  0  0  0  0  0  0  0  0  0  0  0
    4.9146    1.7615   20.6314 C   0  0  0  0  0  0  0  0  0  0  0  0
    4.2222    2.1532   19.5067 C   0  0  0  0  0  0  0  0  0  0  0  0
    4.1059    3.4880   19.1391 C   0  0  0  0  0  0  0  0  0  0  0  0
    4.6951    4.4775   19.9093 C   0  0  0  0  0  0  0  0  0  0  0  0
    5.3839    4.0671   21.0316 C   0  0  0  0  0  0  0  0  0  0  0  0
    5.5067    2.7481   21.4073 C   0  0  0  0  0  0  0  0  0  0  0  0
    3.8270   -0.3291   21.1542 C   0  0  0  0  0  0  0  0  0  0  0  0
    5.0131    0.4200   20.9721 O   0  0  0  0  0  0  0  0  0  0  0  0
    6.1989    2.3394   22.5355 O   0  0  0  0  0  0  0  0  0  0  0  0
    5.6391    2.2483   23.8251 C   0  0  0  0  0  0  0  0  0  0  0  0
    1.8628    5.7439   14.7106 C   0  0  0  0  0  0  0  0  0  0  0  0
    1.2196    5.3974   15.7067 O   0  0  0  0  0  0  0  0  0  0  0  0
    1.2159    6.0906   13.5083 N   0  0  0  0  0  0  0  0  0  0  0  0
    1.8373    6.3828   12.6712 H   0  0  0  0  0  0  0  0  0  0  0  0
   -0.1576    6.1201   13.2218 C   0  0  0  0  0  0  0  0  0  0  0  0
   -0.6919    5.3384   12.1990 C   0  0  0  0  0  0  0  0  0  0  0  0
   -2.0218    5.3599   11.8856 C   0  0  0  0  0  0  0  0  0  0  0  0
   -2.9116    6.1668   12.5757 C   0  0  0  0  0  0  0  0  0  0  0  0
   -4.6043    6.1843   12.1667 Cl  0  0  0  0  0  0  0  0  0  0  0  0
   -2.3811    6.9381   13.5854 C   0  0  0  0  0  0  0  0  0  0  0  0
   -1.0212    6.9133   13.9020 C   0  0  0  0  0  0  0  0  0  0  0  0
    4.0033    4.4741   14.7471 C   0  0  0  0  0  0  0  0  0  0  0  0
    3.8856    3.6630   13.5036 C   0  0  0  0  0  0  0  0  0  0  0  0
    2.7796    2.6292   13.7607 C   0  0  0  0  0  0  0  0  0  0  0  0
    3.1918    1.6017   14.6730 N   0  0  0  0  0  0  0  0  0  0  0  0
    2.6854    1.3837   15.8243 C   0  0  0  0  0  0  0  0  0  0  0  0
    1.6204    2.1912   16.3029 N   0  0  0  0  0  0  0  0  0  0  0  0
    3.2000    0.3268   16.6181 N   0  0  0  0  0  0  0  0  0  0  0  0
    0.9269    1.8284   17.0054 H   0  0  0  0  0  0  0  0  0  0  0  0
    1.4721    3.1826   15.9823 H   0  0  0  0  0  0  0  0  0  0  0  0
    3.9064    0.5337   17.3794 H   0  0  0  0  0  0  0  0  0  0  0  0
    2.9219   -0.6567   16.4974 H   0  0  0  0  0  0  0  0  0  0  0  0
 22 23  1  0  0  0
 23 16  1  0  0  0
 16 17  2  0  0  0
 17 18  1  0  0  0
 18 19  2  0  0  0
 19 20  1  0  0  0
 20 21  2  0  0  0
 21 24  1  0  0  0
 24 25  1  0  0  0
 19  3  1  0  0  0
  3  4  1  0  0  0
  4  5  1  0  0  0
  4  6  2  0  0  0
  6  7  1  0  0  0
  6  8  1  0  0  0
  8  9  2  0  0  0
  9 10  1  0  0  0
 10 11  2  0  0  0
 11 12  1  0  0  0
 12 13  1  0  0  0
 13 14  2  0  0  0
 11  1  1  0  0  0
  1  2  1  0  0  0
  1 37  1  0  0  0
 37 38  1  0  0  0
 38 39  1  0  0  0
 39 40  1  0  0  0
 40 41  2  0  0  0
 41 42  1  0  0  0
 41 43  1  0  0  0
  1 26  1  0  0  0
 26 27  2  0  0  0
 26 28  1  0  0  0
 28 30  1  0  0  0
 30 31  2  0  0  0
 31 32  1  0  0  0
 32 33  2  0  0  0
 33 34  1  0  0  0
 33 35  1  0  0  0
 35 36  2  0  0  0
 21 16  1  0  0  0
  9  3  1  0  0  0
 36 30  1  0  0  0
 13  8  1  0  0  0
 12 15  1  0  0  0
 42 44  1  0  0  0
 42 45  1  0  0  0
 43 46  1  0  0  0
 43 47  1  0  0  0
 28 29  1  0  0  0
M  END
> <minimizedAffinity>
-9.35084

> <CNNscore>
0.2933787405

> <CNNaffinity>
7.1385245323

> <CNN_VS>
2.0942914486

> <CNNaffinity_variance>
0.3091901839

$$$$
[H]c1c([H])c(N([H])C(=O)[C@](c2nc3c(c(C([H])([H])[H])c(C([H])([H])[H])n3-c3c([H])c([H])c(OC([H])([H])[H])c(OC([H])([H])[H])c3[H])c(=O)n2[H])(C([H])([H])[H])C([H])([H])C([H])([H])C([H])([H])N=C(N([H])[H])N([H])[H])c([H])c([H])c1Cl


 47 50  0  0  0  0  0  0  0  0999 V2000
    2.0462    4.0471   13.7386 C   0  0  0  0  0  0  0  0  0  0  0  0
    1.1199    3.0269   13.1303 C   0  0  0  0  0  0  0  0  0  0  0  0
    4.1562    4.2831   18.2014 N   0  0  0  0  0  0  0  0  0  0  0  0
    4.3901    3.2666   19.0703 C   0  0  0  0  0  0  0  0  0  0  0  0
    5.0400    3.4134   20.4033 C   0  0  0  0  0  0  0  0  0  0  0  0
    3.9590    2.0707   18.5808 C   0  0  0  0  0  0  0  0  0  0  0  0
    3.9973    0.7024   19.1589 C   0  0  0  0  0  0  0  0  0  0  0  0
    3.4256    2.3566   17.3348 C   0  0  0  0  0  0  0  0  0  0  0  0
    3.5627    3.7113   17.1374 C   0  0  0  0  0  0  0  0  0  0  0  0
    3.1148    4.2306   15.9845 N   0  0  0  0  0  0  0  0  0  0  0  0
    2.5519    3.4851   15.0433 C   0  0  0  0  0  0  0  0  0  0  0  0
    2.4067    2.1589   15.2129 N   0  0  0  0  0  0  0  0  0  0  0  0
    2.8356    1.5798   16.3471 C   0  0  0  0  0  0  0  0  0  0  0  0
    2.7150    0.3484   16.5348 O   0  0  0  0  0  0  0  0  0  0  0  0
    1.9618    1.5610   14.4709 H   0  0  0  0  0  0  0  0  0  0  0  0
    5.0957    8.3741   18.8612 C   0  0  0  0  0  0  0  0  0  0  0  0
    3.8051    7.9004   18.9498 C   0  0  0  0  0  0  0  0  0  0  0  0
    3.4928    6.5641   18.7329 C   0  0  0  0  0  0  0  0  0  0  0  0
    4.4910    5.6570   18.4161 C   0  0  0  0  0  0  0  0  0  0  0  0
    5.7767    6.1489   18.3315 C   0  0  0  0  0  0  0  0  0  0  0  0
    6.0999    7.4704   18.5438 C   0  0  0  0  0  0  0  0  0  0  0  0
    5.3712   10.2041   20.4109 C   0  0  0  0  0  0  0  0  0  0  0  0
    5.3758    9.7148   19.0837 O   0  0  0  0  0  0  0  0  0  0  0  0
    7.3924    7.9611   18.4575 O   0  0  0  0  0  0  0  0  0  0  0  0
    8.4716    7.5077   19.2415 C   0  0  0  0  0  0  0  0  0  0  0  0
    3.2840    4.1946   12.8986 C   0  0  0  0  0  0  0  0  0  0  0  0
    4.3955    3.8498   13.3127 O   0  0  0  0  0  0  0  0  0  0  0  0
    3.1230    4.7455   11.6122 N   0  0  0  0  0  0  0  0  0  0  0  0
    2.1228    5.0300   11.3105 H   0  0  0  0  0  0  0  0  0  0  0  0
    4.0934    4.9861   10.6273 C   0  0  0  0  0  0  0  0  0  0  0  0
    4.2791    4.0935    9.5730 C   0  0  0  0  0  0  0  0  0  0  0  0
    5.2279    4.2922    8.6099 C   0  0  0  0  0  0  0  0  0  0  0  0
    6.0584    5.4007    8.6346 C   0  0  0  0  0  0  0  0  0  0  0  0
    7.2631    5.6425    7.4004 Cl  0  0  0  0  0  0  0  0  0  0  0  0
    5.8729    6.2807    9.6772 C   0  0  0  0  0  0  0  0  0  0  0  0
    4.9024    6.0734   10.6596 C   0  0  0  0  0  0  0  0  0  0  0  0
    1.4144    5.3512   14.0657 C   0  0  0  0  0  0  0  0  0  0  0  0
    0.2559    5.7559   13.2217 C   0  0  0  0  0  0  0  0  0  0  0  0
    0.3520    7.2789   13.0510 C   0  0  0  0  0  0  0  0  0  0  0  0
    0.7963    7.6561   11.7403 N   0  0  0  0  0  0  0  0  0  0  0  0
    1.9167    8.2021   11.4642 C   0  0  0  0  0  0  0  0  0  0  0  0
    2.8482    8.4873   12.4969 N   0  0  0  0  0  0  0  0  0  0  0  0
    2.2181    8.5201   10.1152 N   0  0  0  0  0  0  0  0  0  0  0  0
    3.8813    8.5411   12.3073 H   0  0  0  0  0  0  0  0  0  0  0  0
    2.5556    8.6572   13.4935 H   0  0  0  0  0  0  0  0  0  0  0  0
    2.0725    9.5070    9.7599 H   0  0  0  0  0  0  0  0  0  0  0  0
    2.5800    7.8324    9.4405 H   0  0  0  0  0  0  0  0  0  0  0  0
 22 23  1  0  0  0
 23 16  1  0  0  0
 16 17  2  0  0  0
 17 18  1  0  0  0
 18 19  2  0  0  0
 19 20  1  0  0  0
 20 21  2  0  0  0
 21 24  1  0  0  0
 24 25  1  0  0  0
 19  3  1  0  0  0
  3  4  1  0  0  0
  4  5  1  0  0  0
  4  6  2  0  0  0
  6  7  1  0  0  0
  6  8  1  0  0  0
  8  9  2  0  0  0
  9 10  1  0  0  0
 10 11  2  0  0  0
 11 12  1  0  0  0
 12 13  1  0  0  0
 13 14  2  0  0  0
 11  1  1  0  0  0
  1  2  1  0  0  0
  1 37  1  0  0  0
 37 38  1  0  0  0
 38 39  1  0  0  0
 39 40  1  0  0  0
 40 41  2  0  0  0
 41 42  1  0  0  0
 41 43  1  0  0  0
  1 26  1  0  0  0
 26 27  2  0  0  0
 26 28  1  0  0  0
 28 30  1  0  0  0
 30 31  2  0  0  0
 31 32  1  0  0  0
 32 33  2  0  0  0
 33 34  1  0  0  0
 33 35  1  0  0  0
 35 36  2  0  0  0
 21 16  1  0  0  0
  9  3  1  0  0  0
 36 30  1  0  0  0
 13  8  1  0  0  0
 12 15  1  0  0  0
 42 44  1  0  0  0
 42 45  1  0  0  0
 43 46  1  0  0  0
 43 47  1  0  0  0
 28 29  1  0  0  0
M  END
> <minimizedAffinity>
-7.65530

> <CNNscore>
0.2049164027

> <CNNaffinity>
6.6377763748

> <CNN_VS>
1.3601891994

> <CNNaffinity_variance>
0.6084306240

$$$$
[H]c1c([H])c(N([H])C(=O)[C@](c2nc3c(c(C([H])([H])[H])c(C([H])([H])[H])n3-c3c([H])c([H])c(OC([H])([H])[H])c(OC([H])([H])[H])c3[H])c(=O)n2[H])(C([H])([H])[H])C([H])([H])C([H])([H])C([H])([H])N=C(N([H])[H])N([H])[H])c([H])c([H])c1Cl


 47 50  0  0  0  0  0  0  0  0999 V2000
    3.8801    5.0734   16.7698 C   0  0  0  0  0  0  0  0  0  0  0  0
    2.4447    5.5221   16.8543 C   0  0  0  0  0  0  0  0  0  0  0  0
    5.6807    3.8081   21.1949 N   0  0  0  0  0  0  0  0  0  0  0  0
    5.5855    2.6091   21.8244 C   0  0  0  0  0  0  0  0  0  0  0  0
    6.1621    2.2977   23.1629 C   0  0  0  0  0  0  0  0  0  0  0  0
    4.8926    1.7000   21.0834 C   0  0  0  0  0  0  0  0  0  0  0  0
    4.5371    0.2823   21.3510 C   0  0  0  0  0  0  0  0  0  0  0  0
    4.5347    2.3695   19.9248 C   0  0  0  0  0  0  0  0  0  0  0  0
    5.0307    3.6487   20.0273 C   0  0  0  0  0  0  0  0  0  0  0  0
    4.8095    4.4957   19.0109 N   0  0  0  0  0  0  0  0  0  0  0  0
    4.1360    4.1393   17.9256 C   0  0  0  0  0  0  0  0  0  0  0  0
    3.6414    2.8948   17.8021 N   0  0  0  0  0  0  0  0  0  0  0  0
    3.8301    2.0005   18.7871 C   0  0  0  0  0  0  0  0  0  0  0  0
    3.3825    0.8349   18.7020 O   0  0  0  0  0  0  0  0  0  0  0  0
    3.1067    2.6045   16.9443 H   0  0  0  0  0  0  0  0  0  0  0  0
    7.7051    7.2208   22.7147 C   0  0  0  0  0  0  0  0  0  0  0  0
    8.2826    5.9700   22.7197 C   0  0  0  0  0  0  0  0  0  0  0  0
    7.6237    4.8509   22.2258 C   0  0  0  0  0  0  0  0  0  0  0  0
    6.3449    4.9673   21.7056 C   0  0  0  0  0  0  0  0  0  0  0  0
    5.7825    6.2267   21.7090 C   0  0  0  0  0  0  0  0  0  0  0  0
    6.4241    7.3437   22.1954 C   0  0  0  0  0  0  0  0  0  0  0  0
    9.5777    8.1085   23.9525 C   0  0  0  0  0  0  0  0  0  0  0  0
    8.3890    8.3195   23.2152 O   0  0  0  0  0  0  0  0  0  0  0  0
    5.8560    8.6071   22.1976 O   0  0  0  0  0  0  0  0  0  0  0  0
    4.8617    9.0360   21.2963 C   0  0  0  0  0  0  0  0  0  0  0  0
    4.0882    4.2162   15.5527 C   0  0  0  0  0  0  0  0  0  0  0  0
    4.9517    3.3335   15.5191 O   0  0  0  0  0  0  0  0  0  0  0  0
    3.2528    4.4626   14.4455 N   0  0  0  0  0  0  0  0  0  0  0  0
    2.5180    5.2523   14.5381 H   0  0  0  0  0  0  0  0  0  0  0  0
    3.2241    3.8159   13.2003 C   0  0  0  0  0  0  0  0  0  0  0  0
    2.5442    2.6104   13.0358 C   0  0  0  0  0  0  0  0  0  0  0  0
    2.5140    1.9492   11.8404 C   0  0  0  0  0  0  0  0  0  0  0  0
    3.1634    2.4495   10.7237 C   0  0  0  0  0  0  0  0  0  0  0  0
    3.1165    1.5971    9.2058 Cl  0  0  0  0  0  0  0  0  0  0  0  0
    3.8344    3.6404   10.8890 C   0  0  0  0  0  0  0  0  0  0  0  0
    3.8630    4.3126   12.1127 C   0  0  0  0  0  0  0  0  0  0  0  0
    4.8849    6.1616   16.8854 C   0  0  0  0  0  0  0  0  0  0  0  0
    4.3501    7.5425   17.0438 C   0  0  0  0  0  0  0  0  0  0  0  0
    5.4818    8.3805   17.6562 C   0  0  0  0  0  0  0  0  0  0  0  0
    6.4697    7.5718   18.3103 N   0  0  0  0  0  0  0  0  0  0  0  0
    7.6634    7.9327   18.5830 C   0  0  0  0  0  0  0  0  0  0  0  0
    8.1154    9.2329   18.2357 N   0  0  0  0  0  0  0  0  0  0  0  0
    8.5309    7.0196   19.2352 N   0  0  0  0  0  0  0  0  0  0  0  0
    8.8883    9.7077   18.7679 H   0  0  0  0  0  0  0  0  0  0  0  0
    7.7043    9.7819   17.4374 H   0  0  0  0  0  0  0  0  0  0  0  0
    9.2271    6.4566   18.6698 H   0  0  0  0  0  0  0  0  0  0  0  0
    8.5263    6.8654   20.2527 H   0  0  0  0  0  0  0  0  0  0  0  0
 22 23  1  0  0  0
 23 16  1  0  0  0
 16 17  2  0  0  0
 17 18  1  0  0  0
 18 19  2  0  0  0
 19 20  1  0  0  0
 20 21  2  0  0  0
 21 24  1  0  0  0
 24 25  1  0  0  0
 19  3  1  0  0  0
  3  4  1  0  0  0
  4  5  1  0  0  0
  4  6  2  0  0  0
  6  7  1  0  0  0
  6  8  1  0  0  0
  8  9  2  0  0  0
  9 10  1  0  0  0
 10 11  2  0  0  0
 11 12  1  0  0  0
 12 13  1  0  0  0
 13 14  2  0  0  0
 11  1  1  0  0  0
  1  2  1  0  0  0
  1 37  1  0  0  0
 37 38  1  0  0  0
 38 39  1  0  0  0
 39 40  1  0  0  0
 40 41  2  0  0  0
 41 42  1  0  0  0
 41 43  1  0  0  0
  1 26  1  0  0  0
 26 27  2  0  0  0
 26 28  1  0  0  0
 28 30  1  0  0  0
 30 31  2  0  0  0
 31 32  1  0  0  0
 32 33  2  0  0  0
 33 34  1  0  0  0
 33 35  1  0  0  0
 35 36  2  0  0  0
 21 16  1  0  0  0
  9  3  1  0  0  0
 36 30  1  0  0  0
 13  8  1  0  0  0
 12 15  1  0  0  0
 42 44  1  0  0  0
 42 45  1  0  0  0
 43 46  1  0  0  0
 43 47  1  0  0  0
 28 29  1  0  0  0
M  END
> <minimizedAffinity>
-8.01813

> <CNNscore>
0.1723785251

> <CNNaffinity>
6.7397737503

> <CNN_VS>
1.1617922783

> <CNNaffinity_variance>
0.6506782770

$$$$
[H]c1c([H])c(N([H])C(=O)[C@](c2nc3c(c(C([H])([H])[H])c(C([H])([H])[H])n3-c3c([H])c([H])c(OC([H])([H])[H])c(OC([H])([H])[H])c3[H])c(=O)n2[H])(C([H])([H])[H])C([H])([H])C([H])([H])C([H])([H])N=C(N([H])[H])N([H])[H])c([H])c([H])c1Cl


 47 50  0  0  0  0  0  0  0  0999 V2000
    4.6066    5.5996   18.8692 C   0  0  0  0  0  0  0  0  0  0  0  0
    3.2714    5.5564   19.5650 C   0  0  0  0  0  0  0  0  0  0  0  0
    3.3205    6.6671   14.2184 N   0  0  0  0  0  0  0  0  0  0  0  0
    3.4690    7.8447   13.5593 C   0  0  0  0  0  0  0  0  0  0  0  0
    3.0608    8.0920   12.1475 C   0  0  0  0  0  0  0  0  0  0  0  0
    4.0462    8.7967   14.3442 C   0  0  0  0  0  0  0  0  0  0  0  0
    4.4035   10.2122   14.0677 C   0  0  0  0  0  0  0  0  0  0  0  0
    4.2713    8.1784   15.5631 C   0  0  0  0  0  0  0  0  0  0  0  0
    3.8177    6.8844   15.4500 C   0  0  0  0  0  0  0  0  0  0  0  0
    3.9324    6.0789   16.5165 N   0  0  0  0  0  0  0  0  0  0  0  0
    4.4636    6.4892   17.6602 C   0  0  0  0  0  0  0  0  0  0  0  0
    4.9140    7.7492   17.7952 N   0  0  0  0  0  0  0  0  0  0  0  0
    4.8265    8.6040   16.7621 C   0  0  0  0  0  0  0  0  0  0  0  0
    5.2368    9.7825   16.8563 O   0  0  0  0  0  0  0  0  0  0  0  0
    5.3369    8.0818   18.6988 H   0  0  0  0  0  0  0  0  0  0  0  0
    1.6822    3.0934   12.6061 C   0  0  0  0  0  0  0  0  0  0  0  0
    3.0402    3.2664   12.7606 C   0  0  0  0  0  0  0  0  0  0  0  0
    3.5806    4.4339   13.2853 C   0  0  0  0  0  0  0  0  0  0  0  0
    2.7511    5.4733   13.6741 C   0  0  0  0  0  0  0  0  0  0  0  0
    1.3948    5.2827   13.5120 C   0  0  0  0  0  0  0  0  0  0  0  0
    0.8462    4.1312   12.9934 C   0  0  0  0  0  0  0  0  0  0  0  0
    1.3815    1.6318   10.7089 C   0  0  0  0  0  0  0  0  0  0  0  0
    1.1729    1.9153   12.0790 O   0  0  0  0  0  0  0  0  0  0  0  0
   -0.5167    3.9434   12.8316 O   0  0  0  0  0  0  0  0  0  0  0  0
   -1.3107    4.6318   11.8932 C   0  0  0  0  0  0  0  0  0  0  0  0
    5.6192    6.3061   19.7265 C   0  0  0  0  0  0  0  0  0  0  0  0
    6.8096    6.3747   19.4038 O   0  0  0  0  0  0  0  0  0  0  0  0
    5.1518    6.8902   20.9201 N   0  0  0  0  0  0  0  0  0  0  0  0
    4.0976    6.7921   21.1467 H   0  0  0  0  0  0  0  0  0  0  0  0
    5.8676    7.6076   21.8910 C   0  0  0  0  0  0  0  0  0  0  0  0
    5.7354    8.9908   22.0004 C   0  0  0  0  0  0  0  0  0  0  0  0
    6.4328    9.7177   22.9237 C   0  0  0  0  0  0  0  0  0  0  0  0
    7.3129    9.1096   23.8039 C   0  0  0  0  0  0  0  0  0  0  0  0
    8.1951   10.0476   24.9764 Cl  0  0  0  0  0  0  0  0  0  0  0  0
    7.4416    7.7432   23.6936 C   0  0  0  0  0  0  0  0  0  0  0  0
    6.7272    7.0043   22.7482 C   0  0  0  0  0  0  0  0  0  0  0  0
    5.0936    4.2896   18.3654 C   0  0  0  0  0  0  0  0  0  0  0  0
    4.6834    3.0873   19.1427 C   0  0  0  0  0  0  0  0  0  0  0  0
    4.5606    1.9368   18.1330 C   0  0  0  0  0  0  0  0  0  0  0  0
    3.5073    2.1518   17.1832 N   0  0  0  0  0  0  0  0  0  0  0  0
    2.7356    1.2502   16.7129 C   0  0  0  0  0  0  0  0  0  0  0  0
    2.8794   -0.1011   17.1237 N   0  0  0  0  0  0  0  0  0  0  0  0
    1.7353    1.6150   15.7759 N   0  0  0  0  0  0  0  0  0  0  0  0
    2.0697   -0.7720   17.1034 H   0  0  0  0  0  0  0  0  0  0  0  0
    3.7932   -0.4957   17.4658 H   0  0  0  0  0  0  0  0  0  0  0  0
    1.9085    1.4819   14.7396 H   0  0  0  0  0  0  0  0  0  0  0  0
    0.8255    2.0120   16.0474 H   0  0  0  0  0  0  0  0  0  0  0  0
 22 23  1  0  0  0
 23 16  1  0  0  0
 16 17  2  0  0  0
 17 18  1  0  0  0
 18 19  2  0  0  0
 19 20  1  0  0  0
 20 21  2  0  0  0
 21 24  1  0  0  0
 24 25  1  0  0  0
 19  3  1  0  0  0
  3  4  1  0  0  0
  4  5  1  0  0  0
  4  6  2  0  0  0
  6  7  1  0  0  0
  6  8  1  0  0  0
  8  9  2  0  0  0
  9 10  1  0  0  0
 10 11  2  0  0  0
 11 12  1  0  0  0
 12 13  1  0  0  0
 13 14  2  0  0  0
 11  1  1  0  0  0
  1  2  1  0  0  0
  1 37  1  0  0  0
 37 38  1  0  0  0
 38 39  1  0  0  0
 39 40  1  0  0  0
 40 41  2  0  0  0
 41 42  1  0  0  0
 41 43  1  0  0  0
  1 26  1  0  0  0
 26 27  2  0  0  0
 26 28  1  0  0  0
 28 30  1  0  0  0
 30 31  2  0  0  0
 31 32  1  0  0  0
 32 33  2  0  0  0
 33 34  1  0  0  0
 33 35  1  0  0  0
 35 36  2  0  0  0
 21 16  1  0  0  0
  9  3  1  0  0  0
 36 30  1  0  0  0
 13  8  1  0  0  0
 12 15  1  0  0  0
 42 44  1  0  0  0
 42 45  1  0  0  0
 43 46  1  0  0  0
 43 47  1  0  0  0
 28 29  1  0  0  0
M  END
> <minimizedAffinity>
-8.15871

> <CNNscore>
0.1239681020

> <CNNaffinity>
6.4691710472

> <CNN_VS>
0.8019708395

> <CNNaffinity_variance>
0.5374131203

$$$$
[H]c1c([H])c(N([H])C(=O)[C@](c2nc3c(c(C([H])([H])[H])c(C([H])([H])[H])n3-c3c([H])c([H])c(OC([H])([H])[H])c(OC([H])([H])[H])c3[H])c(=O)n2[H])(C([H])([H])[H])C([H])([H])C([H])([H])C([H])([H])N=C(N([H])[H])N([H])[H])c([H])c([H])c1Cl


 47 50  0  0  0  0  0  0  0  0999 V2000
    3.1290    5.7911   14.8951 C   0  0  0  0  0  0  0  0  0  0  0  0
    4.1816    5.2076   13.9894 C   0  0  0  0  0  0  0  0  0  0  0  0
    0.0413    4.2006   11.3794 N   0  0  0  0  0  0  0  0  0  0  0  0
   -1.2683    4.5169   11.2113 C   0  0  0  0  0  0  0  0  0  0  0  0
   -2.1393    4.0002   10.1180 C   0  0  0  0  0  0  0  0  0  0  0  0
   -1.7098    5.3782   12.1698 C   0  0  0  0  0  0  0  0  0  0  0  0
   -3.0424    5.9952   12.3962 C   0  0  0  0  0  0  0  0  0  0  0  0
   -0.6133    5.6136   12.9829 C   0  0  0  0  0  0  0  0  0  0  0  0
    0.4335    4.8813   12.4722 C   0  0  0  0  0  0  0  0  0  0  0  0
    1.6180    4.9506   13.0978 N   0  0  0  0  0  0  0  0  0  0  0  0
    1.8054    5.6949   14.1793 C   0  0  0  0  0  0  0  0  0  0  0  0
    0.7977    6.4195   14.6972 N   0  0  0  0  0  0  0  0  0  0  0  0
   -0.4131    6.3913   14.1152 C   0  0  0  0  0  0  0  0  0  0  0  0
   -1.3706    7.0544   14.5730 O   0  0  0  0  0  0  0  0  0  0  0  0
    0.9386    7.0125   15.5543 H   0  0  0  0  0  0  0  0  0  0  0  0
    2.2778    1.5509    8.9236 C   0  0  0  0  0  0  0  0  0  0  0  0
    1.6616    1.1258   10.0801 C   0  0  0  0  0  0  0  0  0  0  0  0
    0.9311    1.9889   10.8873 C   0  0  0  0  0  0  0  0  0  0  0  0
    0.8013    3.3245   10.5425 C   0  0  0  0  0  0  0  0  0  0  0  0
    1.4249    3.7323    9.3818 C   0  0  0  0  0  0  0  0  0  0  0  0
    2.1518    2.8877    8.5730 C   0  0  0  0  0  0  0  0  0  0  0  0
    3.5158   -0.5123    8.7307 C   0  0  0  0  0  0  0  0  0  0  0  0
    3.0006    0.6643    8.1381 O   0  0  0  0  0  0  0  0  0  0  0  0
    2.7773    3.3009    7.4081 O   0  0  0  0  0  0  0  0  0  0  0  0
    3.9986    4.0019    7.3642 C   0  0  0  0  0  0  0  0  0  0  0  0
    2.9510    4.9275   16.1125 C   0  0  0  0  0  0  0  0  0  0  0  0
    1.9023    4.9324   16.7653 O   0  0  0  0  0  0  0  0  0  0  0  0
    4.0358    4.1077   16.4803 N   0  0  0  0  0  0  0  0  0  0  0  0
    4.9277    4.1522   15.8680 H   0  0  0  0  0  0  0  0  0  0  0  0
    4.1388    3.2087   17.5530 C   0  0  0  0  0  0  0  0  0  0  0  0
    3.5912    1.9297   17.4696 C   0  0  0  0  0  0  0  0  0  0  0  0
    3.6602    1.0396   18.5041 C   0  0  0  0  0  0  0  0  0  0  0  0
    4.2838    1.3681   19.6967 C   0  0  0  0  0  0  0  0  0  0  0  0
    4.3655    0.2240   21.0072 Cl  0  0  0  0  0  0  0  0  0  0  0  0
    4.8238    2.6321   19.7765 C   0  0  0  0  0  0  0  0  0  0  0  0
    4.7505    3.5388   18.7169 C   0  0  0  0  0  0  0  0  0  0  0  0
    3.3162    7.2262   15.2305 C   0  0  0  0  0  0  0  0  0  0  0  0
    4.7108    7.6627   15.5175 C   0  0  0  0  0  0  0  0  0  0  0  0
    4.7005    8.2492   16.9367 C   0  0  0  0  0  0  0  0  0  0  0  0
    4.3526    7.2742   17.9297 N   0  0  0  0  0  0  0  0  0  0  0  0
    3.6605    7.4968   18.9789 C   0  0  0  0  0  0  0  0  0  0  0  0
    3.1623    8.7992   19.2453 N   0  0  0  0  0  0  0  0  0  0  0  0
    3.3967    6.4285   19.8739 N   0  0  0  0  0  0  0  0  0  0  0  0
    2.2967    8.9503   19.8232 H   0  0  0  0  0  0  0  0  0  0  0  0
    3.6284    9.6700   18.8817 H   0  0  0  0  0  0  0  0  0  0  0  0
    3.9904    6.3083   20.7425 H   0  0  0  0  0  0  0  0  0  0  0  0
    2.6429    5.7432   19.7282 H   0  0  0  0  0  0  0  0  0  0  0  0
 22 23  1  0  0  0
 23 16  1  0  0  0
 16 17  2  0  0  0
 17 18  1  0  0  0
 18 19  2  0  0  0
 19 20  1  0  0  0
 20 21  2  0  0  0
 21 24  1  0  0  0
 24 25  1  0  0  0
 19  3  1  0  0  0
  3  4  1  0  0  0
  4  5  1  0  0  0
  4  6  2  0  0  0
  6  7  1  0  0  0
  6  8  1  0  0  0
  8  9  2  0  0  0
  9 10  1  0  0  0
 10 11  2  0  0  0
 11 12  1  0  0  0
 12 13  1  0  0  0
 13 14  2  0  0  0
 11  1  1  0  0  0
  1  2  1  0  0  0
  1 37  1  0  0  0
 37 38  1  0  0  0
 38 39  1  0  0  0
 39 40  1  0  0  0
 40 41  2  0  0  0
 41 42  1  0  0  0
 41 43  1  0  0  0
  1 26  1  0  0  0
 26 27  2  0  0  0
 26 28  1  0  0  0
 28 30  1  0  0  0
 30 31  2  0  0  0
 31 32  1  0  0  0
 32 33  2  0  0  0
 33 34  1  0  0  0
 33 35  1  0  0  0
 35 36  2  0  0  0
 21 16  1  0  0  0
  9  3  1  0  0  0
 36 30  1  0  0  0
 13  8  1  0  0  0
 12 15  1  0  0  0
 42 44  1  0  0  0
 42 45  1  0  0  0
 43 46  1  0  0  0
 43 47  1  0  0  0
 28 29  1  0  0  0
M  END
> <minimizedAffinity>
-8.09027

> <CNNscore>
0.1197037697

> <CNNaffinity>
6.6892671585

> <CNN_VS>
0.8007304668

> <CNNaffinity_variance>
0.1359255612

$$$$
[H]c1c([H])c(N([H])C(=O)[C@](c2nc3c(c(C([H])([H])[H])c(C([H])([H])[H])n3-c3c([H])c([H])c(OC([H])([H])[H])c(OC([H])([H])[H])c3[H])c(=O)n2[H])(C([H])([H])[H])C([H])([H])C([H])([H])C([H])([H])N=C(N([H])[H])N([H])[H])c([H])c([H])c1Cl


 47 50  0  0  0  0  0  0  0  0999 V2000
    3.5070    4.8269   16.3501 C   0  0  0  0  0  0  0  0  0  0  0  0
    2.2340    4.4569   17.0652 C   0  0  0  0  0  0  0  0  0  0  0  0
    2.7545    5.1038   11.4735 N   0  0  0  0  0  0  0  0  0  0  0  0
    2.3441    6.1772   10.7506 C   0  0  0  0  0  0  0  0  0  0  0  0
    2.1440    6.1877    9.2738 C   0  0  0  0  0  0  0  0  0  0  0  0
    2.1323    7.2686   11.5376 C   0  0  0  0  0  0  0  0  0  0  0  0
    1.6858    8.6463   11.2054 C   0  0  0  0  0  0  0  0  0  0  0  0
    2.4274    6.8533   12.8257 C   0  0  0  0  0  0  0  0  0  0  0  0
    2.8021    5.5317   12.7486 C   0  0  0  0  0  0  0  0  0  0  0  0
    3.1410    4.9035   13.8843 N   0  0  0  0  0  0  0  0  0  0  0  0
    3.1254    5.5124   15.0623 C   0  0  0  0  0  0  0  0  0  0  0  0
    2.7628    6.8035   15.1633 N   0  0  0  0  0  0  0  0  0  0  0  0
    2.4122    7.4868   14.0608 C   0  0  0  0  0  0  0  0  0  0  0  0
    2.0702    8.6891   14.1218 O   0  0  0  0  0  0  0  0  0  0  0  0
    2.7484    7.2933   16.0939 H   0  0  0  0  0  0  0  0  0  0  0  0
    3.6130    1.2432    9.9200 C   0  0  0  0  0  0  0  0  0  0  0  0
    2.5186    1.4775   10.7234 C   0  0  0  0  0  0  0  0  0  0  0  0
    2.2350    2.7376   11.2353 C   0  0  0  0  0  0  0  0  0  0  0  0
    3.0616    3.8108   10.9448 C   0  0  0  0  0  0  0  0  0  0  0  0
    4.1524    3.5577   10.1395 C   0  0  0  0  0  0  0  0  0  0  0  0
    4.4450    2.3142    9.6258 C   0  0  0  0  0  0  0  0  0  0  0  0
    4.7111   -0.8929   10.1605 C   0  0  0  0  0  0  0  0  0  0  0  0
    3.8694   -0.0269    9.4238 O   0  0  0  0  0  0  0  0  0  0  0  0
    5.5418    2.0635    8.8176 O   0  0  0  0  0  0  0  0  0  0  0  0
    6.8500    2.5120    9.0869 C   0  0  0  0  0  0  0  0  0  0  0  0
    4.2507    5.8819   17.1205 C   0  0  0  0  0  0  0  0  0  0  0  0
    5.1748    6.5264   16.6142 O   0  0  0  0  0  0  0  0  0  0  0  0
    3.8477    6.1064   18.4515 N   0  0  0  0  0  0  0  0  0  0  0  0
    3.0331    5.5061   18.8365 H   0  0  0  0  0  0  0  0  0  0  0  0
    4.3556    7.0233   19.3847 C   0  0  0  0  0  0  0  0  0  0  0  0
    5.1892    6.6032   20.4196 C   0  0  0  0  0  0  0  0  0  0  0  0
    5.6841    7.4699   21.3530 C   0  0  0  0  0  0  0  0  0  0  0  0
    5.3787    8.8206   21.3153 C   0  0  0  0  0  0  0  0  0  0  0  0
    6.0165    9.9148   22.5106 Cl  0  0  0  0  0  0  0  0  0  0  0  0
    4.5549    9.2330   20.2920 C   0  0  0  0  0  0  0  0  0  0  0  0
    4.0510    8.3436   19.3406 C   0  0  0  0  0  0  0  0  0  0  0  0
    4.3687    3.6782   15.9694 C   0  0  0  0  0  0  0  0  0  0  0  0
    4.8388    2.8060   17.0812 C   0  0  0  0  0  0  0  0  0  0  0  0
    4.3687    1.3828   16.7472 C   0  0  0  0  0  0  0  0  0  0  0  0
    3.8760    0.6843   17.8993 N   0  0  0  0  0  0  0  0  0  0  0  0
    2.6921    0.2287   18.0417 C   0  0  0  0  0  0  0  0  0  0  0  0
    1.7321    0.3939   17.0089 N   0  0  0  0  0  0  0  0  0  0  0  0
    2.3485   -0.4429   19.2428 N   0  0  0  0  0  0  0  0  0  0  0  0
    0.9286   -0.2745   16.8918 H   0  0  0  0  0  0  0  0  0  0  0  0
    1.7753    1.1846   16.3156 H   0  0  0  0  0  0  0  0  0  0  0  0
    1.8405    0.0779   20.0124 H   0  0  0  0  0  0  0  0  0  0  0  0
    2.5680   -1.4328   19.4186 H   0  0  0  0  0  0  0  0  0  0  0  0
 22 23  1  0  0  0
 23 16  1  0  0  0
 16 17  2  0  0  0
 17 18  1  0  0  0
 18 19  2  0  0  0
 19 20  1  0  0  0
 20 21  2  0  0  0
 21 24  1  0  0  0
 24 25  1  0  0  0
 19  3  1  0  0  0
  3  4  1  0  0  0
  4  5  1  0  0  0
  4  6  2  0  0  0
  6  7  1  0  0  0
  6  8  1  0  0  0
  8  9  2  0  0  0
  9 10  1  0  0  0
 10 11  2  0  0  0
 11 12  1  0  0  0
 12 13  1  0  0  0
 13 14  2  0  0  0
 11  1  1  0  0  0
  1  2  1  0  0  0
  1 37  1  0  0  0
 37 38  1  0  0  0
 38 39  1  0  0  0
 39 40  1  0  0  0
 40 41  2  0  0  0
 41 42  1  0  0  0
 41 43  1  0  0  0
  1 26  1  0  0  0
 26 27  2  0  0  0
 26 28  1  0  0  0
 28 30  1  0  0  0
 30 31  2  0  0  0
 31 32  1  0  0  0
 32 33  2  0  0  0
 33 34  1  0  0  0
 33 35  1  0  0  0
 35 36  2  0  0  0
 21 16  1  0  0  0
  9  3  1  0  0  0
 36 30  1  0  0  0
 13  8  1  0  0  0
 12 15  1  0  0  0
 42 44  1  0  0  0
 42 45  1  0  0  0
 43 46  1  0  0  0
 43 47  1  0  0  0
 28 29  1  0  0  0
M  END
> <minimizedAffinity>
-7.34419

> <CNNscore>
0.0962694958

> <CNNaffinity>
6.5352234840

> <CNN_VS>
0.6291426420

> <CNNaffinity_variance>
0.5713326931

$$$$
