[H]c1c([H])c(C(=O)N([H])C([H])([H])c2c([H])c([H])c3c(c2C([H])([H])[H])C([H])([H])C([H])([H])C(=O)N3[H])c([H])c(C(F)(F)F)c1[H]


 28 30  0  0  0  0  0  0  0  0999 V2000
    4.0104    2.9005   15.8696 C   0  0  0  0  0  0  0  0  0  0  0  0
    2.9360    5.3901   15.4340 C   0  0  0  0  0  0  0  0  0  0  0  0
    2.3789    4.2437   14.6441 C   0  0  0  0  0  0  0  0  0  0  0  0
    3.0059    2.9622   14.8374 C   0  0  0  0  0  0  0  0  0  0  0  0
    2.5063    1.9243   14.0850 C   0  0  0  0  0  0  0  0  0  0  0  0
    1.4596    2.1169   13.1982 C   0  0  0  0  0  0  0  0  0  0  0  0
    0.8941    3.3421   13.0339 C   0  0  0  0  0  0  0  0  0  0  0  0
   -0.0968    3.6003   12.0301 N   0  0  0  0  0  0  0  0  0  0  0  0
   -0.5724    4.8909   11.7940 C   0  0  0  0  0  0  0  0  0  0  0  0
   -1.6782    5.0584   11.1341 O   0  0  0  0  0  0  0  0  0  0  0  0
    0.1772    6.0588   12.2866 C   0  0  0  0  0  0  0  0  0  0  0  0
    0.8089    5.8004   13.6126 C   0  0  0  0  0  0  0  0  0  0  0  0
    1.3675    4.4084   13.7636 C   0  0  0  0  0  0  0  0  0  0  0  0
   -0.5029    2.8021   11.4573 H   0  0  0  0  0  0  0  0  0  0  0  0
    4.0330    2.3270   17.0800 N   0  0  0  0  0  0  0  0  0  0  0  0
    3.6571    1.0592   17.6170 C   0  0  0  0  0  0  0  0  0  0  0  0
    3.2528    0.1263   16.9813 O   0  0  0  0  0  0  0  0  0  0  0  0
    4.4736    2.9683   17.8744 H   0  0  0  0  0  0  0  0  0  0  0  0
    3.7809    0.9178   19.0989 C   0  0  0  0  0  0  0  0  0  0  0  0
    2.9316    0.0652   19.7749 C   0  0  0  0  0  0  0  0  0  0  0  0
    3.0790   -0.1043   21.1664 C   0  0  0  0  0  0  0  0  0  0  0  0
    4.0676    0.5623   21.8097 C   0  0  0  0  0  0  0  0  0  0  0  0
    4.9356    1.4165   21.1489 C   0  0  0  0  0  0  0  0  0  0  0  0
    4.7813    1.5929   19.8036 C   0  0  0  0  0  0  0  0  0  0  0  0
    6.0673    2.0593   21.9530 C   0  0  0  0  0  0  0  0  0  0  0  0
    7.1982    1.3465   21.5118 F   0  0  0  0  0  0  0  0  0  0  0  0
    5.8582    2.0345   23.2807 F   0  0  0  0  0  0  0  0  0  0  0  0
    6.2412    3.3148   21.4017 F   0  0  0  0  0  0  0  0  0  0  0  0
  2  3  1  0  0  0
  3  4  2  0  0  0
  4  1  1  0  0  0
  1 15  1  0  0  0
 15 16  1  0  0  0
 16 17  2  0  0  0
 16 19  1  0  0  0
 19 20  2  0  0  0
 20 21  1  0  0  0
 21 22  2  0  0  0
 22 23  1  0  0  0
 23 24  2  0  0  0
 23 25  1  0  0  0
 25 26  1  0  0  0
 25 27  1  0  0  0
 25 28  1  0  0  0
  4  5  1  0  0  0
  5  6  2  0  0  0
  6  7  1  0  0  0
  7  8  1  0  0  0
  8  9  1  0  0  0
  9 10  2  0  0  0
  9 11  1  0  0  0
 11 12  1  0  0  0
 12 13  1  0  0  0
 13  3  1  0  0  0
 24 19  1  0  0  0
 13  7  2  0  0  0
 15 18  1  0  0  0
  8 14  1  0  0  0
M  END
> <minimizedAffinity>
-8.56930

> <CNNscore>
0.6694562435

> <CNNaffinity>
5.7183389664

> <CNN_VS>
3.8281776905

> <CNNaffinity_variance>
0.2990734875

$$$$
[H]c1c([H])c(C(=O)N([H])C([H])([H])c2c([H])c([H])c3c(c2C([H])([H])[H])C([H])([H])C([H])([H])C(=O)N3[H])c([H])c(C(F)(F)F)c1[H]


 28 30  0  0  0  0  0  0  0  0999 V2000
    3.4849    2.0424   15.8896 C   0  0  0  0  0  0  0  0  0  0  0  0
    2.6632    2.0234   13.2693 C   0  0  0  0  0  0  0  0  0  0  0  0
    3.0775    3.3382   13.8593 C   0  0  0  0  0  0  0  0  0  0  0  0
    3.4358    3.3352   15.2536 C   0  0  0  0  0  0  0  0  0  0  0  0
    3.7849    4.5525   15.7915 C   0  0  0  0  0  0  0  0  0  0  0  0
    3.7877    5.7049   15.0227 C   0  0  0  0  0  0  0  0  0  0  0  0
    3.4369    5.6747   13.7097 C   0  0  0  0  0  0  0  0  0  0  0  0
    3.3010    6.8672   12.9252 N   0  0  0  0  0  0  0  0  0  0  0  0
    2.8185    6.8246   11.6164 C   0  0  0  0  0  0  0  0  0  0  0  0
    3.0103    7.8375   10.8266 O   0  0  0  0  0  0  0  0  0  0  0  0
    2.0913    5.6389   11.1327 C   0  0  0  0  0  0  0  0  0  0  0  0
    2.6479    4.3736   11.6922 C   0  0  0  0  0  0  0  0  0  0  0  0
    3.0761    4.4781   13.1339 C   0  0  0  0  0  0  0  0  0  0  0  0
    3.5865    7.8098   13.3254 H   0  0  0  0  0  0  0  0  0  0  0  0
    3.6117    1.6652   17.1688 N   0  0  0  0  0  0  0  0  0  0  0  0
    3.1755    0.5569   17.9552 C   0  0  0  0  0  0  0  0  0  0  0  0
    2.5855   -0.4012   17.5407 O   0  0  0  0  0  0  0  0  0  0  0  0
    4.2270    2.3577   17.7839 H   0  0  0  0  0  0  0  0  0  0  0  0
    3.4877    0.6314   19.4140 C   0  0  0  0  0  0  0  0  0  0  0  0
    2.6517    0.0127   20.3217 C   0  0  0  0  0  0  0  0  0  0  0  0
    2.9715    0.0425   21.6941 C   0  0  0  0  0  0  0  0  0  0  0  0
    4.1072    0.6649   22.0921 C   0  0  0  0  0  0  0  0  0  0  0  0
    4.9637    1.2850   21.1968 C   0  0  0  0  0  0  0  0  0  0  0  0
    4.6444    1.2700   19.8692 C   0  0  0  0  0  0  0  0  0  0  0  0
    6.2600    1.8902   21.7391 C   0  0  0  0  0  0  0  0  0  0  0  0
    6.2008    3.2140   21.2641 F   0  0  0  0  0  0  0  0  0  0  0  0
    7.3589    1.2033   21.3817 F   0  0  0  0  0  0  0  0  0  0  0  0
    6.0599    2.0257   23.1000 F   0  0  0  0  0  0  0  0  0  0  0  0
  2  3  1  0  0  0
  3  4  2  0  0  0
  4  1  1  0  0  0
  1 15  1  0  0  0
 15 16  1  0  0  0
 16 17  2  0  0  0
 16 19  1  0  0  0
 19 20  2  0  0  0
 20 21  1  0  0  0
 21 22  2  0  0  0
 22 23  1  0  0  0
 23 24  2  0  0  0
 23 25  1  0  0  0
 25 26  1  0  0  0
 25 27  1  0  0  0
 25 28  1  0  0  0
  4  5  1  0  0  0
  5  6  2  0  0  0
  6  7  1  0  0  0
  7  8  1  0  0  0
  8  9  1  0  0  0
  9 10  2  0  0  0
  9 11  1  0  0  0
 11 12  1  0  0  0
 12 13  1  0  0  0
 13  3  1  0  0  0
 24 19  1  0  0  0
 13  7  2  0  0  0
 15 18  1  0  0  0
  8 14  1  0  0  0
M  END
> <minimizedAffinity>
-8.12126

> <CNNscore>
0.5623740554

> <CNNaffinity>
5.8764410019

> <CNN_VS>
3.3047580719

> <CNNaffinity_variance>
0.3541113436

$$$$
[H]c1c([H])c(C(=O)N([H])C([H])([H])c2c([H])c([H])c3c(c2C([H])([H])[H])C([H])([H])C([H])([H])C(=O)N3[H])c([H])c(C(F)(F)F)c1[H]


 28 30  0  0  0  0  0  0  0  0999 V2000
    3.9101    3.6554   14.7919 C   0  0  0  0  0  0  0  0  0  0  0  0
    2.5471    6.0386   14.7250 C   0  0  0  0  0  0  0  0  0  0  0  0
    1.9590    4.8792   13.9778 C   0  0  0  0  0  0  0  0  0  0  0  0
    2.7270    3.6615   13.9683 C   0  0  0  0  0  0  0  0  0  0  0  0
    2.1921    2.6140   13.2544 C   0  0  0  0  0  0  0  0  0  0  0  0
    0.9832    2.7391   12.5897 C   0  0  0  0  0  0  0  0  0  0  0  0
    0.2859    3.9057   12.6126 C   0  0  0  0  0  0  0  0  0  0  0  0
   -0.8968    4.1072   11.8271 N   0  0  0  0  0  0  0  0  0  0  0  0
   -1.5258    5.3515   11.7673 C   0  0  0  0  0  0  0  0  0  0  0  0
   -2.7472    5.4349   11.3344 O   0  0  0  0  0  0  0  0  0  0  0  0
   -0.8077    6.5661   12.1890 C   0  0  0  0  0  0  0  0  0  0  0  0
    0.0848    6.3124   13.3565 C   0  0  0  0  0  0  0  0  0  0  0  0
    0.7883    4.9798   13.3109 C   0  0  0  0  0  0  0  0  0  0  0  0
   -1.3284    3.2991   11.2878 H   0  0  0  0  0  0  0  0  0  0  0  0
    4.1392    3.2478   16.0473 N   0  0  0  0  0  0  0  0  0  0  0  0
    3.8463    2.0784   16.8114 C   0  0  0  0  0  0  0  0  0  0  0  0
    3.3216    1.0856   16.3907 O   0  0  0  0  0  0  0  0  0  0  0  0
    4.7234    3.9717   16.6566 H   0  0  0  0  0  0  0  0  0  0  0  0
    4.2295    2.1311   18.2541 C   0  0  0  0  0  0  0  0  0  0  0  0
    4.9721    3.1961   18.7229 C   0  0  0  0  0  0  0  0  0  0  0  0
    5.2935    3.2701   20.0933 C   0  0  0  0  0  0  0  0  0  0  0  0
    4.8487    2.2994   20.9271 C   0  0  0  0  0  0  0  0  0  0  0  0
    4.0956    1.2264   20.4785 C   0  0  0  0  0  0  0  0  0  0  0  0
    3.7989    1.1469   19.1480 C   0  0  0  0  0  0  0  0  0  0  0  0
    3.5752    0.2269   21.5133 C   0  0  0  0  0  0  0  0  0  0  0  0
    4.0082    0.7919   22.7279 F   0  0  0  0  0  0  0  0  0  0  0  0
    3.9864   -1.0333   21.2905 F   0  0  0  0  0  0  0  0  0  0  0  0
    2.2054    0.4092   21.5423 F   0  0  0  0  0  0  0  0  0  0  0  0
  2  3  1  0  0  0
  3  4  2  0  0  0
  4  1  1  0  0  0
  1 15  1  0  0  0
 15 16  1  0  0  0
 16 17  2  0  0  0
 16 19  1  0  0  0
 19 20  2  0  0  0
 20 21  1  0  0  0
 21 22  2  0  0  0
 22 23  1  0  0  0
 23 24  2  0  0  0
 23 25  1  0  0  0
 25 26  1  0  0  0
 25 27  1  0  0  0
 25 28  1  0  0  0
  4  5  1  0  0  0
  5  6  2  0  0  0
  6  7  1  0  0  0
  7  8  1  0  0  0
  8  9  1  0  0  0
  9 10  2  0  0  0
  9 11  1  0  0  0
 11 12  1  0  0  0
 12 13  1  0  0  0
 13  3  1  0  0  0
 24 19  1  0  0  0
 13  7  2  0  0  0
 15 18  1  0  0  0
  8 14  1  0  0  0
M  END
> <minimizedAffinity>
-8.28605

> <CNNscore>
0.4720199704

> <CNNaffinity>
5.4640388489

> <CNN_VS>
2.5791354179

> <CNNaffinity_variance>
0.5774469376

$$$$
[H]c1c([H])c(C(=O)N([H])C([H])([H])c2c([H])c([H])c3c(c2C([H])([H])[H])C([H])([H])C([H])([H])C(=O)N3[H])c([H])c(C(F)(F)F)c1[H]


 28 30  0  0  0  0  0  0  0  0999 V2000
    3.6782    2.9406   14.8960 C   0  0  0  0  0  0  0  0  0  0  0  0
    4.8820    3.5024   17.2996 C   0  0  0  0  0  0  0  0  0  0  0  0
    4.0243    2.2750   17.2208 C   0  0  0  0  0  0  0  0  0  0  0  0
    3.3471    2.0404   15.9722 C   0  0  0  0  0  0  0  0  0  0  0  0
    2.5391    0.9279   15.9215 C   0  0  0  0  0  0  0  0  0  0  0  0
    2.3968    0.0913   17.0164 C   0  0  0  0  0  0  0  0  0  0  0  0
    3.0451    0.3452   18.1840 C   0  0  0  0  0  0  0  0  0  0  0  0
    2.8139   -0.4240   19.3718 N   0  0  0  0  0  0  0  0  0  0  0  0
    3.3932   -0.0694   20.5910 C   0  0  0  0  0  0  0  0  0  0  0  0
    3.4449   -0.9375   21.5554 O   0  0  0  0  0  0  0  0  0  0  0  0
    3.9403    1.2838   20.7860 C   0  0  0  0  0  0  0  0  0  0  0  0
    4.5859    1.8107   19.5492 C   0  0  0  0  0  0  0  0  0  0  0  0
    3.8591    1.4507   18.2785 C   0  0  0  0  0  0  0  0  0  0  0  0
    2.2069   -1.2961   19.3382 H   0  0  0  0  0  0  0  0  0  0  0  0
    3.0019    3.9337   14.3038 N   0  0  0  0  0  0  0  0  0  0  0  0
    2.0922    4.9472   14.7311 C   0  0  0  0  0  0  0  0  0  0  0  0
    1.7712    5.1605   15.8666 O   0  0  0  0  0  0  0  0  0  0  0  0
    3.2026    4.0286   13.2142 H   0  0  0  0  0  0  0  0  0  0  0  0
    1.5013    5.7896   13.6482 C   0  0  0  0  0  0  0  0  0  0  0  0
    0.2378    6.3209   13.8117 C   0  0  0  0  0  0  0  0  0  0  0  0
   -0.3009    7.1544   12.8109 C   0  0  0  0  0  0  0  0  0  0  0  0
    0.4441    7.4319   11.7139 C   0  0  0  0  0  0  0  0  0  0  0  0
    1.7172    6.9155   11.5340 C   0  0  0  0  0  0  0  0  0  0  0  0
    2.2316    6.0946   12.4964 C   0  0  0  0  0  0  0  0  0  0  0  0
    2.5060    7.3538   10.2985 C   0  0  0  0  0  0  0  0  0  0  0  0
    2.1901    8.7224   10.2045 F   0  0  0  0  0  0  0  0  0  0  0  0
    2.2274    6.6264    9.2029 F   0  0  0  0  0  0  0  0  0  0  0  0
    3.8313    7.3541   10.6911 F   0  0  0  0  0  0  0  0  0  0  0  0
  2  3  1  0  0  0
  3  4  2  0  0  0
  4  1  1  0  0  0
  1 15  1  0  0  0
 15 16  1  0  0  0
 16 17  2  0  0  0
 16 19  1  0  0  0
 19 20  2  0  0  0
 20 21  1  0  0  0
 21 22  2  0  0  0
 22 23  1  0  0  0
 23 24  2  0  0  0
 23 25  1  0  0  0
 25 26  1  0  0  0
 25 27  1  0  0  0
 25 28  1  0  0  0
  4  5  1  0  0  0
  5  6  2  0  0  0
  6  7  1  0  0  0
  7  8  1  0  0  0
  8  9  1  0  0  0
  9 10  2  0  0  0
  9 11  1  0  0  0
 11 12  1  0  0  0
 12 13  1  0  0  0
 13  3  1  0  0  0
 24 19  1  0  0  0
 13  7  2  0  0  0
 15 18  1  0  0  0
  8 14  1  0  0  0
M  END
> <minimizedAffinity>
-8.07033

> <CNNscore>
0.4146718979

> <CNNaffinity>
5.4298725128

> <CNN_VS>
2.2516155243

> <CNNaffinity_variance>
0.4599743783

$$$$
[H]c1c([H])c(C(=O)N([H])C([H])([H])c2c([H])c([H])c3c(c2C([H])([H])[H])C([H])([H])C([H])([H])C(=O)N3[H])c([H])c(C(F)(F)F)c1[H]


 28 30  0  0  0  0  0  0  0  0999 V2000
    3.8630    1.7386   16.7155 C   0  0  0  0  0  0  0  0  0  0  0  0
    2.8452    0.1453   18.7073 C   0  0  0  0  0  0  0  0  0  0  0  0
    3.6701    1.3290   19.1160 C   0  0  0  0  0  0  0  0  0  0  0  0
    4.2517    2.1075   18.0538 C   0  0  0  0  0  0  0  0  0  0  0  0
    5.0313    3.1730   18.4412 C   0  0  0  0  0  0  0  0  0  0  0  0
    5.2342    3.4672   19.7796 C   0  0  0  0  0  0  0  0  0  0  0  0
    4.6761    2.7073   20.7588 C   0  0  0  0  0  0  0  0  0  0  0  0
    4.9757    2.9053   22.1470 N   0  0  0  0  0  0  0  0  0  0  0  0
    4.4921    2.0358   23.1257 C   0  0  0  0  0  0  0  0  0  0  0  0
    4.4917    2.4047   24.3707 O   0  0  0  0  0  0  0  0  0  0  0  0
    3.9879    0.7041   22.7504 C   0  0  0  0  0  0  0  0  0  0  0  0
    3.2666    0.7255   21.4453 C   0  0  0  0  0  0  0  0  0  0  0  0
    3.8934    1.6291   20.4142 C   0  0  0  0  0  0  0  0  0  0  0  0
    5.5609    3.7366   22.4577 H   0  0  0  0  0  0  0  0  0  0  0  0
    3.1783    2.3815   15.7602 N   0  0  0  0  0  0  0  0  0  0  0  0
    3.2842    3.6424   15.1001 C   0  0  0  0  0  0  0  0  0  0  0  0
    4.1644    4.4406   15.2612 O   0  0  0  0  0  0  0  0  0  0  0  0
    2.3281    1.7975   15.3447 H   0  0  0  0  0  0  0  0  0  0  0  0
    2.1863    3.9690   14.1413 C   0  0  0  0  0  0  0  0  0  0  0  0
    1.6869    2.9816   13.3160 C   0  0  0  0  0  0  0  0  0  0  0  0
    0.6191    3.2775   12.4449 C   0  0  0  0  0  0  0  0  0  0  0  0
    0.0918    4.5255   12.4501 C   0  0  0  0  0  0  0  0  0  0  0  0
    0.5729    5.5286   13.2760 C   0  0  0  0  0  0  0  0  0  0  0  0
    1.6183    5.2455   14.1075 C   0  0  0  0  0  0  0  0  0  0  0  0
   -0.1437    6.8803   13.2626 C   0  0  0  0  0  0  0  0  0  0  0  0
   -1.2295    6.6415   12.3990 F   0  0  0  0  0  0  0  0  0  0  0  0
    0.6540    7.9026   12.9086 F   0  0  0  0  0  0  0  0  0  0  0  0
   -0.7379    6.9922   14.5056 F   0  0  0  0  0  0  0  0  0  0  0  0
  2  3  1  0  0  0
  3  4  2  0  0  0
  4  1  1  0  0  0
  1 15  1  0  0  0
 15 16  1  0  0  0
 16 17  2  0  0  0
 16 19  1  0  0  0
 19 20  2  0  0  0
 20 21  1  0  0  0
 21 22  2  0  0  0
 22 23  1  0  0  0
 23 24  2  0  0  0
 23 25  1  0  0  0
 25 26  1  0  0  0
 25 27  1  0  0  0
 25 28  1  0  0  0
  4  5  1  0  0  0
  5  6  2  0  0  0
  6  7  1  0  0  0
  7  8  1  0  0  0
  8  9  1  0  0  0
  9 10  2  0  0  0
  9 11  1  0  0  0
 11 12  1  0  0  0
 12 13  1  0  0  0
 13  3  1  0  0  0
 24 19  1  0  0  0
 13  7  2  0  0  0
 15 18  1  0  0  0
  8 14  1  0  0  0
M  END
> <minimizedAffinity>
-7.88267

> <CNNscore>
0.3703848422

> <CNNaffinity>
5.7095413208

> <CNN_VS>
2.1147274971

> <CNNaffinity_variance>
0.3378533721

$$$$
[H]c1c([H])c(C(=O)N([H])C([H])([H])c2c([H])c([H])c3c(c2C([H])([H])[H])C([H])([H])C([H])([H])C(=O)N3[H])c([H])c(C(F)(F)F)c1[H]


 28 30  0  0  0  0  0  0  0  0999 V2000
    3.6449    3.0100   14.9595 C   0  0  0  0  0  0  0  0  0  0  0  0
    4.7255    3.6580   17.3996 C   0  0  0  0  0  0  0  0  0  0  0  0
    3.9706    2.3668   17.2935 C   0  0  0  0  0  0  0  0  0  0  0  0
    3.3530    2.0831   16.0243 C   0  0  0  0  0  0  0  0  0  0  0  0
    2.6377    0.9103   15.9480 C   0  0  0  0  0  0  0  0  0  0  0  0
    2.5283    0.0617   17.0374 C   0  0  0  0  0  0  0  0  0  0  0  0
    3.1181    0.3626   18.2247 C   0  0  0  0  0  0  0  0  0  0  0  0
    2.9119   -0.4261   19.4043 N   0  0  0  0  0  0  0  0  0  0  0  0
    3.4234   -0.0305   20.6411 C   0  0  0  0  0  0  0  0  0  0  0  0
    3.5139   -0.8947   21.6061 O   0  0  0  0  0  0  0  0  0  0  0  0
    3.8552    1.3612   20.8538 C   0  0  0  0  0  0  0  0  0  0  0  0
    4.4950    1.9413   19.6380 C   0  0  0  0  0  0  0  0  0  0  0  0
    3.8387    1.5288   18.3450 C   0  0  0  0  0  0  0  0  0  0  0  0
    2.3773   -1.3434   19.3514 H   0  0  0  0  0  0  0  0  0  0  0  0
    2.8998    3.9224   14.3217 N   0  0  0  0  0  0  0  0  0  0  0  0
    1.9810    4.9434   14.7097 C   0  0  0  0  0  0  0  0  0  0  0  0
    1.7196    5.2521   15.8386 O   0  0  0  0  0  0  0  0  0  0  0  0
    3.0328    3.9210   13.2177 H   0  0  0  0  0  0  0  0  0  0  0  0
    1.2978    5.6625   13.5928 C   0  0  0  0  0  0  0  0  0  0  0  0
    1.7616    6.9004   13.1955 C   0  0  0  0  0  0  0  0  0  0  0  0
    1.1470    7.5580   12.1108 C   0  0  0  0  0  0  0  0  0  0  0  0
    0.1218    6.9494   11.4673 C   0  0  0  0  0  0  0  0  0  0  0  0
   -0.3537    5.7040   11.8450 C   0  0  0  0  0  0  0  0  0  0  0  0
    0.2314    5.0752   12.9065 C   0  0  0  0  0  0  0  0  0  0  0  0
   -1.4625    5.0692   11.0034 C   0  0  0  0  0  0  0  0  0  0  0  0
   -2.3501    4.5853   11.9831 F   0  0  0  0  0  0  0  0  0  0  0  0
   -1.0110    4.1470   10.1358 F   0  0  0  0  0  0  0  0  0  0  0  0
   -2.1484    6.1293   10.4411 F   0  0  0  0  0  0  0  0  0  0  0  0
  2  3  1  0  0  0
  3  4  2  0  0  0
  4  1  1  0  0  0
  1 15  1  0  0  0
 15 16  1  0  0  0
 16 17  2  0  0  0
 16 19  1  0  0  0
 19 20  2  0  0  0
 20 21  1  0  0  0
 21 22  2  0  0  0
 22 23  1  0  0  0
 23 24  2  0  0  0
 23 25  1  0  0  0
 25 26  1  0  0  0
 25 27  1  0  0  0
 25 28  1  0  0  0
  4  5  1  0  0  0
  5  6  2  0  0  0
  6  7  1  0  0  0
  7  8  1  0  0  0
  8  9  1  0  0  0
  9 10  2  0  0  0
  9 11  1  0  0  0
 11 12  1  0  0  0
 12 13  1  0  0  0
 13  3  1  0  0  0
 24 19  1  0  0  0
 13  7  2  0  0  0
 15 18  1  0  0  0
  8 14  1  0  0  0
M  END
> <minimizedAffinity>
-8.18982

> <CNNscore>
0.3552963436

> <CNNaffinity>
5.3685121536

> <CNN_VS>
1.9074127674

> <CNNaffinity_variance>
0.3312955201

$$$$
[H]c1c([H])c(C(=O)N([H])C([H])([H])c2c([H])c([H])c3c(c2C([H])([H])[H])C([H])([H])C([H])([H])C(=O)N3[H])c([H])c(C(F)(F)F)c1[H]


 28 30  0  0  0  0  0  0  0  0999 V2000
    3.9385    3.2684   15.0344 C   0  0  0  0  0  0  0  0  0  0  0  0
    5.0331    3.6546   17.5233 C   0  0  0  0  0  0  0  0  0  0  0  0
    4.1588    2.4523   17.3263 C   0  0  0  0  0  0  0  0  0  0  0  0
    3.5394    2.3099   16.0345 C   0  0  0  0  0  0  0  0  0  0  0  0
    2.7155    1.2196   15.8752 C   0  0  0  0  0  0  0  0  0  0  0  0
    2.5052    0.3195   16.9070 C   0  0  0  0  0  0  0  0  0  0  0  0
    3.1000    0.4868   18.1178 C   0  0  0  0  0  0  0  0  0  0  0  0
    2.7975   -0.3499   19.2423 N   0  0  0  0  0  0  0  0  0  0  0  0
    3.3228   -0.0840   20.5077 C   0  0  0  0  0  0  0  0  0  0  0  0
    3.3120   -1.0113   21.4166 O   0  0  0  0  0  0  0  0  0  0  0  0
    3.8833    1.2429   20.8137 C   0  0  0  0  0  0  0  0  0  0  0  0
    4.5977    1.8324   19.6449 C   0  0  0  0  0  0  0  0  0  0  0  0
    3.9277    1.5673   18.3207 C   0  0  0  0  0  0  0  0  0  0  0  0
    2.1778   -1.2056   19.1247 H   0  0  0  0  0  0  0  0  0  0  0  0
    3.2900    4.2741   14.4322 N   0  0  0  0  0  0  0  0  0  0  0  0
    3.2345    5.6919   14.5869 C   0  0  0  0  0  0  0  0  0  0  0  0
    3.8977    6.3351   15.3513 O   0  0  0  0  0  0  0  0  0  0  0  0
    2.6507    3.9526   13.5811 H   0  0  0  0  0  0  0  0  0  0  0  0
    2.2519    6.4034   13.7154 C   0  0  0  0  0  0  0  0  0  0  0  0
    2.6723    7.4670   12.9425 C   0  0  0  0  0  0  0  0  0  0  0  0
    1.7561    8.1083   12.0846 C   0  0  0  0  0  0  0  0  0  0  0  0
    0.4817    7.6528   12.0236 C   0  0  0  0  0  0  0  0  0  0  0  0
    0.0414    6.5821   12.7848 C   0  0  0  0  0  0  0  0  0  0  0  0
    0.9255    5.9721   13.6280 C   0  0  0  0  0  0  0  0  0  0  0  0
   -1.3950    6.0954   12.5833 C   0  0  0  0  0  0  0  0  0  0  0  0
   -1.5596    6.1992   11.1890 F   0  0  0  0  0  0  0  0  0  0  0  0
   -2.2949    6.7729   13.3169 F   0  0  0  0  0  0  0  0  0  0  0  0
   -1.3541    4.7315   12.8033 F   0  0  0  0  0  0  0  0  0  0  0  0
  2  3  1  0  0  0
  3  4  2  0  0  0
  4  1  1  0  0  0
  1 15  1  0  0  0
 15 16  1  0  0  0
 16 17  2  0  0  0
 16 19  1  0  0  0
 19 20  2  0  0  0
 20 21  1  0  0  0
 21 22  2  0  0  0
 22 23  1  0  0  0
 23 24  2  0  0  0
 23 25  1  0  0  0
 25 26  1  0  0  0
 25 27  1  0  0  0
 25 28  1  0  0  0
  4  5  1  0  0  0
  5  6  2  0  0  0
  6  7  1  0  0  0
  7  8  1  0  0  0
  8  9  1  0  0  0
  9 10  2  0  0  0
  9 11  1  0  0  0
 11 12  1  0  0  0
 12 13  1  0  0  0
 13  3  1  0  0  0
 24 19  1  0  0  0
 13  7  2  0  0  0
 15 18  1  0  0  0
  8 14  1  0  0  0
M  END
> <minimizedAffinity>
-8.46443

> <CNNscore>
0.3476134539

> <CNNaffinity>
5.3710598946

> <CNN_VS>
1.8670526743

> <CNNaffinity_variance>
0.5140405893

$$$$
[H]c1c([H])c(C(=O)N([H])C([H])([H])c2c([H])c([H])c3c(c2C([H])([H])[H])C([H])([H])C([H])([H])C(=O)N3[H])c([H])c(C(F)(F)F)c1[H]


 28 30  0  0  0  0  0  0  0  0999 V2000
    5.8923    5.7268   17.5758 C   0  0  0  0  0  0  0  0  0  0  0  0
    4.9659    3.2082   18.1591 C   0  0  0  0  0  0  0  0  0  0  0  0
    5.3441    4.0941   19.3083 C   0  0  0  0  0  0  0  0  0  0  0  0
    5.8938    5.3825   18.9757 C   0  0  0  0  0  0  0  0  0  0  0  0
    6.2653    6.1745   20.0377 C   0  0  0  0  0  0  0  0  0  0  0  0
    6.1118    5.7435   21.3452 C   0  0  0  0  0  0  0  0  0  0  0  0
    5.5957    4.5175   21.6252 C   0  0  0  0  0  0  0  0  0  0  0  0
    5.5493    3.9918   22.9585 N   0  0  0  0  0  0  0  0  0  0  0  0
    5.1329    2.6836   23.2094 C   0  0  0  0  0  0  0  0  0  0  0  0
    4.7862    2.3383   24.4122 O   0  0  0  0  0  0  0  0  0  0  0  0
    5.0901    1.6969   22.1170 C   0  0  0  0  0  0  0  0  0  0  0  0
    4.6636    2.3089   20.8257 C   0  0  0  0  0  0  0  0  0  0  0  0
    5.2162    3.6919   20.5917 C   0  0  0  0  0  0  0  0  0  0  0  0
    5.8158    4.6023   23.7869 H   0  0  0  0  0  0  0  0  0  0  0  0
    4.9776    5.5834   16.6076 N   0  0  0  0  0  0  0  0  0  0  0  0
    4.0218    6.4312   15.9714 C   0  0  0  0  0  0  0  0  0  0  0  0
    3.8879    7.6052   16.1756 O   0  0  0  0  0  0  0  0  0  0  0  0
    4.9572    4.5685   16.1537 H   0  0  0  0  0  0  0  0  0  0  0  0
    3.1221    5.7682   14.9803 C   0  0  0  0  0  0  0  0  0  0  0  0
    2.5140    6.5255   13.9994 C   0  0  0  0  0  0  0  0  0  0  0  0
    1.7028    5.8934   13.0356 C   0  0  0  0  0  0  0  0  0  0  0  0
    1.5520    4.5478   13.0824 C   0  0  0  0  0  0  0  0  0  0  0  0
    2.1597    3.7684   14.0534 C   0  0  0  0  0  0  0  0  0  0  0  0
    2.9319    4.3838   14.9967 C   0  0  0  0  0  0  0  0  0  0  0  0
    1.9903    2.2501   13.9708 C   0  0  0  0  0  0  0  0  0  0  0  0
    1.9385    1.8746   15.3265 F   0  0  0  0  0  0  0  0  0  0  0  0
    2.9483    1.6460   13.2466 F   0  0  0  0  0  0  0  0  0  0  0  0
    0.6958    2.0493   13.5299 F   0  0  0  0  0  0  0  0  0  0  0  0
  2  3  1  0  0  0
  3  4  2  0  0  0
  4  1  1  0  0  0
  1 15  1  0  0  0
 15 16  1  0  0  0
 16 17  2  0  0  0
 16 19  1  0  0  0
 19 20  2  0  0  0
 20 21  1  0  0  0
 21 22  2  0  0  0
 22 23  1  0  0  0
 23 24  2  0  0  0
 23 25  1  0  0  0
 25 26  1  0  0  0
 25 27  1  0  0  0
 25 28  1  0  0  0
  4  5  1  0  0  0
  5  6  2  0  0  0
  6  7  1  0  0  0
  7  8  1  0  0  0
  8  9  1  0  0  0
  9 10  2  0  0  0
  9 11  1  0  0  0
 11 12  1  0  0  0
 12 13  1  0  0  0
 13  3  1  0  0  0
 24 19  1  0  0  0
 13  7  2  0  0  0
 15 18  1  0  0  0
  8 14  1  0  0  0
M  END
> <minimizedAffinity>
-7.86116

> <CNNscore>
0.3446509838

> <CNNaffinity>
5.6215515137

> <CNN_VS>
1.9374732971

> <CNNaffinity_variance>
0.2769209146

$$$$
[H]c1c([H])c(C(=O)N([H])C([H])([H])c2c([H])c([H])c3c(c2C([H])([H])[H])C([H])([H])C([H])([H])C(=O)N3[H])c([H])c(C(F)(F)F)c1[H]


 28 30  0  0  0  0  0  0  0  0999 V2000
    4.8878    3.3373   17.1266 C   0  0  0  0  0  0  0  0  0  0  0  0
    5.4070    5.0306   19.2255 C   0  0  0  0  0  0  0  0  0  0  0  0
    5.0174    3.6193   19.5496 C   0  0  0  0  0  0  0  0  0  0  0  0
    4.6811    2.7710   18.4361 C   0  0  0  0  0  0  0  0  0  0  0  0
    4.2960    1.4874   18.7477 C   0  0  0  0  0  0  0  0  0  0  0  0
    4.2412    1.0513   20.0614 C   0  0  0  0  0  0  0  0  0  0  0  0
    4.5586    1.8802   21.0909 C   0  0  0  0  0  0  0  0  0  0  0  0
    4.3832    1.5005   22.4625 N   0  0  0  0  0  0  0  0  0  0  0  0
    4.5951    2.4090   23.5005 C   0  0  0  0  0  0  0  0  0  0  0  0
    4.7537    1.9741   24.7138 O   0  0  0  0  0  0  0  0  0  0  0  0
    4.6347    3.8548   23.2236 C   0  0  0  0  0  0  0  0  0  0  0  0
    5.2823    4.1570   21.9146 C   0  0  0  0  0  0  0  0  0  0  0  0
    4.9440    3.1738   20.8230 C   0  0  0  0  0  0  0  0  0  0  0  0
    4.1048    0.5058   22.7138 H   0  0  0  0  0  0  0  0  0  0  0  0
    4.1955    3.2539   15.9828 N   0  0  0  0  0  0  0  0  0  0  0  0
    3.4108    2.2537   15.3341 C   0  0  0  0  0  0  0  0  0  0  0  0
    3.1419    1.1769   15.7883 O   0  0  0  0  0  0  0  0  0  0  0  0
    4.1955    4.1925   15.3865 H   0  0  0  0  0  0  0  0  0  0  0  0
    2.9046    2.6050   13.9733 C   0  0  0  0  0  0  0  0  0  0  0  0
    1.7998    1.9499   13.4677 C   0  0  0  0  0  0  0  0  0  0  0  0
    1.2934    2.3141   12.2037 C   0  0  0  0  0  0  0  0  0  0  0  0
    1.8939    3.3164   11.5179 C   0  0  0  0  0  0  0  0  0  0  0  0
    2.9987    3.9919   12.0107 C   0  0  0  0  0  0  0  0  0  0  0  0
    3.4986    3.6270   13.2279 C   0  0  0  0  0  0  0  0  0  0  0  0
    3.5534    5.1608   11.1943 C   0  0  0  0  0  0  0  0  0  0  0  0
    4.6012    5.6314   12.0081 F   0  0  0  0  0  0  0  0  0  0  0  0
    2.6226    6.0765   10.8746 F   0  0  0  0  0  0  0  0  0  0  0  0
    4.2099    4.5817   10.1247 F   0  0  0  0  0  0  0  0  0  0  0  0
  2  3  1  0  0  0
  3  4  2  0  0  0
  4  1  1  0  0  0
  1 15  1  0  0  0
 15 16  1  0  0  0
 16 17  2  0  0  0
 16 19  1  0  0  0
 19 20  2  0  0  0
 20 21  1  0  0  0
 21 22  2  0  0  0
 22 23  1  0  0  0
 23 24  2  0  0  0
 23 25  1  0  0  0
 25 26  1  0  0  0
 25 27  1  0  0  0
 25 28  1  0  0  0
  4  5  1  0  0  0
  5  6  2  0  0  0
  6  7  1  0  0  0
  7  8  1  0  0  0
  8  9  1  0  0  0
  9 10  2  0  0  0
  9 11  1  0  0  0
 11 12  1  0  0  0
 12 13  1  0  0  0
 13  3  1  0  0  0
 24 19  1  0  0  0
 13  7  2  0  0  0
 15 18  1  0  0  0
  8 14  1  0  0  0
M  END
> <minimizedAffinity>
-7.97634

> <CNNscore>
0.3340039551

> <CNNaffinity>
5.6670088768

> <CNN_VS>
1.8928034306

> <CNNaffinity_variance>
0.4630366266

$$$$
[H]c1nc(N([H])[H])nc([H])c1-c1noc(C#Cc2c([H])c(C(=O)N([H])c3nnnn3[H])c([H])c([H])c2C([H])([H])[H])n1


 33 36  0  0  0  0  0  0  0  0999 V2000
    4.0291    4.1716   13.4269 C   0  0  0  0  0  0  0  0  0  0  0  0
    3.0431    3.5020   12.5391 C   0  0  0  0  0  0  0  0  0  0  0  0
    2.8805    3.9894   11.2586 C   0  0  0  0  0  0  0  0  0  0  0  0
    1.9782    3.3950   10.4113 C   0  0  0  0  0  0  0  0  0  0  0  0
    1.2461    2.3199   10.8480 C   0  0  0  0  0  0  0  0  0  0  0  0
    1.4272    1.8429   12.1494 C   0  0  0  0  0  0  0  0  0  0  0  0
    2.3267    2.4234   13.0170 C   0  0  0  0  0  0  0  0  0  0  0  0
    0.3293    1.6914    9.9434 C   0  0  0  0  0  0  0  0  0  0  0  0
    0.6592    0.5043    9.5235 O   0  0  0  0  0  0  0  0  0  0  0  0
   -0.8767    2.1735    9.4436 N   0  0  0  0  0  0  0  0  0  0  0  0
   -1.4143    1.5244    8.7656 H   0  0  0  0  0  0  0  0  0  0  0  0
   -1.5214    3.4103    9.6907 C   0  0  0  0  0  0  0  0  0  0  0  0
   -1.7719    4.3740    8.7471 N   0  0  0  0  0  0  0  0  0  0  0  0
   -2.3807    5.3958    9.2995 N   0  0  0  0  0  0  0  0  0  0  0  0
   -2.5277    5.1123   10.5749 N   0  0  0  0  0  0  0  0  0  0  0  0
   -2.0042    3.9034   10.8124 N   0  0  0  0  0  0  0  0  0  0  0  0
   -2.0301    3.5143   11.7694 H   0  0  0  0  0  0  0  0  0  0  0  0
    2.5083    1.9241   14.3614 C   0  0  0  0  0  0  0  0  0  0  0  0
    2.6587    1.5244   15.4985 C   0  0  0  0  0  0  0  0  0  0  0  0
    2.8332    1.0749   16.8526 C   0  0  0  0  0  0  0  0  0  0  0  0
    3.4791    1.7298   17.8616 N   0  0  0  0  0  0  0  0  0  0  0  0
    3.4297    0.9901   18.9755 C   0  0  0  0  0  0  0  0  0  0  0  0
    2.7500   -0.1205   18.6414 N   0  0  0  0  0  0  0  0  0  0  0  0
    2.4099   -0.0496   17.3919 O   0  0  0  0  0  0  0  0  0  0  0  0
    3.9970    1.3232   20.2794 C   0  0  0  0  0  0  0  0  0  0  0  0
    5.1805    2.0240   20.3420 C   0  0  0  0  0  0  0  0  0  0  0  0
    5.6906    2.3233   21.5525 N   0  0  0  0  0  0  0  0  0  0  0  0
    5.1056    1.9745   22.7088 C   0  0  0  0  0  0  0  0  0  0  0  0
    5.6452    2.2914   23.9719 N   0  0  0  0  0  0  0  0  0  0  0  0
    3.9516    1.2913   22.6365 N   0  0  0  0  0  0  0  0  0  0  0  0
    3.3881    0.9602   21.4400 C   0  0  0  0  0  0  0  0  0  0  0  0
    5.3482    1.7568   24.8176 H   0  0  0  0  0  0  0  0  0  0  0  0
    6.3559    3.0649   24.1113 H   0  0  0  0  0  0  0  0  0  0  0  0
  1  2  1  0  0  0
  2  3  2  0  0  0
  3  4  1  0  0  0
  4  5  2  0  0  0
  5  6  1  0  0  0
  6  7  2  0  0  0
  7 18  1  0  0  0
 18 19  3  0  0  0
 19 20  1  0  0  0
 20 21  2  0  0  0
 21 22  1  0  0  0
 22 23  2  0  0  0
 23 24  1  0  0  0
 22 25  1  0  0  0
 25 26  2  0  0  0
 26 27  1  0  0  0
 27 28  2  0  0  0
 28 29  1  0  0  0
 28 30  1  0  0  0
 30 31  2  0  0  0
  5  8  1  0  0  0
  8  9  2  0  0  0
  8 10  1  0  0  0
 10 12  1  0  0  0
 12 13  2  0  0  0
 13 14  1  0  0  0
 14 15  2  0  0  0
 15 16  1  0  0  0
  7  2  1  0  0  0
 24 20  1  0  0  0
 31 25  1  0  0  0
 16 12  1  0  0  0
 29 32  1  0  0  0
 29 33  1  0  0  0
 10 11  1  0  0  0
 16 17  1  0  0  0
M  END
> <minimizedAffinity>
-7.78536

> <CNNscore>
0.5085119009

> <CNNaffinity>
6.2898607254

> <CNN_VS>
3.1984689236

> <CNNaffinity_variance>
0.2638022602

$$$$
[H]c1nc(N([H])[H])nc([H])c1-c1noc(C#Cc2c([H])c(C(=O)N([H])c3nnnn3[H])c([H])c([H])c2C([H])([H])[H])n1


 33 36  0  0  0  0  0  0  0  0999 V2000
    3.4969    4.6958   13.8133 C   0  0  0  0  0  0  0  0  0  0  0  0
    3.1841    3.7354   12.7232 C   0  0  0  0  0  0  0  0  0  0  0  0
    3.1644    4.2039   11.4256 C   0  0  0  0  0  0  0  0  0  0  0  0
    2.8792    3.3443   10.3936 C   0  0  0  0  0  0  0  0  0  0  0  0
    2.6162    2.0252   10.6643 C   0  0  0  0  0  0  0  0  0  0  0  0
    2.6416    1.5723   11.9865 C   0  0  0  0  0  0  0  0  0  0  0  0
    2.9253    2.4166   13.0379 C   0  0  0  0  0  0  0  0  0  0  0  0
    2.3487    1.1333    9.5748 C   0  0  0  0  0  0  0  0  0  0  0  0
    1.0975    0.9831    9.2491 O   0  0  0  0  0  0  0  0  0  0  0  0
    3.2449    0.3962    8.8065 N   0  0  0  0  0  0  0  0  0  0  0  0
    2.8207   -0.2199    8.0252 H   0  0  0  0  0  0  0  0  0  0  0  0
    4.6570    0.3265    8.8931 C   0  0  0  0  0  0  0  0  0  0  0  0
    5.5241    1.3052    8.4783 N   0  0  0  0  0  0  0  0  0  0  0  0
    6.7618    0.9307    8.6969 N   0  0  0  0  0  0  0  0  0  0  0  0
    6.7113   -0.2647    9.2421 N   0  0  0  0  0  0  0  0  0  0  0  0
    5.4295   -0.6319    9.3612 N   0  0  0  0  0  0  0  0  0  0  0  0
    5.1974   -1.5510    9.7727 H   0  0  0  0  0  0  0  0  0  0  0  0
    2.9497    1.9407   14.4027 C   0  0  0  0  0  0  0  0  0  0  0  0
    2.9835    1.5566   15.5545 C   0  0  0  0  0  0  0  0  0  0  0  0
    3.0384    1.1215   16.9234 C   0  0  0  0  0  0  0  0  0  0  0  0
    3.6659    1.7469   17.9623 N   0  0  0  0  0  0  0  0  0  0  0  0
    3.4917    1.0342   19.0812 C   0  0  0  0  0  0  0  0  0  0  0  0
    2.7543   -0.0302   18.7202 N   0  0  0  0  0  0  0  0  0  0  0  0
    2.4999    0.0414   17.4505 O   0  0  0  0  0  0  0  0  0  0  0  0
    3.9985    1.3499   20.4141 C   0  0  0  0  0  0  0  0  0  0  0  0
    5.1479    2.0975   20.5400 C   0  0  0  0  0  0  0  0  0  0  0  0
    5.6023    2.3801   21.7764 N   0  0  0  0  0  0  0  0  0  0  0  0
    4.9931    1.9711   22.9000 C   0  0  0  0  0  0  0  0  0  0  0  0
    5.4744    2.2708   24.1906 N   0  0  0  0  0  0  0  0  0  0  0  0
    3.8728    1.2427   22.7660 N   0  0  0  0  0  0  0  0  0  0  0  0
    3.3660    0.9257   21.5407 C   0  0  0  0  0  0  0  0  0  0  0  0
    5.1716    1.6981   25.0088 H   0  0  0  0  0  0  0  0  0  0  0  0
    6.1458    3.0687   24.3784 H   0  0  0  0  0  0  0  0  0  0  0  0
  1  2  1  0  0  0
  2  3  2  0  0  0
  3  4  1  0  0  0
  4  5  2  0  0  0
  5  6  1  0  0  0
  6  7  2  0  0  0
  7 18  1  0  0  0
 18 19  3  0  0  0
 19 20  1  0  0  0
 20 21  2  0  0  0
 21 22  1  0  0  0
 22 23  2  0  0  0
 23 24  1  0  0  0
 22 25  1  0  0  0
 25 26  2  0  0  0
 26 27  1  0  0  0
 27 28  2  0  0  0
 28 29  1  0  0  0
 28 30  1  0  0  0
 30 31  2  0  0  0
  5  8  1  0  0  0
  8  9  2  0  0  0
  8 10  1  0  0  0
 10 12  1  0  0  0
 12 13  2  0  0  0
 13 14  1  0  0  0
 14 15  2  0  0  0
 15 16  1  0  0  0
  7  2  1  0  0  0
 24 20  1  0  0  0
 31 25  1  0  0  0
 16 12  1  0  0  0
 29 32  1  0  0  0
 29 33  1  0  0  0
 10 11  1  0  0  0
 16 17  1  0  0  0
M  END
> <minimizedAffinity>
-7.80421

> <CNNscore>
0.4969591498

> <CNNaffinity>
6.4294538498

> <CNN_VS>
3.1951758862

> <CNNaffinity_variance>
0.3069227934

$$$$
[H]c1nc(N([H])[H])nc([H])c1-c1noc(C#Cc2c([H])c(C(=O)N([H])c3nnnn3[H])c([H])c([H])c2C([H])([H])[H])n1


 33 36  0  0  0  0  0  0  0  0999 V2000
    2.8648    4.7946   13.1019 C   0  0  0  0  0  0  0  0  0  0  0  0
    2.7396    3.8072   11.9983 C   0  0  0  0  0  0  0  0  0  0  0  0
    2.7050    4.2777   10.7017 C   0  0  0  0  0  0  0  0  0  0  0  0
    2.5901    3.3936    9.6575 C   0  0  0  0  0  0  0  0  0  0  0  0
    2.5108    2.0483    9.9149 C   0  0  0  0  0  0  0  0  0  0  0  0
    2.5478    1.5940   11.2364 C   0  0  0  0  0  0  0  0  0  0  0  0
    2.6626    2.4625   12.2999 C   0  0  0  0  0  0  0  0  0  0  0  0
    2.4205    1.1353    8.8140 C   0  0  0  0  0  0  0  0  0  0  0  0
    3.5493    0.7521    8.2912 O   0  0  0  0  0  0  0  0  0  0  0  0
    1.2863    0.5935    8.2165 N   0  0  0  0  0  0  0  0  0  0  0  0
    1.4510   -0.0831    7.3889 H   0  0  0  0  0  0  0  0  0  0  0  0
   -0.0795    0.7975    8.5317 C   0  0  0  0  0  0  0  0  0  0  0  0
   -0.9599   -0.1854    8.9066 N   0  0  0  0  0  0  0  0  0  0  0  0
   -2.1444    0.3328    9.1265 N   0  0  0  0  0  0  0  0  0  0  0  0
   -2.0468    1.6245    8.9020 N   0  0  0  0  0  0  0  0  0  0  0  0
   -0.7893    1.9067    8.5399 N   0  0  0  0  0  0  0  0  0  0  0  0
   -0.5269    2.8823    8.3224 H   0  0  0  0  0  0  0  0  0  0  0  0
    2.7003    1.9848   13.6638 C   0  0  0  0  0  0  0  0  0  0  0  0
    2.7500    1.5731   14.8054 C   0  0  0  0  0  0  0  0  0  0  0  0
    2.8307    1.0744   16.1512 C   0  0  0  0  0  0  0  0  0  0  0  0
    3.4230    1.6818   17.2210 N   0  0  0  0  0  0  0  0  0  0  0  0
    3.2904    0.9057   18.3028 C   0  0  0  0  0  0  0  0  0  0  0  0
    2.6138   -0.1793   17.8881 N   0  0  0  0  0  0  0  0  0  0  0  0
    2.3545   -0.0592   16.6230 O   0  0  0  0  0  0  0  0  0  0  0  0
    3.7798    1.1830   19.6507 C   0  0  0  0  0  0  0  0  0  0  0  0
    3.3194    0.4268   20.7052 C   0  0  0  0  0  0  0  0  0  0  0  0
    3.7808    0.6952   21.9422 N   0  0  0  0  0  0  0  0  0  0  0  0
    4.6702    1.6648   22.2061 C   0  0  0  0  0  0  0  0  0  0  0  0
    5.1485    1.9398   23.5033 N   0  0  0  0  0  0  0  0  0  0  0  0
    5.1128    2.3963   21.1704 N   0  0  0  0  0  0  0  0  0  0  0  0
    4.6816    2.1706   19.8969 C   0  0  0  0  0  0  0  0  0  0  0  0
    5.5802    2.8656   23.7172 H   0  0  0  0  0  0  0  0  0  0  0  0
    5.0910    1.2367   24.2938 H   0  0  0  0  0  0  0  0  0  0  0  0
  1  2  1  0  0  0
  2  3  2  0  0  0
  3  4  1  0  0  0
  4  5  2  0  0  0
  5  6  1  0  0  0
  6  7  2  0  0  0
  7 18  1  0  0  0
 18 19  3  0  0  0
 19 20  1  0  0  0
 20 21  2  0  0  0
 21 22  1  0  0  0
 22 23  2  0  0  0
 23 24  1  0  0  0
 22 25  1  0  0  0
 25 26  2  0  0  0
 26 27  1  0  0  0
 27 28  2  0  0  0
 28 29  1  0  0  0
 28 30  1  0  0  0
 30 31  2  0  0  0
  5  8  1  0  0  0
  8  9  2  0  0  0
  8 10  1  0  0  0
 10 12  1  0  0  0
 12 13  2  0  0  0
 13 14  1  0  0  0
 14 15  2  0  0  0
 15 16  1  0  0  0
  7  2  1  0  0  0
 24 20  1  0  0  0
 31 25  1  0  0  0
 16 12  1  0  0  0
 29 32  1  0  0  0
 29 33  1  0  0  0
 10 11  1  0  0  0
 16 17  1  0  0  0
M  END
> <minimizedAffinity>
-7.07493

> <CNNscore>
0.4411434829

> <CNNaffinity>
6.2192940712

> <CNN_VS>
2.7436010838

> <CNNaffinity_variance>
0.3328340650

$$$$
[H]c1nc(N([H])[H])nc([H])c1-c1noc(C#Cc2c([H])c(C(=O)N([H])c3nnnn3[H])c([H])c([H])c2C([H])([H])[H])n1


 33 36  0  0  0  0  0  0  0  0999 V2000
    2.9655    1.3657   11.3463 C   0  0  0  0  0  0  0  0  0  0  0  0
    2.7730    2.8393   11.3524 C   0  0  0  0  0  0  0  0  0  0  0  0
    2.6185    3.4829   10.1418 C   0  0  0  0  0  0  0  0  0  0  0  0
    2.4385    4.8438   10.1102 C   0  0  0  0  0  0  0  0  0  0  0  0
    2.4142    5.5510   11.2857 C   0  0  0  0  0  0  0  0  0  0  0  0
    2.5729    4.8782   12.5007 C   0  0  0  0  0  0  0  0  0  0  0  0
    2.7548    3.5135   12.5567 C   0  0  0  0  0  0  0  0  0  0  0  0
    2.1965    6.9667   11.2392 C   0  0  0  0  0  0  0  0  0  0  0  0
    2.9894    7.6448   10.4608 O   0  0  0  0  0  0  0  0  0  0  0  0
    1.2485    7.7294   11.9147 N   0  0  0  0  0  0  0  0  0  0  0  0
    1.2625    8.7950   11.7295 H   0  0  0  0  0  0  0  0  0  0  0  0
    0.2477    7.3160   12.8279 C   0  0  0  0  0  0  0  0  0  0  0  0
   -0.9927    6.8436   12.4813 N   0  0  0  0  0  0  0  0  0  0  0  0
   -1.6784    6.5490   13.5597 N   0  0  0  0  0  0  0  0  0  0  0  0
   -0.9090    6.8205   14.5908 N   0  0  0  0  0  0  0  0  0  0  0  0
    0.2634    7.2874   14.1445 N   0  0  0  0  0  0  0  0  0  0  0  0
    0.9977    7.5550   14.8206 H   0  0  0  0  0  0  0  0  0  0  0  0
    2.9181    2.8249   13.8172 C   0  0  0  0  0  0  0  0  0  0  0  0
    3.0641    2.2640   14.8846 C   0  0  0  0  0  0  0  0  0  0  0  0
    3.2464    1.6213   16.1574 C   0  0  0  0  0  0  0  0  0  0  0  0
    3.6741    2.1987   17.3183 N   0  0  0  0  0  0  0  0  0  0  0  0
    3.7150    1.2753   18.2858 C   0  0  0  0  0  0  0  0  0  0  0  0
    3.3099    0.1304   17.7094 N   0  0  0  0  0  0  0  0  0  0  0  0
    3.0403    0.3565   16.4611 O   0  0  0  0  0  0  0  0  0  0  0  0
    4.1164    1.4737   19.6759 C   0  0  0  0  0  0  0  0  0  0  0  0
    3.5106    0.7332   20.6661 C   0  0  0  0  0  0  0  0  0  0  0  0
    3.8922    0.9281   21.9434 N   0  0  0  0  0  0  0  0  0  0  0  0
    4.8364    1.8096   22.3072 C   0  0  0  0  0  0  0  0  0  0  0  0
    5.2306    2.0080   23.6460 N   0  0  0  0  0  0  0  0  0  0  0  0
    5.4209    2.5266   21.3337 N   0  0  0  0  0  0  0  0  0  0  0  0
    5.0758    2.3725   20.0238 C   0  0  0  0  0  0  0  0  0  0  0  0
    5.7205    2.8869   23.9231 H   0  0  0  0  0  0  0  0  0  0  0  0
    5.0506    1.2922   24.4062 H   0  0  0  0  0  0  0  0  0  0  0  0
  1  2  1  0  0  0
  2  3  2  0  0  0
  3  4  1  0  0  0
  4  5  2  0  0  0
  5  6  1  0  0  0
  6  7  2  0  0  0
  7 18  1  0  0  0
 18 19  3  0  0  0
 19 20  1  0  0  0
 20 21  2  0  0  0
 21 22  1  0  0  0
 22 23  2  0  0  0
 23 24  1  0  0  0
 22 25  1  0  0  0
 25 26  2  0  0  0
 26 27  1  0  0  0
 27 28  2  0  0  0
 28 29  1  0  0  0
 28 30  1  0  0  0
 30 31  2  0  0  0
  5  8  1  0  0  0
  8  9  2  0  0  0
  8 10  1  0  0  0
 10 12  1  0  0  0
 12 13  2  0  0  0
 13 14  1  0  0  0
 14 15  2  0  0  0
 15 16  1  0  0  0
  7  2  1  0  0  0
 24 20  1  0  0  0
 31 25  1  0  0  0
 16 12  1  0  0  0
 29 32  1  0  0  0
 29 33  1  0  0  0
 10 11  1  0  0  0
 16 17  1  0  0  0
M  END
> <minimizedAffinity>
-7.72346

> <CNNscore>
0.3691911399

> <CNNaffinity>
6.2524666786

> <CNN_VS>
2.3083553314

> <CNNaffinity_variance>
0.3176725507

$$$$
[H]c1nc(N([H])[H])nc([H])c1-c1noc(C#Cc2c([H])c(C(=O)N([H])c3nnnn3[H])c([H])c([H])c2C([H])([H])[H])n1


 33 36  0  0  0  0  0  0  0  0999 V2000
    3.0839    1.2750   11.1068 C   0  0  0  0  0  0  0  0  0  0  0  0
    1.9284    2.2084   11.0593 C   0  0  0  0  0  0  0  0  0  0  0  0
    1.4131    2.5476    9.8252 C   0  0  0  0  0  0  0  0  0  0  0  0
    0.3456    3.4074    9.7440 C   0  0  0  0  0  0  0  0  0  0  0  0
   -0.1988    3.9214   10.8938 C   0  0  0  0  0  0  0  0  0  0  0  0
    0.3395    3.5640   12.1334 C   0  0  0  0  0  0  0  0  0  0  0  0
    1.4103    2.7032   12.2391 C   0  0  0  0  0  0  0  0  0  0  0  0
   -1.3309    4.7946   10.7954 C   0  0  0  0  0  0  0  0  0  0  0  0
   -2.4226    4.3876   11.3757 O   0  0  0  0  0  0  0  0  0  0  0  0
   -1.4318    6.0293   10.1611 N   0  0  0  0  0  0  0  0  0  0  0  0
   -2.3930    6.5228   10.2118 H   0  0  0  0  0  0  0  0  0  0  0  0
   -0.4488    6.7535    9.4431 C   0  0  0  0  0  0  0  0  0  0  0  0
    0.7550    7.1705    9.9517 N   0  0  0  0  0  0  0  0  0  0  0  0
    1.4323    7.8144    9.0317 N   0  0  0  0  0  0  0  0  0  0  0  0
    0.6933    7.8215    7.9443 N   0  0  0  0  0  0  0  0  0  0  0  0
   -0.4519    7.1754    8.1956 N   0  0  0  0  0  0  0  0  0  0  0  0
   -1.1604    7.0821    7.4491 H   0  0  0  0  0  0  0  0  0  0  0  0
    1.9612    2.3383   13.5248 C   0  0  0  0  0  0  0  0  0  0  0  0
    2.4048    2.0254   14.6113 C   0  0  0  0  0  0  0  0  0  0  0  0
    2.9070    1.6469   15.9039 C   0  0  0  0  0  0  0  0  0  0  0  0
    3.5000    2.4588   16.8277 N   0  0  0  0  0  0  0  0  0  0  0  0
    3.8312    1.7387   17.9057 C   0  0  0  0  0  0  0  0  0  0  0  0
    3.4372    0.4822   17.6354 N   0  0  0  0  0  0  0  0  0  0  0  0
    2.8979    0.4514   16.4563 O   0  0  0  0  0  0  0  0  0  0  0  0
    4.4842    2.2206   19.1199 C   0  0  0  0  0  0  0  0  0  0  0  0
    4.6573    3.5744   19.3017 C   0  0  0  0  0  0  0  0  0  0  0  0
    5.2615    4.0028   20.4272 N   0  0  0  0  0  0  0  0  0  0  0  0
    5.7069    3.1782   21.3877 C   0  0  0  0  0  0  0  0  0  0  0  0
    6.3381    3.6338   22.5629 N   0  0  0  0  0  0  0  0  0  0  0  0
    5.5329    1.8598   21.2004 N   0  0  0  0  0  0  0  0  0  0  0  0
    4.9286    1.3681   20.0816 C   0  0  0  0  0  0  0  0  0  0  0  0
    6.9337    2.9851   23.1229 H   0  0  0  0  0  0  0  0  0  0  0  0
    6.2367    4.6273   22.9169 H   0  0  0  0  0  0  0  0  0  0  0  0
  1  2  1  0  0  0
  2  3  2  0  0  0
  3  4  1  0  0  0
  4  5  2  0  0  0
  5  6  1  0  0  0
  6  7  2  0  0  0
  7 18  1  0  0  0
 18 19  3  0  0  0
 19 20  1  0  0  0
 20 21  2  0  0  0
 21 22  1  0  0  0
 22 23  2  0  0  0
 23 24  1  0  0  0
 22 25  1  0  0  0
 25 26  2  0  0  0
 26 27  1  0  0  0
 27 28  2  0  0  0
 28 29  1  0  0  0
 28 30  1  0  0  0
 30 31  2  0  0  0
  5  8  1  0  0  0
  8  9  2  0  0  0
  8 10  1  0  0  0
 10 12  1  0  0  0
 12 13  2  0  0  0
 13 14  1  0  0  0
 14 15  2  0  0  0
 15 16  1  0  0  0
  7  2  1  0  0  0
 24 20  1  0  0  0
 31 25  1  0  0  0
 16 12  1  0  0  0
 29 32  1  0  0  0
 29 33  1  0  0  0
 10 11  1  0  0  0
 16 17  1  0  0  0
M  END
> <minimizedAffinity>
-7.15049

> <CNNscore>
0.3395673037

> <CNNaffinity>
6.0362162590

> <CNN_VS>
2.0497016907

> <CNNaffinity_variance>
0.7668659091

$$$$
[H]c1nc(N([H])[H])nc([H])c1-c1noc(C#Cc2c([H])c(C(=O)N([H])c3nnnn3[H])c([H])c([H])c2C([H])([H])[H])n1


 33 36  0  0  0  0  0  0  0  0999 V2000
    2.8476    1.6881   11.5346 C   0  0  0  0  0  0  0  0  0  0  0  0
    3.1853    3.1345   11.4848 C   0  0  0  0  0  0  0  0  0  0  0  0
    3.1964    3.7607   10.2554 C   0  0  0  0  0  0  0  0  0  0  0  0
    3.5040    5.0963   10.1722 C   0  0  0  0  0  0  0  0  0  0  0  0
    3.7978    5.7959   11.3153 C   0  0  0  0  0  0  0  0  0  0  0  0
    3.7806    5.1411   12.5503 C   0  0  0  0  0  0  0  0  0  0  0  0
    3.4748    3.8018   12.6579 C   0  0  0  0  0  0  0  0  0  0  0  0
    4.0885    7.1957   11.2167 C   0  0  0  0  0  0  0  0  0  0  0  0
    4.9991    7.6520   12.0272 O   0  0  0  0  0  0  0  0  0  0  0  0
    3.5306    8.1482   10.3692 N   0  0  0  0  0  0  0  0  0  0  0  0
    3.9027    9.1594   10.4651 H   0  0  0  0  0  0  0  0  0  0  0  0
    2.5282    7.9940    9.3805 C   0  0  0  0  0  0  0  0  0  0  0  0
    1.2009    7.7540    9.6306 N   0  0  0  0  0  0  0  0  0  0  0  0
    0.5406    7.6625    8.5012 N   0  0  0  0  0  0  0  0  0  0  0  0
    1.4109    7.8378    7.5315 N   0  0  0  0  0  0  0  0  0  0  0  0
    2.6208    8.0395    8.0675 N   0  0  0  0  0  0  0  0  0  0  0  0
    3.4339    8.1966    7.4493 H   0  0  0  0  0  0  0  0  0  0  0  0
    3.4590    3.1318   13.9387 C   0  0  0  0  0  0  0  0  0  0  0  0
    3.4588    2.5837   15.0226 C   0  0  0  0  0  0  0  0  0  0  0  0
    3.4734    1.9533   16.3144 C   0  0  0  0  0  0  0  0  0  0  0  0
    3.9850    2.4617   17.4737 N   0  0  0  0  0  0  0  0  0  0  0  0
    3.8099    1.5776   18.4627 C   0  0  0  0  0  0  0  0  0  0  0  0
    3.1885    0.5262   17.9011 N   0  0  0  0  0  0  0  0  0  0  0  0
    3.0011    0.7681   16.6408 O   0  0  0  0  0  0  0  0  0  0  0  0
    4.2114    1.7274   19.8589 C   0  0  0  0  0  0  0  0  0  0  0  0
    3.5698    0.9903   20.8288 C   0  0  0  0  0  0  0  0  0  0  0  0
    3.9520    1.1400   22.1121 N   0  0  0  0  0  0  0  0  0  0  0  0
    4.9299    1.9728   22.5005 C   0  0  0  0  0  0  0  0  0  0  0  0
    5.3245    2.1241   23.8454 N   0  0  0  0  0  0  0  0  0  0  0  0
    5.5492    2.6869   21.5466 N   0  0  0  0  0  0  0  0  0  0  0  0
    5.2053    2.5773   20.2318 C   0  0  0  0  0  0  0  0  0  0  0  0
    5.8489    2.9753   24.1449 H   0  0  0  0  0  0  0  0  0  0  0  0
    5.1106    1.3992   24.5880 H   0  0  0  0  0  0  0  0  0  0  0  0
  1  2  1  0  0  0
  2  3  2  0  0  0
  3  4  1  0  0  0
  4  5  2  0  0  0
  5  6  1  0  0  0
  6  7  2  0  0  0
  7 18  1  0  0  0
 18 19  3  0  0  0
 19 20  1  0  0  0
 20 21  2  0  0  0
 21 22  1  0  0  0
 22 23  2  0  0  0
 23 24  1  0  0  0
 22 25  1  0  0  0
 25 26  2  0  0  0
 26 27  1  0  0  0
 27 28  2  0  0  0
 28 29  1  0  0  0
 28 30  1  0  0  0
 30 31  2  0  0  0
  5  8  1  0  0  0
  8  9  2  0  0  0
  8 10  1  0  0  0
 10 12  1  0  0  0
 12 13  2  0  0  0
 13 14  1  0  0  0
 14 15  2  0  0  0
 15 16  1  0  0  0
  7  2  1  0  0  0
 24 20  1  0  0  0
 31 25  1  0  0  0
 16 12  1  0  0  0
 29 32  1  0  0  0
 29 33  1  0  0  0
 10 11  1  0  0  0
 16 17  1  0  0  0
M  END
> <minimizedAffinity>
-7.46084

> <CNNscore>
0.2740475535

> <CNNaffinity>
5.9041957855

> <CNN_VS>
1.6180304289

> <CNNaffinity_variance>
0.4500527978

$$$$
[H]c1nc(N([H])[H])nc([H])c1-c1noc(C#Cc2c([H])c(C(=O)N([H])c3nnnn3[H])c([H])c([H])c2C([H])([H])[H])n1


 33 36  0  0  0  0  0  0  0  0999 V2000
    3.9986    4.3450   12.7829 C   0  0  0  0  0  0  0  0  0  0  0  0
    3.1525    3.4866   11.9135 C   0  0  0  0  0  0  0  0  0  0  0  0
    3.0069    3.8417   10.5881 C   0  0  0  0  0  0  0  0  0  0  0  0
    2.2325    3.0714    9.7562 C   0  0  0  0  0  0  0  0  0  0  0  0
    1.6100    1.9540   10.2526 C   0  0  0  0  0  0  0  0  0  0  0  0
    1.7715    1.6133   11.5987 C   0  0  0  0  0  0  0  0  0  0  0  0
    2.5436    2.3711   12.4520 C   0  0  0  0  0  0  0  0  0  0  0  0
    0.8285    1.1435    9.3660 C   0  0  0  0  0  0  0  0  0  0  0  0
   -0.3834    1.5550    9.1292 O   0  0  0  0  0  0  0  0  0  0  0  0
    1.1833   -0.0340    8.7145 N   0  0  0  0  0  0  0  0  0  0  0  0
    0.4289   -0.4853    8.0842 H   0  0  0  0  0  0  0  0  0  0  0  0
    2.4060   -0.7481    8.7518 C   0  0  0  0  0  0  0  0  0  0  0  0
    3.6029   -0.2931    8.2596 N   0  0  0  0  0  0  0  0  0  0  0  0
    4.5378   -1.1931    8.4494 N   0  0  0  0  0  0  0  0  0  0  0  0
    3.9710   -2.2153    9.0515 N   0  0  0  0  0  0  0  0  0  0  0  0
    2.6731   -1.9436    9.2352 N   0  0  0  0  0  0  0  0  0  0  0  0
    2.0657   -2.6402    9.6976 H   0  0  0  0  0  0  0  0  0  0  0  0
    2.7058    2.0120   13.8429 C   0  0  0  0  0  0  0  0  0  0  0  0
    2.8632    1.7112   15.0090 C   0  0  0  0  0  0  0  0  0  0  0  0
    3.0743    1.3572   16.3861 C   0  0  0  0  0  0  0  0  0  0  0  0
    3.7214    2.0937   17.3365 N   0  0  0  0  0  0  0  0  0  0  0  0
    3.7120    1.4287   18.4975 C   0  0  0  0  0  0  0  0  0  0  0  0
    3.0556    0.2817   18.2512 N   0  0  0  0  0  0  0  0  0  0  0  0
    2.6907    0.2609   17.0069 O   0  0  0  0  0  0  0  0  0  0  0  0
    4.2943    1.8618   19.7649 C   0  0  0  0  0  0  0  0  0  0  0  0
    4.3175    3.2033   20.0741 C   0  0  0  0  0  0  0  0  0  0  0  0
    4.8581    3.5864   21.2471 N   0  0  0  0  0  0  0  0  0  0  0  0
    5.3787    2.7278   22.1375 C   0  0  0  0  0  0  0  0  0  0  0  0
    5.9427    3.1361   23.3632 N   0  0  0  0  0  0  0  0  0  0  0  0
    5.3509    1.4218   21.8261 N   0  0  0  0  0  0  0  0  0  0  0  0
    4.8169    0.9752   20.6539 C   0  0  0  0  0  0  0  0  0  0  0  0
    6.5984    2.5052   23.8742 H   0  0  0  0  0  0  0  0  0  0  0  0
    5.7300    4.0756   23.8046 H   0  0  0  0  0  0  0  0  0  0  0  0
  1  2  1  0  0  0
  2  3  2  0  0  0
  3  4  1  0  0  0
  4  5  2  0  0  0
  5  6  1  0  0  0
  6  7  2  0  0  0
  7 18  1  0  0  0
 18 19  3  0  0  0
 19 20  1  0  0  0
 20 21  2  0  0  0
 21 22  1  0  0  0
 22 23  2  0  0  0
 23 24  1  0  0  0
 22 25  1  0  0  0
 25 26  2  0  0  0
 26 27  1  0  0  0
 27 28  2  0  0  0
 28 29  1  0  0  0
 28 30  1  0  0  0
 30 31  2  0  0  0
  5  8  1  0  0  0
  8  9  2  0  0  0
  8 10  1  0  0  0
 10 12  1  0  0  0
 12 13  2  0  0  0
 13 14  1  0  0  0
 14 15  2  0  0  0
 15 16  1  0  0  0
  7  2  1  0  0  0
 24 20  1  0  0  0
 31 25  1  0  0  0
 16 12  1  0  0  0
 29 32  1  0  0  0
 29 33  1  0  0  0
 10 11  1  0  0  0
 16 17  1  0  0  0
M  END
> <minimizedAffinity>
-7.11999

> <CNNscore>
0.2664397657

> <CNNaffinity>
5.9765610695

> <CNN_VS>
1.5923935175

> <CNNaffinity_variance>
0.1824313104

$$$$
[H]c1nc(N([H])[H])nc([H])c1-c1noc(C#Cc2c([H])c(C(=O)N([H])c3nnnn3[H])c([H])c([H])c2C([H])([H])[H])n1


 33 36  0  0  0  0  0  0  0  0999 V2000
    2.5548    1.9984   12.2290 C   0  0  0  0  0  0  0  0  0  0  0  0
    2.8791    3.4475   12.1680 C   0  0  0  0  0  0  0  0  0  0  0  0
    2.7377    4.0981   10.9595 C   0  0  0  0  0  0  0  0  0  0  0  0
    3.0284    5.4369   10.8669 C   0  0  0  0  0  0  0  0  0  0  0  0
    3.4575    6.1152   11.9796 C   0  0  0  0  0  0  0  0  0  0  0  0
    3.5937    5.4357   13.1937 C   0  0  0  0  0  0  0  0  0  0  0  0
    3.3078    4.0928   13.3103 C   0  0  0  0  0  0  0  0  0  0  0  0
    3.7294    7.5183   11.8749 C   0  0  0  0  0  0  0  0  0  0  0  0
    2.7214    8.3158   12.0807 O   0  0  0  0  0  0  0  0  0  0  0  0
    4.9300    8.1581   11.5814 N   0  0  0  0  0  0  0  0  0  0  0  0
    4.9088    9.2392   11.5536 H   0  0  0  0  0  0  0  0  0  0  0  0
    6.2020    7.5990   11.3064 C   0  0  0  0  0  0  0  0  0  0  0  0
    7.3875    8.0259   11.8487 N   0  0  0  0  0  0  0  0  0  0  0  0
    8.3786    7.3004   11.3890 N   0  0  0  0  0  0  0  0  0  0  0  0
    7.8591    6.4178   10.5646 N   0  0  0  0  0  0  0  0  0  0  0  0
    6.5339    6.6002   10.5147 N   0  0  0  0  0  0  0  0  0  0  0  0
    5.9566    5.9911    9.9118 H   0  0  0  0  0  0  0  0  0  0  0  0
    3.4511    3.3973   14.5694 C   0  0  0  0  0  0  0  0  0  0  0  0
    3.5530    2.8213   15.6339 C   0  0  0  0  0  0  0  0  0  0  0  0
    3.6515    2.1493   16.9008 C   0  0  0  0  0  0  0  0  0  0  0  0
    4.1222    2.6663   18.0735 N   0  0  0  0  0  0  0  0  0  0  0  0
    4.0547    1.7332   19.0300 C   0  0  0  0  0  0  0  0  0  0  0  0
    3.5401    0.6430   18.4352 N   0  0  0  0  0  0  0  0  0  0  0  0
    3.3112    0.9096   17.1867 O   0  0  0  0  0  0  0  0  0  0  0  0
    4.4570    1.8735   20.4270 C   0  0  0  0  0  0  0  0  0  0  0  0
    5.5984    2.5800   20.7334 C   0  0  0  0  0  0  0  0  0  0  0  0
    5.9558    2.7003   22.0268 N   0  0  0  0  0  0  0  0  0  0  0  0
    5.2567    2.1665   23.0403 C   0  0  0  0  0  0  0  0  0  0  0  0
    5.6369    2.2966   24.3915 N   0  0  0  0  0  0  0  0  0  0  0  0
    4.1452    1.4795   22.7305 N   0  0  0  0  0  0  0  0  0  0  0  0
    3.7343    1.3246   21.4398 C   0  0  0  0  0  0  0  0  0  0  0  0
    5.2661    1.6327   25.1063 H   0  0  0  0  0  0  0  0  0  0  0  0
    6.2973    3.0536   24.7283 H   0  0  0  0  0  0  0  0  0  0  0  0
  1  2  1  0  0  0
  2  3  2  0  0  0
  3  4  1  0  0  0
  4  5  2  0  0  0
  5  6  1  0  0  0
  6  7  2  0  0  0
  7 18  1  0  0  0
 18 19  3  0  0  0
 19 20  1  0  0  0
 20 21  2  0  0  0
 21 22  1  0  0  0
 22 23  2  0  0  0
 23 24  1  0  0  0
 22 25  1  0  0  0
 25 26  2  0  0  0
 26 27  1  0  0  0
 27 28  2  0  0  0
 28 29  1  0  0  0
 28 30  1  0  0  0
 30 31  2  0  0  0
  5  8  1  0  0  0
  8  9  2  0  0  0
  8 10  1  0  0  0
 10 12  1  0  0  0
 12 13  2  0  0  0
 13 14  1  0  0  0
 14 15  2  0  0  0
 15 16  1  0  0  0
  7  2  1  0  0  0
 24 20  1  0  0  0
 31 25  1  0  0  0
 16 12  1  0  0  0
 29 32  1  0  0  0
 29 33  1  0  0  0
 10 11  1  0  0  0
 16 17  1  0  0  0
M  END
> <minimizedAffinity>
-7.95528

> <CNNscore>
0.2512758374

> <CNNaffinity>
5.9802751541

> <CNN_VS>
1.5026986599

> <CNNaffinity_variance>
0.4133574963

$$$$
[H]c1nc(N([H])[H])nc([H])c1-c1noc(C#Cc2c([H])c(C(=O)N([H])c3nnnn3[H])c([H])c([H])c2C([H])([H])[H])n1


 33 36  0  0  0  0  0  0  0  0999 V2000
    2.8306    1.7550   11.5304 C   0  0  0  0  0  0  0  0  0  0  0  0
    2.4266    3.1832   11.6057 C   0  0  0  0  0  0  0  0  0  0  0  0
    2.1353    3.8425   10.4291 C   0  0  0  0  0  0  0  0  0  0  0  0
    1.7586    5.1625   10.4615 C   0  0  0  0  0  0  0  0  0  0  0  0
    1.6756    5.8136   11.6663 C   0  0  0  0  0  0  0  0  0  0  0  0
    1.9754    5.1260   12.8458 C   0  0  0  0  0  0  0  0  0  0  0  0
    2.3554    3.8015   12.8377 C   0  0  0  0  0  0  0  0  0  0  0  0
    1.2531    7.1829   11.6873 C   0  0  0  0  0  0  0  0  0  0  0  0
    0.1023    7.4376   11.1351 O   0  0  0  0  0  0  0  0  0  0  0  0
    1.9040    8.2920   12.2193 N   0  0  0  0  0  0  0  0  0  0  0  0
    1.3976    9.2430   12.1238 H   0  0  0  0  0  0  0  0  0  0  0  0
    3.1549    8.3685   12.8795 C   0  0  0  0  0  0  0  0  0  0  0  0
    3.3280    8.5794   14.2239 N   0  0  0  0  0  0  0  0  0  0  0  0
    4.6067    8.5971   14.5147 N   0  0  0  0  0  0  0  0  0  0  0  0
    5.2595    8.4026   13.3902 N   0  0  0  0  0  0  0  0  0  0  0  0
    4.3750    8.2635   12.3950 N   0  0  0  0  0  0  0  0  0  0  0  0
    4.7113    8.1022   11.4313 H   0  0  0  0  0  0  0  0  0  0  0  0
    2.6638    3.0972   14.0619 C   0  0  0  0  0  0  0  0  0  0  0  0
    2.9121    2.5202   15.1014 C   0  0  0  0  0  0  0  0  0  0  0  0
    3.1926    1.8546   16.3442 C   0  0  0  0  0  0  0  0  0  0  0  0
    3.6106    2.4285   17.5104 N   0  0  0  0  0  0  0  0  0  0  0  0
    3.7631    1.4812   18.4429 C   0  0  0  0  0  0  0  0  0  0  0  0
    3.4360    0.3251   17.8399 N   0  0  0  0  0  0  0  0  0  0  0  0
    3.1046    0.5677   16.6097 O   0  0  0  0  0  0  0  0  0  0  0  0
    4.1950    1.6680   19.8255 C   0  0  0  0  0  0  0  0  0  0  0  0
    5.1882    2.5796   20.1055 C   0  0  0  0  0  0  0  0  0  0  0  0
    5.5752    2.7401   21.3859 N   0  0  0  0  0  0  0  0  0  0  0  0
    5.0430    2.0568   22.4110 C   0  0  0  0  0  0  0  0  0  0  0  0
    5.4530    2.2302   23.7485 N   0  0  0  0  0  0  0  0  0  0  0  0
    4.0750    1.1703   22.1269 N   0  0  0  0  0  0  0  0  0  0  0  0
    3.6426    0.9652   20.8503 C   0  0  0  0  0  0  0  0  0  0  0  0
    5.2540    1.4908   24.4576 H   0  0  0  0  0  0  0  0  0  0  0  0
    5.9667    3.0954   24.0804 H   0  0  0  0  0  0  0  0  0  0  0  0
  1  2  1  0  0  0
  2  3  2  0  0  0
  3  4  1  0  0  0
  4  5  2  0  0  0
  5  6  1  0  0  0
  6  7  2  0  0  0
  7 18  1  0  0  0
 18 19  3  0  0  0
 19 20  1  0  0  0
 20 21  2  0  0  0
 21 22  1  0  0  0
 22 23  2  0  0  0
 23 24  1  0  0  0
 22 25  1  0  0  0
 25 26  2  0  0  0
 26 27  1  0  0  0
 27 28  2  0  0  0
 28 29  1  0  0  0
 28 30  1  0  0  0
 30 31  2  0  0  0
  5  8  1  0  0  0
  8  9  2  0  0  0
  8 10  1  0  0  0
 10 12  1  0  0  0
 12 13  2  0  0  0
 13 14  1  0  0  0
 14 15  2  0  0  0
 15 16  1  0  0  0
  7  2  1  0  0  0
 24 20  1  0  0  0
 31 25  1  0  0  0
 16 12  1  0  0  0
 29 32  1  0  0  0
 29 33  1  0  0  0
 10 11  1  0  0  0
 16 17  1  0  0  0
M  END
> <minimizedAffinity>
-7.43060

> <CNNscore>
0.2475025952

> <CNNaffinity>
6.1305189133

> <CNN_VS>
1.5173193216

> <CNNaffinity_variance>
0.3894088566

$$$$
[H]c1nc([H])c2c(C(=O)N(C([H])([H])[H])C([H])([H])C([H])([H])C(N([H])[H])(C([H])([H])[H])C([H])([H])[H])c([H])n(-c3c([H])c([H])c(N([H])C(=O)C([H])([H])N4C([H])([H])C([H])([H])C([H])([H])C([H])([H])C4([H])[H])c([H])c3[H])c2c1Cl


 39 42  0  0  0  0  0  0  0  0999 V2000
    2.7089    4.4590   14.6917 C   0  0  0  0  0  0  0  0  0  0  0  0
    3.2848    5.3797   15.5206 C   0  0  0  0  0  0  0  0  0  0  0  0
    3.7598    4.7779   16.6310 N   0  0  0  0  0  0  0  0  0  0  0  0
    3.4938    3.4678   16.5251 C   0  0  0  0  0  0  0  0  0  0  0  0
    3.7355    2.3878   17.3308 C   0  0  0  0  0  0  0  0  0  0  0  0
    4.5713    2.6436   18.8652 Cl  0  0  0  0  0  0  0  0  0  0  0  0
    3.3359    1.1118   16.9545 C   0  0  0  0  0  0  0  0  0  0  0  0
    2.7097    0.9291   15.7974 N   0  0  0  0  0  0  0  0  0  0  0  0
    2.4492    1.9581   14.9708 C   0  0  0  0  0  0  0  0  0  0  0  0
    2.8315    3.2373   15.3124 C   0  0  0  0  0  0  0  0  0  0  0  0
    4.4228    5.3775   17.7366 C   0  0  0  0  0  0  0  0  0  0  0  0
    5.7888    5.5510   17.7683 C   0  0  0  0  0  0  0  0  0  0  0  0
    6.4269    6.1394   18.8436 C   0  0  0  0  0  0  0  0  0  0  0  0
    5.7435    6.5904   19.9518 C   0  0  0  0  0  0  0  0  0  0  0  0
    4.3520    6.4108   19.9143 C   0  0  0  0  0  0  0  0  0  0  0  0
    3.7291    5.8263   18.8434 C   0  0  0  0  0  0  0  0  0  0  0  0
    6.3515    7.2075   21.0696 N   0  0  0  0  0  0  0  0  0  0  0  0
    7.0545    6.6061   22.1165 C   0  0  0  0  0  0  0  0  0  0  0  0
    7.2858    5.3812   22.2647 O   0  0  0  0  0  0  0  0  0  0  0  0
    6.2556    8.2680   21.1139 H   0  0  0  0  0  0  0  0  0  0  0  0
    7.6155    7.4837   23.2108 C   0  0  0  0  0  0  0  0  0  0  0  0
    8.9903    7.1828   23.3945 N   0  0  0  0  0  0  0  0  0  0  0  0
    9.8797    7.9263   22.5462 C   0  0  0  0  0  0  0  0  0  0  0  0
   10.8034    8.8315   23.3586 C   0  0  0  0  0  0  0  0  0  0  0  0
   11.7253    7.9386   24.1507 C   0  0  0  0  0  0  0  0  0  0  0  0
   10.9167    6.8705   24.8073 C   0  0  0  0  0  0  0  0  0  0  0  0
    9.4248    7.1009   24.7557 C   0  0  0  0  0  0  0  0  0  0  0  0
    2.8052    4.6463   12.1800 N   0  0  0  0  0  0  0  0  0  0  0  0
    4.2496    4.3759   12.3265 C   0  0  0  0  0  0  0  0  0  0  0  0
    2.0711    4.6967   13.3829 C   0  0  0  0  0  0  0  0  0  0  0  0
    0.8309    4.9425   13.4633 O   0  0  0  0  0  0  0  0  0  0  0  0
    2.2441    4.8348   10.9028 C   0  0  0  0  0  0  0  0  0  0  0  0
    1.2910    3.8756   10.3400 C   0  0  0  0  0  0  0  0  0  0  0  0
    2.9603    2.0836    9.6973 C   0  0  0  0  0  0  0  0  0  0  0  0
    1.5998    2.4480   10.1737 C   0  0  0  0  0  0  0  0  0  0  0  0
    1.2824    1.6168   11.4137 C   0  0  0  0  0  0  0  0  0  0  0  0
    0.6379    1.9395    9.1477 N   0  0  0  0  0  0  0  0  0  0  0  0
    0.6093    2.7019    8.4287 H   0  0  0  0  0  0  0  0  0  0  0  0
   -0.2976    2.0130    9.6438 H   0  0  0  0  0  0  0  0  0  0  0  0
 34 35  1  0  0  0
 35 36  1  0  0  0
 35 37  1  0  0  0
 35 33  1  0  0  0
 33 32  1  0  0  0
 32 28  1  0  0  0
 28 29  1  0  0  0
 28 30  1  0  0  0
 30 31  2  0  0  0
 30  1  1  0  0  0
  1  2  2  0  0  0
  2  3  1  0  0  0
  3 11  1  0  0  0
 11 12  2  0  0  0
 12 13  1  0  0  0
 13 14  2  0  0  0
 14 17  1  0  0  0
 17 18  1  0  0  0
 18 19  2  0  0  0
 18 21  1  0  0  0
 21 22  1  0  0  0
 22 23  1  0  0  0
 23 24  1  0  0  0
 24 25  1  0  0  0
 25 26  1  0  0  0
 26 27  1  0  0  0
 14 15  1  0  0  0
 15 16  2  0  0  0
  3  4  1  0  0  0
  4  5  2  0  0  0
  5  6  1  0  0  0
  5  7  1  0  0  0
  7  8  2  0  0  0
  8  9  1  0  0  0
  9 10  2  0  0  0
 10  1  1  0  0  0
 16 11  1  0  0  0
 10  4  1  0  0  0
 27 22  1  0  0  0
 37 38  1  0  0  0
 37 39  1  0  0  0
 17 20  1  0  0  0
M  END
> <minimizedAffinity>
-6.82588

> <CNNscore>
0.4082034528

> <CNNaffinity>
6.7502603531

> <CNN_VS>
2.7554795742

> <CNNaffinity_variance>
0.1365876198

$$$$
[H]c1nc([H])c2c(C(=O)N(C([H])([H])[H])C([H])([H])C([H])([H])C(N([H])[H])(C([H])([H])[H])C([H])([H])[H])c([H])n(-c3c([H])c([H])c(N([H])C(=O)C([H])([H])N4C([H])([H])C([H])([H])C([H])([H])C([H])([H])C4([H])[H])c([H])c3[H])c2c1Cl


 39 42  0  0  0  0  0  0  0  0999 V2000
    2.7577    4.7972   16.2234 C   0  0  0  0  0  0  0  0  0  0  0  0
    3.2860    5.6081   17.1876 C   0  0  0  0  0  0  0  0  0  0  0  0
    3.8446    4.8677   18.1678 N   0  0  0  0  0  0  0  0  0  0  0  0
    3.6805    3.5773   17.8421 C   0  0  0  0  0  0  0  0  0  0  0  0
    4.0344    2.3998   18.4439 C   0  0  0  0  0  0  0  0  0  0  0  0
    4.8984    2.4593   19.9828 Cl  0  0  0  0  0  0  0  0  0  0  0  0
    3.7253    1.1777   17.8605 C   0  0  0  0  0  0  0  0  0  0  0  0
    3.0770    1.1432   16.7016 N   0  0  0  0  0  0  0  0  0  0  0  0
    2.7077    2.2725   16.0707 C   0  0  0  0  0  0  0  0  0  0  0  0
    2.9981    3.5022   16.6208 C   0  0  0  0  0  0  0  0  0  0  0  0
    4.4946    5.3234   19.3473 C   0  0  0  0  0  0  0  0  0  0  0  0
    3.8170    5.5210   20.5300 C   0  0  0  0  0  0  0  0  0  0  0  0
    4.4555    5.9591   21.6747 C   0  0  0  0  0  0  0  0  0  0  0  0
    5.8066    6.2267   21.7106 C   0  0  0  0  0  0  0  0  0  0  0  0
    6.4919    6.0240   20.5027 C   0  0  0  0  0  0  0  0  0  0  0  0
    5.8497    5.5894   19.3735 C   0  0  0  0  0  0  0  0  0  0  0  0
    6.5043    6.6660   22.8595 N   0  0  0  0  0  0  0  0  0  0  0  0
    6.9402    7.9569   23.1688 C   0  0  0  0  0  0  0  0  0  0  0  0
    6.7904    8.9910   22.4730 O   0  0  0  0  0  0  0  0  0  0  0  0
    6.7244    5.9094   23.5771 H   0  0  0  0  0  0  0  0  0  0  0  0
    7.6754    8.1812   24.4694 C   0  0  0  0  0  0  0  0  0  0  0  0
    9.0538    7.8993   24.2834 N   0  0  0  0  0  0  0  0  0  0  0  0
    9.8981    9.0609   24.2464 C   0  0  0  0  0  0  0  0  0  0  0  0
   10.8888    9.0711   25.4087 C   0  0  0  0  0  0  0  0  0  0  0  0
   11.8455    7.9250   25.1942 C   0  0  0  0  0  0  0  0  0  0  0  0
   11.0635    6.7002   24.8561 C   0  0  0  0  0  0  0  0  0  0  0  0
    9.5757    6.8316   25.0810 C   0  0  0  0  0  0  0  0  0  0  0  0
    2.6436    5.0294   13.7161 N   0  0  0  0  0  0  0  0  0  0  0  0
    4.0046    4.4563   13.7126 C   0  0  0  0  0  0  0  0  0  0  0  0
    2.0593    5.2004   14.9881 C   0  0  0  0  0  0  0  0  0  0  0  0
    0.9139    5.7001   15.1964 O   0  0  0  0  0  0  0  0  0  0  0  0
    2.0123    5.3674   12.5042 C   0  0  0  0  0  0  0  0  0  0  0  0
    2.7230    6.0982   11.4526 C   0  0  0  0  0  0  0  0  0  0  0  0
    2.4649    8.0813    9.8997 C   0  0  0  0  0  0  0  0  0  0  0  0
    2.6171    7.5545   11.2817 C   0  0  0  0  0  0  0  0  0  0  0  0
    1.5414    8.1853   12.1615 C   0  0  0  0  0  0  0  0  0  0  0  0
    3.8933    8.1218   11.8166 N   0  0  0  0  0  0  0  0  0  0  0  0
    4.6292    7.4627   11.4656 H   0  0  0  0  0  0  0  0  0  0  0  0
    3.8283    7.9118   12.8550 H   0  0  0  0  0  0  0  0  0  0  0  0
 34 35  1  0  0  0
 35 36  1  0  0  0
 35 37  1  0  0  0
 35 33  1  0  0  0
 33 32  1  0  0  0
 32 28  1  0  0  0
 28 29  1  0  0  0
 28 30  1  0  0  0
 30 31  2  0  0  0
 30  1  1  0  0  0
  1  2  2  0  0  0
  2  3  1  0  0  0
  3 11  1  0  0  0
 11 12  2  0  0  0
 12 13  1  0  0  0
 13 14  2  0  0  0
 14 17  1  0  0  0
 17 18  1  0  0  0
 18 19  2  0  0  0
 18 21  1  0  0  0
 21 22  1  0  0  0
 22 23  1  0  0  0
 23 24  1  0  0  0
 24 25  1  0  0  0
 25 26  1  0  0  0
 26 27  1  0  0  0
 14 15  1  0  0  0
 15 16  2  0  0  0
  3  4  1  0  0  0
  4  5  2  0  0  0
  5  6  1  0  0  0
  5  7  1  0  0  0
  7  8  2  0  0  0
  8  9  1  0  0  0
  9 10  2  0  0  0
 10  1  1  0  0  0
 16 11  1  0  0  0
 10  4  1  0  0  0
 27 22  1  0  0  0
 37 38  1  0  0  0
 37 39  1  0  0  0
 17 20  1  0  0  0
M  END
> <minimizedAffinity>
-7.74686

> <CNNscore>
0.3909681439

> <CNNaffinity>
6.8179259300

> <CNN_VS>
2.6655919552

> <CNNaffinity_variance>
0.2826958001

$$$$
[H]c1nc([H])c2c(C(=O)N(C([H])([H])[H])C([H])([H])C([H])([H])C(N([H])[H])(C([H])([H])[H])C([H])([H])[H])c([H])n(-c3c([H])c([H])c(N([H])C(=O)C([H])([H])N4C([H])([H])C([H])([H])C([H])([H])C([H])([H])C4([H])[H])c([H])c3[H])c2c1Cl


 39 42  0  0  0  0  0  0  0  0999 V2000
    4.5999    4.6552   16.9771 C   0  0  0  0  0  0  0  0  0  0  0  0
    4.0602    5.2284   15.8607 C   0  0  0  0  0  0  0  0  0  0  0  0
    3.3437    4.3193   15.1671 N   0  0  0  0  0  0  0  0  0  0  0  0
    3.4167    3.1565   15.8310 C   0  0  0  0  0  0  0  0  0  0  0  0
    2.8982    1.9091   15.6091 C   0  0  0  0  0  0  0  0  0  0  0  0
    1.9006    1.6473   14.1757 Cl  0  0  0  0  0  0  0  0  0  0  0  0
    3.1459    0.8649   16.4910 C   0  0  0  0  0  0  0  0  0  0  0  0
    3.8957    1.0722   17.5676 N   0  0  0  0  0  0  0  0  0  0  0  0
    4.4278    2.2797   17.8299 C   0  0  0  0  0  0  0  0  0  0  0  0
    4.2025    3.3381   16.9765 C   0  0  0  0  0  0  0  0  0  0  0  0
    2.6296    4.5089   13.9524 C   0  0  0  0  0  0  0  0  0  0  0  0
    1.3138    4.9154   13.9294 C   0  0  0  0  0  0  0  0  0  0  0  0
    0.6266    5.1030   12.7452 C   0  0  0  0  0  0  0  0  0  0  0  0
    1.2080    4.8974   11.5131 C   0  0  0  0  0  0  0  0  0  0  0  0
    2.5486    4.4830   11.5425 C   0  0  0  0  0  0  0  0  0  0  0  0
    3.2209    4.2998   12.7219 C   0  0  0  0  0  0  0  0  0  0  0  0
    0.5486    5.0864   10.2764 N   0  0  0  0  0  0  0  0  0  0  0  0
    0.2962    6.2838    9.6022 C   0  0  0  0  0  0  0  0  0  0  0  0
    0.6148    7.4401    9.9726 O   0  0  0  0  0  0  0  0  0  0  0  0
    0.2001    4.1968    9.8042 H   0  0  0  0  0  0  0  0  0  0  0  0
   -0.4359    6.2313    8.2817 C   0  0  0  0  0  0  0  0  0  0  0  0
   -1.5759    5.3957    8.4106 N   0  0  0  0  0  0  0  0  0  0  0  0
   -2.6629    5.9825    9.1437 C   0  0  0  0  0  0  0  0  0  0  0  0
   -3.8994    6.1617    8.2654 C   0  0  0  0  0  0  0  0  0  0  0  0
   -4.4050    4.7848    7.9145 C   0  0  0  0  0  0  0  0  0  0  0  0
   -3.2541    3.9473    7.4671 C   0  0  0  0  0  0  0  0  0  0  0  0
   -1.9829    4.7229    7.2147 C   0  0  0  0  0  0  0  0  0  0  0  0
    4.9090    5.7919   19.2055 N   0  0  0  0  0  0  0  0  0  0  0  0
    3.4457    5.6575   19.3516 C   0  0  0  0  0  0  0  0  0  0  0  0
    5.4478    5.2955   18.0006 C   0  0  0  0  0  0  0  0  0  0  0  0
    6.6730    5.3451   17.6817 O   0  0  0  0  0  0  0  0  0  0  0  0
    5.6734    6.3840   20.2286 C   0  0  0  0  0  0  0  0  0  0  0  0
    6.0822    7.7887   20.1588 C   0  0  0  0  0  0  0  0  0  0  0  0
    5.9513   10.1003   21.1836 C   0  0  0  0  0  0  0  0  0  0  0  0
    5.2553    8.8871   20.6792 C   0  0  0  0  0  0  0  0  0  0  0  0
    4.1601    9.3247   19.7107 C   0  0  0  0  0  0  0  0  0  0  0  0
    4.5002    8.3159   21.8369 N   0  0  0  0  0  0  0  0  0  0  0  0
    5.2090    7.7242   22.3334 H   0  0  0  0  0  0  0  0  0  0  0  0
    3.8525    7.6142   21.3736 H   0  0  0  0  0  0  0  0  0  0  0  0
 34 35  1  0  0  0
 35 36  1  0  0  0
 35 37  1  0  0  0
 35 33  1  0  0  0
 33 32  1  0  0  0
 32 28  1  0  0  0
 28 29  1  0  0  0
 28 30  1  0  0  0
 30 31  2  0  0  0
 30  1  1  0  0  0
  1  2  2  0  0  0
  2  3  1  0  0  0
  3 11  1  0  0  0
 11 12  2  0  0  0
 12 13  1  0  0  0
 13 14  2  0  0  0
 14 17  1  0  0  0
 17 18  1  0  0  0
 18 19  2  0  0  0
 18 21  1  0  0  0
 21 22  1  0  0  0
 22 23  1  0  0  0
 23 24  1  0  0  0
 24 25  1  0  0  0
 25 26  1  0  0  0
 26 27  1  0  0  0
 14 15  1  0  0  0
 15 16  2  0  0  0
  3  4  1  0  0  0
  4  5  2  0  0  0
  5  6  1  0  0  0
  5  7  1  0  0  0
  7  8  2  0  0  0
  8  9  1  0  0  0
  9 10  2  0  0  0
 10  1  1  0  0  0
 16 11  1  0  0  0
 10  4  1  0  0  0
 27 22  1  0  0  0
 37 38  1  0  0  0
 37 39  1  0  0  0
 17 20  1  0  0  0
M  END
> <minimizedAffinity>
-7.55129

> <CNNscore>
0.3842442334

> <CNNaffinity>
6.6768746376

> <CNN_VS>
2.5655505657

> <CNNaffinity_variance>
0.1298538744

$$$$
[H]c1nc([H])c2c(C(=O)N(C([H])([H])[H])C([H])([H])C([H])([H])C(N([H])[H])(C([H])([H])[H])C([H])([H])[H])c([H])n(-c3c([H])c([H])c(N([H])C(=O)C([H])([H])N4C([H])([H])C([H])([H])C([H])([H])C([H])([H])C4([H])[H])c([H])c3[H])c2c1Cl


 39 42  0  0  0  0  0  0  0  0999 V2000
    2.8996    4.7313   16.3341 C   0  0  0  0  0  0  0  0  0  0  0  0
    3.3942    5.5642   17.2974 C   0  0  0  0  0  0  0  0  0  0  0  0
    3.9468    4.8471   18.2980 N   0  0  0  0  0  0  0  0  0  0  0  0
    3.8124    3.5497   17.9865 C   0  0  0  0  0  0  0  0  0  0  0  0
    4.1758    2.3869   18.6108 C   0  0  0  0  0  0  0  0  0  0  0  0
    5.0083    2.4823   20.1652 Cl  0  0  0  0  0  0  0  0  0  0  0  0
    3.9003    1.1519   18.0380 C   0  0  0  0  0  0  0  0  0  0  0  0
    3.2756    1.0903   16.8674 N   0  0  0  0  0  0  0  0  0  0  0  0
    2.8982    2.2043   16.2143 C   0  0  0  0  0  0  0  0  0  0  0  0
    3.1555    3.4462   16.7534 C   0  0  0  0  0  0  0  0  0  0  0  0
    4.5653    5.3301   19.4836 C   0  0  0  0  0  0  0  0  0  0  0  0
    3.8851    5.4350   20.6767 C   0  0  0  0  0  0  0  0  0  0  0  0
    4.4934    5.9002   21.8271 C   0  0  0  0  0  0  0  0  0  0  0  0
    5.8149    6.2887   21.8588 C   0  0  0  0  0  0  0  0  0  0  0  0
    6.5029    6.1800   20.6404 C   0  0  0  0  0  0  0  0  0  0  0  0
    5.8908    5.7176   19.5055 C   0  0  0  0  0  0  0  0  0  0  0  0
    6.4820    6.7605   23.0130 N   0  0  0  0  0  0  0  0  0  0  0  0
    6.8303    8.0740   23.3376 C   0  0  0  0  0  0  0  0  0  0  0  0
    6.6109    9.1038   22.6540 O   0  0  0  0  0  0  0  0  0  0  0  0
    6.7528    6.0120   23.7218 H   0  0  0  0  0  0  0  0  0  0  0  0
    7.5493    8.3320   24.6410 C   0  0  0  0  0  0  0  0  0  0  0  0
    8.5366    9.3319   24.4418 N   0  0  0  0  0  0  0  0  0  0  0  0
    8.5572   10.3555   25.4495 C   0  0  0  0  0  0  0  0  0  0  0  0
    9.8747   10.3553   26.2220 C   0  0  0  0  0  0  0  0  0  0  0  0
   10.9592   10.7750   25.2615 C   0  0  0  0  0  0  0  0  0  0  0  0
   10.8066   10.0034   23.9938 C   0  0  0  0  0  0  0  0  0  0  0  0
    9.8353    8.8501   24.0819 C   0  0  0  0  0  0  0  0  0  0  0  0
    2.8462    4.9674   13.8252 N   0  0  0  0  0  0  0  0  0  0  0  0
    4.2327    4.4599   13.8593 C   0  0  0  0  0  0  0  0  0  0  0  0
    2.2183    5.1054   15.0802 C   0  0  0  0  0  0  0  0  0  0  0  0
    1.0448    5.5490   15.2567 O   0  0  0  0  0  0  0  0  0  0  0  0
    2.2344    5.2795   12.5964 C   0  0  0  0  0  0  0  0  0  0  0  0
    2.3869    4.4112   11.4268 C   0  0  0  0  0  0  0  0  0  0  0  0
    0.8536    2.6658   12.4335 C   0  0  0  0  0  0  0  0  0  0  0  0
    1.6910    3.1231   11.2933 C   0  0  0  0  0  0  0  0  0  0  0  0
    0.8666    3.0162   10.0135 C   0  0  0  0  0  0  0  0  0  0  0  0
    2.7639    2.0969   11.1130 N   0  0  0  0  0  0  0  0  0  0  0  0
    3.5056    2.3845   11.7958 H   0  0  0  0  0  0  0  0  0  0  0  0
    3.1714    2.3449   10.1648 H   0  0  0  0  0  0  0  0  0  0  0  0
 34 35  1  0  0  0
 35 36  1  0  0  0
 35 37  1  0  0  0
 35 33  1  0  0  0
 33 32  1  0  0  0
 32 28  1  0  0  0
 28 29  1  0  0  0
 28 30  1  0  0  0
 30 31  2  0  0  0
 30  1  1  0  0  0
  1  2  2  0  0  0
  2  3  1  0  0  0
  3 11  1  0  0  0
 11 12  2  0  0  0
 12 13  1  0  0  0
 13 14  2  0  0  0
 14 17  1  0  0  0
 17 18  1  0  0  0
 18 19  2  0  0  0
 18 21  1  0  0  0
 21 22  1  0  0  0
 22 23  1  0  0  0
 23 24  1  0  0  0
 24 25  1  0  0  0
 25 26  1  0  0  0
 26 27  1  0  0  0
 14 15  1  0  0  0
 15 16  2  0  0  0
  3  4  1  0  0  0
  4  5  2  0  0  0
  5  6  1  0  0  0
  5  7  1  0  0  0
  7  8  2  0  0  0
  8  9  1  0  0  0
  9 10  2  0  0  0
 10  1  1  0  0  0
 16 11  1  0  0  0
 10  4  1  0  0  0
 27 22  1  0  0  0
 37 38  1  0  0  0
 37 39  1  0  0  0
 17 20  1  0  0  0
M  END
> <minimizedAffinity>
-7.19983

> <CNNscore>
0.3742691576

> <CNNaffinity>
6.8094911575

> <CNN_VS>
2.5485825539

> <CNNaffinity_variance>
0.3117917180

$$$$
[H]c1nc([H])c2c(C(=O)N(C([H])([H])[H])C([H])([H])C([H])([H])C(N([H])[H])(C([H])([H])[H])C([H])([H])[H])c([H])n(-c3c([H])c([H])c(N([H])C(=O)C([H])([H])N4C([H])([H])C([H])([H])C([H])([H])C([H])([H])C4([H])[H])c([H])c3[H])c2c1Cl


 39 42  0  0  0  0  0  0  0  0999 V2000
    4.5348    4.6179   16.9819 C   0  0  0  0  0  0  0  0  0  0  0  0
    4.2615    5.2473   15.8006 C   0  0  0  0  0  0  0  0  0  0  0  0
    3.6718    4.3919   14.9396 N   0  0  0  0  0  0  0  0  0  0  0  0
    3.5611    3.2079   15.5594 C   0  0  0  0  0  0  0  0  0  0  0  0
    3.0538    1.9920   15.1877 C   0  0  0  0  0  0  0  0  0  0  0  0
    2.3677    1.8172   13.5699 Cl  0  0  0  0  0  0  0  0  0  0  0  0
    3.0728    0.9123   16.0613 C   0  0  0  0  0  0  0  0  0  0  0  0
    3.5890    1.0541   17.2770 N   0  0  0  0  0  0  0  0  0  0  0  0
    4.0996    2.2284   17.6895 C   0  0  0  0  0  0  0  0  0  0  0  0
    4.0971    3.3204   16.8489 C   0  0  0  0  0  0  0  0  0  0  0  0
    3.2342    4.6488   13.6115 C   0  0  0  0  0  0  0  0  0  0  0  0
    4.0694    4.5169   12.5242 C   0  0  0  0  0  0  0  0  0  0  0  0
    3.6365    4.7630   11.2351 C   0  0  0  0  0  0  0  0  0  0  0  0
    2.3466    5.1550   10.9510 C   0  0  0  0  0  0  0  0  0  0  0  0
    1.5001    5.2881   12.0625 C   0  0  0  0  0  0  0  0  0  0  0  0
    1.9390    5.0418   13.3366 C   0  0  0  0  0  0  0  0  0  0  0  0
    1.8562    5.4075    9.6488 N   0  0  0  0  0  0  0  0  0  0  0  0
    1.2503    6.5676    9.1600 C   0  0  0  0  0  0  0  0  0  0  0  0
    1.0240    7.6262    9.7957 O   0  0  0  0  0  0  0  0  0  0  0  0
    1.9643    4.6044    8.9565 H   0  0  0  0  0  0  0  0  0  0  0  0
    0.8025    6.5985    7.7174 C   0  0  0  0  0  0  0  0  0  0  0  0
    1.7596    7.3063    6.9446 N   0  0  0  0  0  0  0  0  0  0  0  0
    1.4138    8.6750    6.6788 C   0  0  0  0  0  0  0  0  0  0  0  0
    2.4126    9.6393    7.3151 C   0  0  0  0  0  0  0  0  0  0  0  0
    3.7297    9.4570    6.6032 C   0  0  0  0  0  0  0  0  0  0  0  0
    4.0237    7.9981    6.4978 C   0  0  0  0  0  0  0  0  0  0  0  0
    3.1238    7.1212    7.3359 C   0  0  0  0  0  0  0  0  0  0  0  0
    4.4159    5.6489   19.2789 N   0  0  0  0  0  0  0  0  0  0  0  0
    2.9504    5.5501   19.1257 C   0  0  0  0  0  0  0  0  0  0  0  0
    5.1741    5.1893   18.1824 C   0  0  0  0  0  0  0  0  0  0  0  0
    6.4390    5.2176   18.1152 O   0  0  0  0  0  0  0  0  0  0  0  0
    4.9726    6.1745   20.4602 C   0  0  0  0  0  0  0  0  0  0  0  0
    4.4593    5.7960   21.7787 C   0  0  0  0  0  0  0  0  0  0  0  0
    3.9251    4.0958   23.5773 C   0  0  0  0  0  0  0  0  0  0  0  0
    4.7441    4.4957   22.4026 C   0  0  0  0  0  0  0  0  0  0  0  0
    4.7558    3.3410   21.4048 C   0  0  0  0  0  0  0  0  0  0  0  0
    6.1607    4.5721   22.8760 N   0  0  0  0  0  0  0  0  0  0  0  0
    6.2398    5.5358   23.2812 H   0  0  0  0  0  0  0  0  0  0  0  0
    6.7104    4.6240   21.9695 H   0  0  0  0  0  0  0  0  0  0  0  0
 34 35  1  0  0  0
 35 36  1  0  0  0
 35 37  1  0  0  0
 35 33  1  0  0  0
 33 32  1  0  0  0
 32 28  1  0  0  0
 28 29  1  0  0  0
 28 30  1  0  0  0
 30 31  2  0  0  0
 30  1  1  0  0  0
  1  2  2  0  0  0
  2  3  1  0  0  0
  3 11  1  0  0  0
 11 12  2  0  0  0
 12 13  1  0  0  0
 13 14  2  0  0  0
 14 17  1  0  0  0
 17 18  1  0  0  0
 18 19  2  0  0  0
 18 21  1  0  0  0
 21 22  1  0  0  0
 22 23  1  0  0  0
 23 24  1  0  0  0
 24 25  1  0  0  0
 25 26  1  0  0  0
 26 27  1  0  0  0
 14 15  1  0  0  0
 15 16  2  0  0  0
  3  4  1  0  0  0
  4  5  2  0  0  0
  5  6  1  0  0  0
  5  7  1  0  0  0
  7  8  2  0  0  0
  8  9  1  0  0  0
  9 10  2  0  0  0
 10  1  1  0  0  0
 16 11  1  0  0  0
 10  4  1  0  0  0
 27 22  1  0  0  0
 37 38  1  0  0  0
 37 39  1  0  0  0
 17 20  1  0  0  0
M  END
> <minimizedAffinity>
-7.46763

> <CNNscore>
0.3520919979

> <CNNaffinity>
6.6811838150

> <CNN_VS>
2.3523912430

> <CNNaffinity_variance>
0.1011174545

$$$$
[H]c1nc([H])c2c(C(=O)N(C([H])([H])[H])C([H])([H])C([H])([H])C(N([H])[H])(C([H])([H])[H])C([H])([H])[H])c([H])n(-c3c([H])c([H])c(N([H])C(=O)C([H])([H])N4C([H])([H])C([H])([H])C([H])([H])C([H])([H])C4([H])[H])c([H])c3[H])c2c1Cl


 39 42  0  0  0  0  0  0  0  0999 V2000
    2.7371    4.4929   14.7345 C   0  0  0  0  0  0  0  0  0  0  0  0
    3.4002    5.4830   15.4026 C   0  0  0  0  0  0  0  0  0  0  0  0
    3.9945    4.9858   16.5073 N   0  0  0  0  0  0  0  0  0  0  0  0
    3.7189    3.6744   16.5582 C   0  0  0  0  0  0  0  0  0  0  0  0
    4.0480    2.6743   17.4331 C   0  0  0  0  0  0  0  0  0  0  0  0
    5.0471    3.0676   18.8350 Cl  0  0  0  0  0  0  0  0  0  0  0  0
    3.6099    1.3723   17.2278 C   0  0  0  0  0  0  0  0  0  0  0  0
    2.8605    1.0857   16.1691 N   0  0  0  0  0  0  0  0  0  0  0  0
    2.5105    2.0332   15.2805 C   0  0  0  0  0  0  0  0  0  0  0  0
    2.9275    3.3353   15.4530 C   0  0  0  0  0  0  0  0  0  0  0  0
    4.7747    5.6820   17.4707 C   0  0  0  0  0  0  0  0  0  0  0  0
    4.2045    6.3838   18.5097 C   0  0  0  0  0  0  0  0  0  0  0  0
    4.9685    7.0541   19.4460 C   0  0  0  0  0  0  0  0  0  0  0  0
    6.3457    7.0659   19.4044 C   0  0  0  0  0  0  0  0  0  0  0  0
    6.9212    6.3495   18.3436 C   0  0  0  0  0  0  0  0  0  0  0  0
    6.1549    5.6884   17.4204 C   0  0  0  0  0  0  0  0  0  0  0  0
    7.1683    7.7280   20.3450 N   0  0  0  0  0  0  0  0  0  0  0  0
    7.7761    8.9812   20.2354 C   0  0  0  0  0  0  0  0  0  0  0  0
    7.7040    9.7725   19.2635 O   0  0  0  0  0  0  0  0  0  0  0  0
    7.3448    7.1960   21.2515 H   0  0  0  0  0  0  0  0  0  0  0  0
    8.6205    9.4799   21.3846 C   0  0  0  0  0  0  0  0  0  0  0  0
    8.2996    8.7450   22.5556 N   0  0  0  0  0  0  0  0  0  0  0  0
    9.3935    7.9915   23.1024 C   0  0  0  0  0  0  0  0  0  0  0  0
    9.7737    8.4864   24.4964 C   0  0  0  0  0  0  0  0  0  0  0  0
    8.6222    8.1669   25.4165 C   0  0  0  0  0  0  0  0  0  0  0  0
    7.3502    8.5950   24.7648 C   0  0  0  0  0  0  0  0  0  0  0  0
    7.5401    9.4560   23.5384 C   0  0  0  0  0  0  0  0  0  0  0  0
    2.5499    4.4054   12.2224 N   0  0  0  0  0  0  0  0  0  0  0  0
    3.9952    4.1024   12.2365 C   0  0  0  0  0  0  0  0  0  0  0  0
    1.9594    4.6105   13.4864 C   0  0  0  0  0  0  0  0  0  0  0  0
    0.7422    4.9064   13.6765 O   0  0  0  0  0  0  0  0  0  0  0  0
    1.8508    4.4748   11.0026 C   0  0  0  0  0  0  0  0  0  0  0  0
    0.5960    3.7467   10.8008 C   0  0  0  0  0  0  0  0  0  0  0  0
   -0.6753    5.8862   10.3347 C   0  0  0  0  0  0  0  0  0  0  0  0
   -0.6929    4.4215   10.5897 C   0  0  0  0  0  0  0  0  0  0  0  0
   -1.5515    3.7539    9.5191 C   0  0  0  0  0  0  0  0  0  0  0  0
   -1.4716    4.2170   11.8500 N   0  0  0  0  0  0  0  0  0  0  0  0
   -0.7634    4.3584   12.6100 H   0  0  0  0  0  0  0  0  0  0  0  0
   -1.6498    3.1706   11.8506 H   0  0  0  0  0  0  0  0  0  0  0  0
 34 35  1  0  0  0
 35 36  1  0  0  0
 35 37  1  0  0  0
 35 33  1  0  0  0
 33 32  1  0  0  0
 32 28  1  0  0  0
 28 29  1  0  0  0
 28 30  1  0  0  0
 30 31  2  0  0  0
 30  1  1  0  0  0
  1  2  2  0  0  0
  2  3  1  0  0  0
  3 11  1  0  0  0
 11 12  2  0  0  0
 12 13  1  0  0  0
 13 14  2  0  0  0
 14 17  1  0  0  0
 17 18  1  0  0  0
 18 19  2  0  0  0
 18 21  1  0  0  0
 21 22  1  0  0  0
 22 23  1  0  0  0
 23 24  1  0  0  0
 24 25  1  0  0  0
 25 26  1  0  0  0
 26 27  1  0  0  0
 14 15  1  0  0  0
 15 16  2  0  0  0
  3  4  1  0  0  0
  4  5  2  0  0  0
  5  6  1  0  0  0
  5  7  1  0  0  0
  7  8  2  0  0  0
  8  9  1  0  0  0
  9 10  2  0  0  0
 10  1  1  0  0  0
 16 11  1  0  0  0
 10  4  1  0  0  0
 27 22  1  0  0  0
 37 38  1  0  0  0
 37 39  1  0  0  0
 17 20  1  0  0  0
M  END
> <minimizedAffinity>
-6.95069

> <CNNscore>
0.3469905853

> <CNNaffinity>
6.5765733719

> <CNN_VS>
2.2820091248

> <CNNaffinity_variance>
0.1066864952

$$$$
[H]c1nc([H])c2c(C(=O)N(C([H])([H])[H])C([H])([H])C([H])([H])C(N([H])[H])(C([H])([H])[H])C([H])([H])[H])c([H])n(-c3c([H])c([H])c(N([H])C(=O)C([H])([H])N4C([H])([H])C([H])([H])C([H])([H])C([H])([H])C4([H])[H])c([H])c3[H])c2c1Cl


 39 42  0  0  0  0  0  0  0  0999 V2000
    4.3988    4.5035   16.6057 C   0  0  0  0  0  0  0  0  0  0  0  0
    3.9087    5.1081   15.4829 C   0  0  0  0  0  0  0  0  0  0  0  0
    3.1599    4.2393   14.7720 N   0  0  0  0  0  0  0  0  0  0  0  0
    3.1624    3.0713   15.4310 C   0  0  0  0  0  0  0  0  0  0  0  0
    2.5859    1.8527   15.1935 C   0  0  0  0  0  0  0  0  0  0  0  0
    1.6021    1.6476   13.7414 Cl  0  0  0  0  0  0  0  0  0  0  0  0
    2.7648    0.7935   16.0741 C   0  0  0  0  0  0  0  0  0  0  0  0
    3.5048    0.9581   17.1649 N   0  0  0  0  0  0  0  0  0  0  0  0
    4.0921    2.1361   17.4428 C   0  0  0  0  0  0  0  0  0  0  0  0
    3.9357    3.2081   16.5911 C   0  0  0  0  0  0  0  0  0  0  0  0
    2.4781    4.4698   13.5459 C   0  0  0  0  0  0  0  0  0  0  0  0
    1.1932    4.9641   13.5013 C   0  0  0  0  0  0  0  0  0  0  0  0
    0.5377    5.1911   12.3061 C   0  0  0  0  0  0  0  0  0  0  0  0
    1.1218    4.9398   11.0838 C   0  0  0  0  0  0  0  0  0  0  0  0
    2.4308    4.4360   11.1352 C   0  0  0  0  0  0  0  0  0  0  0  0
    3.0718    4.2145   12.3253 C   0  0  0  0  0  0  0  0  0  0  0  0
    0.4949    5.1661    9.8366 N   0  0  0  0  0  0  0  0  0  0  0  0
   -0.2754    4.2798    9.0795 C   0  0  0  0  0  0  0  0  0  0  0  0
   -0.5639    3.0930    9.3697 O   0  0  0  0  0  0  0  0  0  0  0  0
    0.6335    6.1397    9.4259 H   0  0  0  0  0  0  0  0  0  0  0  0
   -0.8435    4.7558    7.7631 C   0  0  0  0  0  0  0  0  0  0  0  0
   -2.1908    5.1596    7.9525 N   0  0  0  0  0  0  0  0  0  0  0  0
   -3.1648    4.1679    7.5900 C   0  0  0  0  0  0  0  0  0  0  0  0
   -3.9814    3.7160    8.7990 C   0  0  0  0  0  0  0  0  0  0  0  0
   -4.8146    4.8919    9.2438 C   0  0  0  0  0  0  0  0  0  0  0  0
   -3.9456    6.1030    9.3072 C   0  0  0  0  0  0  0  0  0  0  0  0
   -2.4675    5.8132    9.1954 C   0  0  0  0  0  0  0  0  0  0  0  0
    4.7189    5.6937   18.8044 N   0  0  0  0  0  0  0  0  0  0  0  0
    3.2442    5.7149   18.8804 C   0  0  0  0  0  0  0  0  0  0  0  0
    5.2594    5.0958   17.6473 C   0  0  0  0  0  0  0  0  0  0  0  0
    6.4967    5.0074   17.3897 O   0  0  0  0  0  0  0  0  0  0  0  0
    5.4915    6.2465   19.8431 C   0  0  0  0  0  0  0  0  0  0  0  0
    5.0703    6.1467   21.2423 C   0  0  0  0  0  0  0  0  0  0  0  0
    4.2887    4.6136   23.0996 C   0  0  0  0  0  0  0  0  0  0  0  0
    5.2988    4.9470   22.0607 C   0  0  0  0  0  0  0  0  0  0  0  0
    5.5695    3.6961   21.2295 C   0  0  0  0  0  0  0  0  0  0  0  0
    6.5886    5.1835   22.7798 N   0  0  0  0  0  0  0  0  0  0  0  0
    6.5334    6.1883   23.0735 H   0  0  0  0  0  0  0  0  0  0  0  0
    7.3016    5.1800   21.9935 H   0  0  0  0  0  0  0  0  0  0  0  0
 34 35  1  0  0  0
 35 36  1  0  0  0
 35 37  1  0  0  0
 35 33  1  0  0  0
 33 32  1  0  0  0
 32 28  1  0  0  0
 28 29  1  0  0  0
 28 30  1  0  0  0
 30 31  2  0  0  0
 30  1  1  0  0  0
  1  2  2  0  0  0
  2  3  1  0  0  0
  3 11  1  0  0  0
 11 12  2  0  0  0
 12 13  1  0  0  0
 13 14  2  0  0  0
 14 17  1  0  0  0
 17 18  1  0  0  0
 18 19  2  0  0  0
 18 21  1  0  0  0
 21 22  1  0  0  0
 22 23  1  0  0  0
 23 24  1  0  0  0
 24 25  1  0  0  0
 25 26  1  0  0  0
 26 27  1  0  0  0
 14 15  1  0  0  0
 15 16  2  0  0  0
  3  4  1  0  0  0
  4  5  2  0  0  0
  5  6  1  0  0  0
  5  7  1  0  0  0
  7  8  2  0  0  0
  8  9  1  0  0  0
  9 10  2  0  0  0
 10  1  1  0  0  0
 16 11  1  0  0  0
 10  4  1  0  0  0
 27 22  1  0  0  0
 37 38  1  0  0  0
 37 39  1  0  0  0
 17 20  1  0  0  0
M  END
> <minimizedAffinity>
-7.05129

> <CNNscore>
0.3133524656

> <CNNaffinity>
6.6507630348

> <CNN_VS>
2.0840330124

> <CNNaffinity_variance>
0.0754773915

$$$$
[H]c1nc([H])c2c(C(=O)N(C([H])([H])[H])C([H])([H])C([H])([H])C(N([H])[H])(C([H])([H])[H])C([H])([H])[H])c([H])n(-c3c([H])c([H])c(N([H])C(=O)C([H])([H])N4C([H])([H])C([H])([H])C([H])([H])C([H])([H])C4([H])[H])c([H])c3[H])c2c1Cl


 39 42  0  0  0  0  0  0  0  0999 V2000
    4.3116    2.3938   18.7263 C   0  0  0  0  0  0  0  0  0  0  0  0
    4.8620    3.6188   18.9773 C   0  0  0  0  0  0  0  0  0  0  0  0
    4.8545    3.8730   20.3025 N   0  0  0  0  0  0  0  0  0  0  0  0
    4.3005    2.8154   20.9131 C   0  0  0  0  0  0  0  0  0  0  0  0
    4.0348    2.5136   22.2216 C   0  0  0  0  0  0  0  0  0  0  0  0
    4.4693    3.6864   23.4683 Cl  0  0  0  0  0  0  0  0  0  0  0  0
    3.4372    1.3091   22.5702 C   0  0  0  0  0  0  0  0  0  0  0  0
    3.1161    0.4323   21.6255 N   0  0  0  0  0  0  0  0  0  0  0  0
    3.3567    0.6822   20.3257 C   0  0  0  0  0  0  0  0  0  0  0  0
    3.9482    1.8669   19.9441 C   0  0  0  0  0  0  0  0  0  0  0  0
    5.3302    5.0320   20.9746 C   0  0  0  0  0  0  0  0  0  0  0  0
    6.5777    5.0841   21.5563 C   0  0  0  0  0  0  0  0  0  0  0  0
    7.0364    6.2156   22.2036 C   0  0  0  0  0  0  0  0  0  0  0  0
    6.2811    7.3629   22.3108 C   0  0  0  0  0  0  0  0  0  0  0  0
    5.0108    7.3041   21.7167 C   0  0  0  0  0  0  0  0  0  0  0  0
    4.5654    6.1775   21.0773 C   0  0  0  0  0  0  0  0  0  0  0  0
    6.7119    8.5465   22.9536 N   0  0  0  0  0  0  0  0  0  0  0  0
    7.6317    9.4949   22.4990 C   0  0  0  0  0  0  0  0  0  0  0  0
    8.2600    9.4764   21.4124 O   0  0  0  0  0  0  0  0  0  0  0  0
    6.2763    8.7320   23.9084 H   0  0  0  0  0  0  0  0  0  0  0  0
    7.9348   10.6881   23.3747 C   0  0  0  0  0  0  0  0  0  0  0  0
    8.9599   10.3461   24.2947 N   0  0  0  0  0  0  0  0  0  0  0  0
    8.4891    9.7508   25.5143 C   0  0  0  0  0  0  0  0  0  0  0  0
    8.9911    8.3166   25.6683 C   0  0  0  0  0  0  0  0  0  0  0  0
   10.4864    8.3811   25.8541 C   0  0  0  0  0  0  0  0  0  0  0  0
   11.0619    9.2949   24.8247 C   0  0  0  0  0  0  0  0  0  0  0  0
   10.0963    9.6840   23.7304 C   0  0  0  0  0  0  0  0  0  0  0  0
    3.2333    2.2458   16.4529 N   0  0  0  0  0  0  0  0  0  0  0  0
    2.4769    3.4483   16.8563 C   0  0  0  0  0  0  0  0  0  0  0  0
    4.1274    1.7380   17.4178 C   0  0  0  0  0  0  0  0  0  0  0  0
    4.8414    0.7022   17.2678 O   0  0  0  0  0  0  0  0  0  0  0  0
    3.0399    1.6795   15.1787 C   0  0  0  0  0  0  0  0  0  0  0  0
    3.0837    2.4993   13.9658 C   0  0  0  0  0  0  0  0  0  0  0  0
    1.2166    4.0002   13.1460 C   0  0  0  0  0  0  0  0  0  0  0  0
    1.9188    2.6909   13.0897 C   0  0  0  0  0  0  0  0  0  0  0  0
    2.2057    2.3577   11.6283 C   0  0  0  0  0  0  0  0  0  0  0  0
    0.9230    1.6544   13.5029 N   0  0  0  0  0  0  0  0  0  0  0  0
    0.9754    1.6573   14.5500 H   0  0  0  0  0  0  0  0  0  0  0  0
    1.3953    0.7469   13.2202 H   0  0  0  0  0  0  0  0  0  0  0  0
 34 35  1  0  0  0
 35 36  1  0  0  0
 35 37  1  0  0  0
 35 33  1  0  0  0
 33 32  1  0  0  0
 32 28  1  0  0  0
 28 29  1  0  0  0
 28 30  1  0  0  0
 30 31  2  0  0  0
 30  1  1  0  0  0
  1  2  2  0  0  0
  2  3  1  0  0  0
  3 11  1  0  0  0
 11 12  2  0  0  0
 12 13  1  0  0  0
 13 14  2  0  0  0
 14 17  1  0  0  0
 17 18  1  0  0  0
 18 19  2  0  0  0
 18 21  1  0  0  0
 21 22  1  0  0  0
 22 23  1  0  0  0
 23 24  1  0  0  0
 24 25  1  0  0  0
 25 26  1  0  0  0
 26 27  1  0  0  0
 14 15  1  0  0  0
 15 16  2  0  0  0
  3  4  1  0  0  0
  4  5  2  0  0  0
  5  6  1  0  0  0
  5  7  1  0  0  0
  7  8  2  0  0  0
  8  9  1  0  0  0
  9 10  2  0  0  0
 10  1  1  0  0  0
 16 11  1  0  0  0
 10  4  1  0  0  0
 27 22  1  0  0  0
 37 38  1  0  0  0
 37 39  1  0  0  0
 17 20  1  0  0  0
M  END
> <minimizedAffinity>
-8.39122

> <CNNscore>
0.3075791001

> <CNNaffinity>
6.6821336746

> <CNN_VS>
2.0552847385

> <CNNaffinity_variance>
0.3377356827

$$$$
[H]c1nc([H])c2c(C(=O)N(C([H])([H])[H])C([H])([H])C([H])([H])C(N([H])[H])(C([H])([H])[H])C([H])([H])[H])c([H])n(-c3c([H])c([H])c(N([H])C(=O)C([H])([H])N4C([H])([H])C([H])([H])C([H])([H])C([H])([H])C4([H])[H])c([H])c3[H])c2c1Cl


 39 42  0  0  0  0  0  0  0  0999 V2000
    2.4340    5.0215   15.5978 C   0  0  0  0  0  0  0  0  0  0  0  0
    3.0607    5.7640   16.5582 C   0  0  0  0  0  0  0  0  0  0  0  0
    3.6472    4.9564   17.4662 N   0  0  0  0  0  0  0  0  0  0  0  0
    3.4029    3.6904   17.0976 C   0  0  0  0  0  0  0  0  0  0  0  0
    3.7406    2.4725   17.6236 C   0  0  0  0  0  0  0  0  0  0  0  0
    4.7047    2.4245   19.1023 Cl  0  0  0  0  0  0  0  0  0  0  0  0
    3.3382    1.2928   17.0107 C   0  0  0  0  0  0  0  0  0  0  0  0
    2.6150    1.3391   15.8975 N   0  0  0  0  0  0  0  0  0  0  0  0
    2.2578    2.5109   15.3414 C   0  0  0  0  0  0  0  0  0  0  0  0
    2.6398    3.7005   15.9227 C   0  0  0  0  0  0  0  0  0  0  0  0
    4.3928    5.3294   18.6179 C   0  0  0  0  0  0  0  0  0  0  0  0
    5.7498    5.5610   18.5714 C   0  0  0  0  0  0  0  0  0  0  0  0
    6.4681    5.9286   19.6933 C   0  0  0  0  0  0  0  0  0  0  0  0
    5.8789    6.0875   20.9286 C   0  0  0  0  0  0  0  0  0  0  0  0
    4.4963    5.8499   20.9702 C   0  0  0  0  0  0  0  0  0  0  0  0
    3.7933    5.4860   19.8522 C   0  0  0  0  0  0  0  0  0  0  0  0
    6.5704    6.4720   22.1006 N   0  0  0  0  0  0  0  0  0  0  0  0
    6.8015    7.7608   22.5881 C   0  0  0  0  0  0  0  0  0  0  0  0
    6.4300    8.8418   22.0690 O   0  0  0  0  0  0  0  0  0  0  0  0
    6.9654    5.6704   22.6814 H   0  0  0  0  0  0  0  0  0  0  0  0
    7.5769    7.9207   23.8747 C   0  0  0  0  0  0  0  0  0  0  0  0
    8.9607    7.7447   23.6130 N   0  0  0  0  0  0  0  0  0  0  0  0
    9.4756    6.4551   23.9811 C   0  0  0  0  0  0  0  0  0  0  0  0
    9.9755    5.6824   22.7622 C   0  0  0  0  0  0  0  0  0  0  0  0
   11.1833    6.4130   22.2310 C   0  0  0  0  0  0  0  0  0  0  0  0
   10.8686    7.8690   22.1472 C   0  0  0  0  0  0  0  0  0  0  0  0
    9.4065    8.1999   22.3314 C   0  0  0  0  0  0  0  0  0  0  0  0
    2.2546    5.5791   13.1463 N   0  0  0  0  0  0  0  0  0  0  0  0
    3.6694    5.1642   13.0624 C   0  0  0  0  0  0  0  0  0  0  0  0
    1.6760    5.5103   14.4304 C   0  0  0  0  0  0  0  0  0  0  0  0
    0.4868    5.8486   14.7068 O   0  0  0  0  0  0  0  0  0  0  0  0
    1.5707    6.0079   11.9930 C   0  0  0  0  0  0  0  0  0  0  0  0
    0.7533    5.0837   11.2039 C   0  0  0  0  0  0  0  0  0  0  0  0
   -1.4734    6.0586   11.9127 C   0  0  0  0  0  0  0  0  0  0  0  0
   -0.6849    4.8903   11.4394 C   0  0  0  0  0  0  0  0  0  0  0  0
   -1.4094    4.2671   10.2495 C   0  0  0  0  0  0  0  0  0  0  0  0
   -0.7868    3.8464   12.5055 N   0  0  0  0  0  0  0  0  0  0  0  0
   -0.0304    4.1041   13.1842 H   0  0  0  0  0  0  0  0  0  0  0  0
   -0.4179    2.9770   12.0211 H   0  0  0  0  0  0  0  0  0  0  0  0
 34 35  1  0  0  0
 35 36  1  0  0  0
 35 37  1  0  0  0
 35 33  1  0  0  0
 33 32  1  0  0  0
 32 28  1  0  0  0
 28 29  1  0  0  0
 28 30  1  0  0  0
 30 31  2  0  0  0
 30  1  1  0  0  0
  1  2  2  0  0  0
  2  3  1  0  0  0
  3 11  1  0  0  0
 11 12  2  0  0  0
 12 13  1  0  0  0
 13 14  2  0  0  0
 14 17  1  0  0  0
 17 18  1  0  0  0
 18 19  2  0  0  0
 18 21  1  0  0  0
 21 22  1  0  0  0
 22 23  1  0  0  0
 23 24  1  0  0  0
 24 25  1  0  0  0
 25 26  1  0  0  0
 26 27  1  0  0  0
 14 15  1  0  0  0
 15 16  2  0  0  0
  3  4  1  0  0  0
  4  5  2  0  0  0
  5  6  1  0  0  0
  5  7  1  0  0  0
  7  8  2  0  0  0
  8  9  1  0  0  0
  9 10  2  0  0  0
 10  1  1  0  0  0
 16 11  1  0  0  0
 10  4  1  0  0  0
 27 22  1  0  0  0
 37 38  1  0  0  0
 37 39  1  0  0  0
 17 20  1  0  0  0
M  END
> <minimizedAffinity>
-7.66501

> <CNNscore>
0.2894034684

> <CNNaffinity>
6.7142653465

> <CNN_VS>
1.9431316853

> <CNNaffinity_variance>
0.0534677431

$$$$
[H]OC(C(=O)N([H])c1nc([H])c(C(=O)N([H])c2c([H])c([H])c([H])c(C(=O)N(c3c([H])c([H])nc([H])c3[H])C([H])([H])[H])c2[H])c(C2([H])C([H])([H])OC2([H])[H])c1[H])(C([H])([H])[H])C([H])([H])[H]


 39 42  0  0  0  0  0  0  0  0999 V2000
    5.1475    2.2415   19.8193 C   0  0  0  0  0  0  0  0  0  0  0  0
    5.8150    1.2437   20.2745 O   0  0  0  0  0  0  0  0  0  0  0  0
    4.4014    2.2205   18.6946 N   0  0  0  0  0  0  0  0  0  0  0  0
    5.0056    1.0257   18.3467 H   0  0  0  0  0  0  0  0  0  0  0  0
    5.7241    5.6509   22.1238 C   0  0  0  0  0  0  0  0  0  0  0  0
    5.7192    4.4142   22.7823 C   0  0  0  0  0  0  0  0  0  0  0  0
    5.5020    3.2624   22.0334 C   0  0  0  0  0  0  0  0  0  0  0  0
    5.3123    3.4189   20.7056 C   0  0  0  0  0  0  0  0  0  0  0  0
    5.3182    4.6468   20.0658 C   0  0  0  0  0  0  0  0  0  0  0  0
    5.5262    5.7600   20.7936 N   0  0  0  0  0  0  0  0  0  0  0  0
    7.2575    7.2865   23.1684 C   0  0  0  0  0  0  0  0  0  0  0  0
    8.2359    6.6751   22.7057 O   0  0  0  0  0  0  0  0  0  0  0  0
    5.9343    6.8288   22.9296 N   0  0  0  0  0  0  0  0  0  0  0  0
    5.1416    7.3556   23.3302 H   0  0  0  0  0  0  0  0  0  0  0  0
    6.9494    9.7599   23.3305 C   0  0  0  0  0  0  0  0  0  0  0  0
    7.4639    8.5038   23.9772 C   0  0  0  0  0  0  0  0  0  0  0  0
    8.9350    8.7244   24.2756 C   0  0  0  0  0  0  0  0  0  0  0  0
    6.8179    8.3307   25.2016 O   0  0  0  0  0  0  0  0  0  0  0  0
    6.6080    9.1953   25.6583 H   0  0  0  0  0  0  0  0  0  0  0  0
    5.3988    1.9786   22.7026 C   0  0  0  0  0  0  0  0  0  0  0  0
    5.6609    1.9544   24.1828 C   0  0  0  0  0  0  0  0  0  0  0  0
    4.3266    2.2957   24.4185 O   0  0  0  0  0  0  0  0  0  0  0  0
    4.0096    1.6552   23.2444 C   0  0  0  0  0  0  0  0  0  0  0  0
    3.6490    2.1848   17.5519 C   0  0  0  0  0  0  0  0  0  0  0  0
    3.2950    0.9566   16.9911 C   0  0  0  0  0  0  0  0  0  0  0  0
    2.6709    0.8871   15.7780 C   0  0  0  0  0  0  0  0  0  0  0  0
    2.3630    2.0184   15.0618 C   0  0  0  0  0  0  0  0  0  0  0  0
    2.6885    3.2901   15.5703 C   0  0  0  0  0  0  0  0  0  0  0  0
    3.3169    3.3303   16.7916 C   0  0  0  0  0  0  0  0  0  0  0  0
    2.4113    4.4717   14.7729 C   0  0  0  0  0  0  0  0  0  0  0  0
    1.5380    5.2710   15.3407 O   0  0  0  0  0  0  0  0  0  0  0  0
    2.8958    4.8921   13.5494 N   0  0  0  0  0  0  0  0  0  0  0  0
    3.9900    4.3335   12.8163 C   0  0  0  0  0  0  0  0  0  0  0  0
    2.2586    6.0687   12.9515 C   0  0  0  0  0  0  0  0  0  0  0  0
    2.7550    7.3246   13.1232 C   0  0  0  0  0  0  0  0  0  0  0  0
    2.1400    8.4306   12.5499 C   0  0  0  0  0  0  0  0  0  0  0  0
    1.0356    8.2274   11.8173 N   0  0  0  0  0  0  0  0  0  0  0  0
    0.5297    6.9793   11.6377 C   0  0  0  0  0  0  0  0  0  0  0  0
    1.1234    5.8639   12.1976 C   0  0  0  0  0  0  0  0  0  0  0  0
 15 16  1  0  0  0
 16 17  1  0  0  0
 16 18  1  0  0  0
 16 11  1  0  0  0
 11 12  2  0  0  0
 11 13  1  0  0  0
 13  5  1  0  0  0
  5  6  2  0  0  0
  6  7  1  0  0  0
  7 20  1  0  0  0
 20 21  1  0  0  0
 21 22  1  0  0  0
 22 23  1  0  0  0
  7  8  2  0  0  0
  8  9  1  0  0  0
  9 10  2  0  0  0
  8  1  1  0  0  0
  1  2  2  0  0  0
  1  3  1  0  0  0
  3 24  1  0  0  0
 24 25  2  0  0  0
 25 26  1  0  0  0
 26 27  2  0  0  0
 27 28  1  0  0  0
 28 29  2  0  0  0
 28 30  1  0  0  0
 30 31  2  0  0  0
 30 32  1  0  0  0
 32 33  1  0  0  0
 32 34  1  0  0  0
 34 35  2  0  0  0
 35 36  1  0  0  0
 36 37  2  0  0  0
 37 38  1  0  0  0
 38 39  2  0  0  0
 10  5  1  0  0  0
 29 24  1  0  0  0
 39 34  1  0  0  0
 23 20  1  0  0  0
 18 19  1  0  0  0
 13 14  1  0  0  0
  3  4  1  0  0  0
M  END
> <minimizedAffinity>
-9.67150

> <CNNscore>
0.2971726060

> <CNNaffinity>
6.4930925369

> <CNN_VS>
1.9295692444

> <CNNaffinity_variance>
0.1309502572

$$$$
[H]OC(C(=O)N([H])c1nc([H])c(C(=O)N([H])c2c([H])c([H])c([H])c(C(=O)N(c3c([H])c([H])nc([H])c3[H])C([H])([H])[H])c2[H])c(C2([H])C([H])([H])OC2([H])[H])c1[H])(C([H])([H])[H])C([H])([H])[H]


 39 42  0  0  0  0  0  0  0  0999 V2000
    4.8895    2.3024   19.6143 C   0  0  0  0  0  0  0  0  0  0  0  0
    5.2287    1.2510   20.2685 O   0  0  0  0  0  0  0  0  0  0  0  0
    4.2078    2.2983   18.4493 N   0  0  0  0  0  0  0  0  0  0  0  0
    4.4577    0.9423   18.3372 H   0  0  0  0  0  0  0  0  0  0  0  0
    6.3167    5.7714   21.4021 C   0  0  0  0  0  0  0  0  0  0  0  0
    6.0572    4.6721   22.2311 C   0  0  0  0  0  0  0  0  0  0  0  0
    5.5544    3.5095   21.6566 C   0  0  0  0  0  0  0  0  0  0  0  0
    5.3526    3.5207   20.3214 C   0  0  0  0  0  0  0  0  0  0  0  0
    5.6119    4.6139   19.5122 C   0  0  0  0  0  0  0  0  0  0  0  0
    6.0961    5.7386   20.0713 N   0  0  0  0  0  0  0  0  0  0  0  0
    6.0170    8.1395   22.0498 C   0  0  0  0  0  0  0  0  0  0  0  0
    4.8927    8.1494   21.5198 O   0  0  0  0  0  0  0  0  0  0  0  0
    6.8208    6.9687   22.0292 N   0  0  0  0  0  0  0  0  0  0  0  0
    7.7522    6.9920   22.4747 H   0  0  0  0  0  0  0  0  0  0  0  0
    6.5270   10.5750   21.8318 C   0  0  0  0  0  0  0  0  0  0  0  0
    6.5314    9.3550   22.7107 C   0  0  0  0  0  0  0  0  0  0  0  0
    7.9554    9.1580   23.1957 C   0  0  0  0  0  0  0  0  0  0  0  0
    5.7456    9.6077   23.8355 O   0  0  0  0  0  0  0  0  0  0  0  0
    5.7880   10.5607   24.1356 H   0  0  0  0  0  0  0  0  0  0  0  0
    5.1889    2.3889   22.5036 C   0  0  0  0  0  0  0  0  0  0  0  0
    5.4832    2.5157   23.9725 C   0  0  0  0  0  0  0  0  0  0  0  0
    4.2655    3.1768   24.1531 O   0  0  0  0  0  0  0  0  0  0  0  0
    3.7794    2.4644   23.0829 C   0  0  0  0  0  0  0  0  0  0  0  0
    3.5163    2.2790   17.2683 C   0  0  0  0  0  0  0  0  0  0  0  0
    3.1443    1.0592   16.7007 C   0  0  0  0  0  0  0  0  0  0  0  0
    2.5833    1.0004   15.4567 C   0  0  0  0  0  0  0  0  0  0  0  0
    2.3588    2.1346   14.7146 C   0  0  0  0  0  0  0  0  0  0  0  0
    2.7069    3.3983   15.2279 C   0  0  0  0  0  0  0  0  0  0  0  0
    3.2706    3.4278   16.4807 C   0  0  0  0  0  0  0  0  0  0  0  0
    2.5195    4.5808   14.4060 C   0  0  0  0  0  0  0  0  0  0  0  0
    1.6219    5.4021   14.8994 O   0  0  0  0  0  0  0  0  0  0  0  0
    3.1080    4.9832   13.2228 N   0  0  0  0  0  0  0  0  0  0  0  0
    4.2442    4.3967   12.5808 C   0  0  0  0  0  0  0  0  0  0  0  0
    2.5460    6.1695   12.5712 C   0  0  0  0  0  0  0  0  0  0  0  0
    1.7112    6.0779   11.4997 C   0  0  0  0  0  0  0  0  0  0  0  0
    1.1860    7.2116   10.8924 C   0  0  0  0  0  0  0  0  0  0  0  0
    1.5256    8.4083   11.3929 N   0  0  0  0  0  0  0  0  0  0  0  0
    2.3574    8.5140   12.4619 C   0  0  0  0  0  0  0  0  0  0  0  0
    2.8924    7.4012   13.0829 C   0  0  0  0  0  0  0  0  0  0  0  0
 15 16  1  0  0  0
 16 17  1  0  0  0
 16 18  1  0  0  0
 16 11  1  0  0  0
 11 12  2  0  0  0
 11 13  1  0  0  0
 13  5  1  0  0  0
  5  6  2  0  0  0
  6  7  1  0  0  0
  7 20  1  0  0  0
 20 21  1  0  0  0
 21 22  1  0  0  0
 22 23  1  0  0  0
  7  8  2  0  0  0
  8  9  1  0  0  0
  9 10  2  0  0  0
  8  1  1  0  0  0
  1  2  2  0  0  0
  1  3  1  0  0  0
  3 24  1  0  0  0
 24 25  2  0  0  0
 25 26  1  0  0  0
 26 27  2  0  0  0
 27 28  1  0  0  0
 28 29  2  0  0  0
 28 30  1  0  0  0
 30 31  2  0  0  0
 30 32  1  0  0  0
 32 33  1  0  0  0
 32 34  1  0  0  0
 34 35  2  0  0  0
 35 36  1  0  0  0
 36 37  2  0  0  0
 37 38  1  0  0  0
 38 39  2  0  0  0
 10  5  1  0  0  0
 29 24  1  0  0  0
 39 34  1  0  0  0
 23 20  1  0  0  0
 18 19  1  0  0  0
 13 14  1  0  0  0
  3  4  1  0  0  0
M  END
> <minimizedAffinity>
-9.42931

> <CNNscore>
0.2654769123

> <CNNaffinity>
6.3074240685

> <CNN_VS>
1.6744754314

> <CNNaffinity_variance>
0.1615497321

$$$$
[H]OC(C(=O)N([H])c1nc([H])c(C(=O)N([H])c2c([H])c([H])c([H])c(C(=O)N(c3c([H])c([H])nc([H])c3[H])C([H])([H])[H])c2[H])c(C2([H])C([H])([H])OC2([H])[H])c1[H])(C([H])([H])[H])C([H])([H])[H]


 39 42  0  0  0  0  0  0  0  0999 V2000
    3.6039    2.3278   17.0171 C   0  0  0  0  0  0  0  0  0  0  0  0
    3.9574    1.2287   17.5787 O   0  0  0  0  0  0  0  0  0  0  0  0
    3.1906    2.4406   15.7372 N   0  0  0  0  0  0  0  0  0  0  0  0
    3.6660    1.1637   15.4978 H   0  0  0  0  0  0  0  0  0  0  0  0
    3.9412    5.6313   19.5152 C   0  0  0  0  0  0  0  0  0  0  0  0
    4.4215    4.4043   19.9914 C   0  0  0  0  0  0  0  0  0  0  0  0
    4.2948    3.2806   19.1816 C   0  0  0  0  0  0  0  0  0  0  0  0
    3.7135    3.4543   17.9752 C   0  0  0  0  0  0  0  0  0  0  0  0
    3.2416    4.6721   17.5155 C   0  0  0  0  0  0  0  0  0  0  0  0
    3.3632    5.7575   18.3025 N   0  0  0  0  0  0  0  0  0  0  0  0
    5.2071    7.6188   20.2669 C   0  0  0  0  0  0  0  0  0  0  0  0
    6.0985    7.3739   19.4358 O   0  0  0  0  0  0  0  0  0  0  0  0
    4.0706    6.7750   20.3847 N   0  0  0  0  0  0  0  0  0  0  0  0
    3.3483    7.0021   21.0869 H   0  0  0  0  0  0  0  0  0  0  0  0
    4.9760   10.0973   20.4730 C   0  0  0  0  0  0  0  0  0  0  0  0
    5.3230    8.7984   21.1464 C   0  0  0  0  0  0  0  0  0  0  0  0
    6.7303    8.9408   21.6950 C   0  0  0  0  0  0  0  0  0  0  0  0
    4.4731    8.6162   22.2377 O   0  0  0  0  0  0  0  0  0  0  0  0
    4.2243    9.4744   22.6868 H   0  0  0  0  0  0  0  0  0  0  0  0
    4.6982    1.9811   19.6869 C   0  0  0  0  0  0  0  0  0  0  0  0
    5.6211    1.9637   20.8737 C   0  0  0  0  0  0  0  0  0  0  0  0
    4.5178    2.0623   21.7254 O   0  0  0  0  0  0  0  0  0  0  0  0
    3.7837    1.4077   20.7654 C   0  0  0  0  0  0  0  0  0  0  0  0
    2.7737    2.5402   14.4373 C   0  0  0  0  0  0  0  0  0  0  0  0
    1.6765    1.7961   14.0006 C   0  0  0  0  0  0  0  0  0  0  0  0
    1.3256    1.7623   12.6809 C   0  0  0  0  0  0  0  0  0  0  0  0
    2.0324    2.4588   11.7307 C   0  0  0  0  0  0  0  0  0  0  0  0
    3.1481    3.2325   12.1024 C   0  0  0  0  0  0  0  0  0  0  0  0
    3.4793    3.2473   13.4359 C   0  0  0  0  0  0  0  0  0  0  0  0
    3.9204    3.9129   11.0779 C   0  0  0  0  0  0  0  0  0  0  0  0
    4.2967    3.1084   10.1110 O   0  0  0  0  0  0  0  0  0  0  0  0
    4.3184    5.2292   10.9460 N   0  0  0  0  0  0  0  0  0  0  0  0
    3.8836    6.3449   11.7289 C   0  0  0  0  0  0  0  0  0  0  0  0
    5.2496    5.5355    9.8565 C   0  0  0  0  0  0  0  0  0  0  0  0
    4.8360    6.1055    8.6915 C   0  0  0  0  0  0  0  0  0  0  0  0
    5.7306    6.3902    7.6675 C   0  0  0  0  0  0  0  0  0  0  0  0
    7.0226    6.0863    7.8577 N   0  0  0  0  0  0  0  0  0  0  0  0
    7.4488    5.5175    9.0156 C   0  0  0  0  0  0  0  0  0  0  0  0
    6.5783    5.2249   10.0485 C   0  0  0  0  0  0  0  0  0  0  0  0
 15 16  1  0  0  0
 16 17  1  0  0  0
 16 18  1  0  0  0
 16 11  1  0  0  0
 11 12  2  0  0  0
 11 13  1  0  0  0
 13  5  1  0  0  0
  5  6  2  0  0  0
  6  7  1  0  0  0
  7 20  1  0  0  0
 20 21  1  0  0  0
 21 22  1  0  0  0
 22 23  1  0  0  0
  7  8  2  0  0  0
  8  9  1  0  0  0
  9 10  2  0  0  0
  8  1  1  0  0  0
  1  2  2  0  0  0
  1  3  1  0  0  0
  3 24  1  0  0  0
 24 25  2  0  0  0
 25 26  1  0  0  0
 26 27  2  0  0  0
 27 28  1  0  0  0
 28 29  2  0  0  0
 28 30  1  0  0  0
 30 31  2  0  0  0
 30 32  1  0  0  0
 32 33  1  0  0  0
 32 34  1  0  0  0
 34 35  2  0  0  0
 35 36  1  0  0  0
 36 37  2  0  0  0
 37 38  1  0  0  0
 38 39  2  0  0  0
 10  5  1  0  0  0
 29 24  1  0  0  0
 39 34  1  0  0  0
 23 20  1  0  0  0
 18 19  1  0  0  0
 13 14  1  0  0  0
  3  4  1  0  0  0
M  END
> <minimizedAffinity>
-8.82924

> <CNNscore>
0.2350104749

> <CNNaffinity>
6.2362680435

> <CNN_VS>
1.4655883312

> <CNNaffinity_variance>
0.2117637396

$$$$
[H]OC(C(=O)N([H])c1nc([H])c(C(=O)N([H])c2c([H])c([H])c([H])c(C(=O)N(c3c([H])c([H])nc([H])c3[H])C([H])([H])[H])c2[H])c(C2([H])C([H])([H])OC2([H])[H])c1[H])(C([H])([H])[H])C([H])([H])[H]


 39 42  0  0  0  0  0  0  0  0999 V2000
    2.8683    2.7299   16.3561 C   0  0  0  0  0  0  0  0  0  0  0  0
    2.8089    1.5319   16.8141 O   0  0  0  0  0  0  0  0  0  0  0  0
    2.6831    3.0703   15.0631 N   0  0  0  0  0  0  0  0  0  0  0  0
    2.7964    1.7345   14.7217 H   0  0  0  0  0  0  0  0  0  0  0  0
    3.7044    5.5833   19.2589 C   0  0  0  0  0  0  0  0  0  0  0  0
    4.2539    4.3053   19.4261 C   0  0  0  0  0  0  0  0  0  0  0  0
    3.9653    3.3279   18.4795 C   0  0  0  0  0  0  0  0  0  0  0  0
    3.1681    3.6852   17.4498 C   0  0  0  0  0  0  0  0  0  0  0  0
    2.6299    4.9516   17.2955 C   0  0  0  0  0  0  0  0  0  0  0  0
    2.9089    5.8949   18.2145 N   0  0  0  0  0  0  0  0  0  0  0  0
    4.9897    7.5616   20.0016 C   0  0  0  0  0  0  0  0  0  0  0  0
    5.6028    7.5778   18.9204 O   0  0  0  0  0  0  0  0  0  0  0  0
    4.0071    6.5706   20.2660 N   0  0  0  0  0  0  0  0  0  0  0  0
    3.5168    6.5806   21.1748 H   0  0  0  0  0  0  0  0  0  0  0  0
    5.0598    9.9940   20.5653 C   0  0  0  0  0  0  0  0  0  0  0  0
    5.2799    8.5807   21.0291 C   0  0  0  0  0  0  0  0  0  0  0  0
    6.7161    8.4859   21.5092 C   0  0  0  0  0  0  0  0  0  0  0  0
    4.4612    8.3362   22.1320 O   0  0  0  0  0  0  0  0  0  0  0  0
    4.3338    9.1420   22.7103 H   0  0  0  0  0  0  0  0  0  0  0  0
    4.4440    1.9720   18.6773 C   0  0  0  0  0  0  0  0  0  0  0  0
    5.3742    1.7356   19.8346 C   0  0  0  0  0  0  0  0  0  0  0  0
    4.2727    1.5753   20.6793 O   0  0  0  0  0  0  0  0  0  0  0  0
    3.5701    1.1172   19.5905 C   0  0  0  0  0  0  0  0  0  0  0  0
    2.4933    3.4009   13.7486 C   0  0  0  0  0  0  0  0  0  0  0  0
    3.5939    3.5428   12.9019 C   0  0  0  0  0  0  0  0  0  0  0  0
    3.4490    4.0111   11.6269 C   0  0  0  0  0  0  0  0  0  0  0  0
    2.2186    4.3582   11.1237 C   0  0  0  0  0  0  0  0  0  0  0  0
    1.0658    4.2366   11.9224 C   0  0  0  0  0  0  0  0  0  0  0  0
    1.2409    3.7644   13.2009 C   0  0  0  0  0  0  0  0  0  0  0  0
   -0.2179    4.6655   11.3959 C   0  0  0  0  0  0  0  0  0  0  0  0
   -0.6207    5.8038   11.9114 O   0  0  0  0  0  0  0  0  0  0  0  0
   -1.0692    4.0979   10.4678 N   0  0  0  0  0  0  0  0  0  0  0  0
   -0.7935    2.9866    9.6098 C   0  0  0  0  0  0  0  0  0  0  0  0
   -2.3830    4.7255   10.3004 C   0  0  0  0  0  0  0  0  0  0  0  0
   -3.4261    4.4503   11.1308 C   0  0  0  0  0  0  0  0  0  0  0  0
   -4.6659    5.0533   10.9597 C   0  0  0  0  0  0  0  0  0  0  0  0
   -4.8098    5.9203    9.9470 N   0  0  0  0  0  0  0  0  0  0  0  0
   -3.7770    6.2041    9.1111 C   0  0  0  0  0  0  0  0  0  0  0  0
   -2.5347    5.6173    9.2610 C   0  0  0  0  0  0  0  0  0  0  0  0
 15 16  1  0  0  0
 16 17  1  0  0  0
 16 18  1  0  0  0
 16 11  1  0  0  0
 11 12  2  0  0  0
 11 13  1  0  0  0
 13  5  1  0  0  0
  5  6  2  0  0  0
  6  7  1  0  0  0
  7 20  1  0  0  0
 20 21  1  0  0  0
 21 22  1  0  0  0
 22 23  1  0  0  0
  7  8  2  0  0  0
  8  9  1  0  0  0
  9 10  2  0  0  0
  8  1  1  0  0  0
  1  2  2  0  0  0
  1  3  1  0  0  0
  3 24  1  0  0  0
 24 25  2  0  0  0
 25 26  1  0  0  0
 26 27  2  0  0  0
 27 28  1  0  0  0
 28 29  2  0  0  0
 28 30  1  0  0  0
 30 31  2  0  0  0
 30 32  1  0  0  0
 32 33  1  0  0  0
 32 34  1  0  0  0
 34 35  2  0  0  0
 35 36  1  0  0  0
 36 37  2  0  0  0
 37 38  1  0  0  0
 38 39  2  0  0  0
 10  5  1  0  0  0
 29 24  1  0  0  0
 39 34  1  0  0  0
 23 20  1  0  0  0
 18 19  1  0  0  0
 13 14  1  0  0  0
  3  4  1  0  0  0
M  END
> <minimizedAffinity>
-8.48107

> <CNNscore>
0.2278683335

> <CNNaffinity>
6.1066384315

> <CNN_VS>
1.3915095329

> <CNNaffinity_variance>
0.3450104594

$$$$
[H]OC(C(=O)N([H])c1nc([H])c(C(=O)N([H])c2c([H])c([H])c([H])c(C(=O)N(c3c([H])c([H])nc([H])c3[H])C([H])([H])[H])c2[H])c(C2([H])C([H])([H])OC2([H])[H])c1[H])(C([H])([H])[H])C([H])([H])[H]


 39 42  0  0  0  0  0  0  0  0999 V2000
    3.1890    5.6320   17.3954 C   0  0  0  0  0  0  0  0  0  0  0  0
    2.0858    5.1101   17.7943 O   0  0  0  0  0  0  0  0  0  0  0  0
    3.4739    5.9453   16.1138 N   0  0  0  0  0  0  0  0  0  0  0  0
    2.3808    5.1973   15.7147 H   0  0  0  0  0  0  0  0  0  0  0  0
    5.6950    6.0021   20.6894 C   0  0  0  0  0  0  0  0  0  0  0  0
    5.0690    7.1624   20.2150 C   0  0  0  0  0  0  0  0  0  0  0  0
    4.2465    7.0653   19.0977 C   0  0  0  0  0  0  0  0  0  0  0  0
    4.1040    5.8423   18.5432 C   0  0  0  0  0  0  0  0  0  0  0  0
    4.7287    4.7025   19.0204 C   0  0  0  0  0  0  0  0  0  0  0  0
    5.5263    4.7999   20.1005 N   0  0  0  0  0  0  0  0  0  0  0  0
    7.8960    6.5737   21.6621 C   0  0  0  0  0  0  0  0  0  0  0  0
    8.3400    6.8238   20.5283 O   0  0  0  0  0  0  0  0  0  0  0  0
    6.5560    6.1375   21.8389 N   0  0  0  0  0  0  0  0  0  0  0  0
    6.2166    5.9339   22.7927 H   0  0  0  0  0  0  0  0  0  0  0  0
    8.3726    7.8681   23.7446 C   0  0  0  0  0  0  0  0  0  0  0  0
    8.7652    6.7290   22.8450 C   0  0  0  0  0  0  0  0  0  0  0  0
   10.2101    6.9550   22.4414 C   0  0  0  0  0  0  0  0  0  0  0  0
    8.7241    5.5423   23.5774 O   0  0  0  0  0  0  0  0  0  0  0  0
    8.9850    5.6649   24.5350 H   0  0  0  0  0  0  0  0  0  0  0  0
    3.6607    8.2658   18.5297 C   0  0  0  0  0  0  0  0  0  0  0  0
    3.7829    9.5326   19.3300 C   0  0  0  0  0  0  0  0  0  0  0  0
    5.0408    9.7605   18.7658 O   0  0  0  0  0  0  0  0  0  0  0  0
    4.6073    9.0802   17.6529 C   0  0  0  0  0  0  0  0  0  0  0  0
    3.7493    6.2577   14.8100 C   0  0  0  0  0  0  0  0  0  0  0  0
    4.0260    7.5791   14.4555 C   0  0  0  0  0  0  0  0  0  0  0  0
    4.1616    7.9462   13.1469 C   0  0  0  0  0  0  0  0  0  0  0  0
    4.0354    7.0341   12.1272 C   0  0  0  0  0  0  0  0  0  0  0  0
    3.7601    5.6836   12.4139 C   0  0  0  0  0  0  0  0  0  0  0  0
    3.6273    5.3427   13.7383 C   0  0  0  0  0  0  0  0  0  0  0  0
    3.5692    4.7451   11.3223 C   0  0  0  0  0  0  0  0  0  0  0  0
    2.3022    4.5525   11.0372 O   0  0  0  0  0  0  0  0  0  0  0  0
    4.4680    4.0364   10.5487 N   0  0  0  0  0  0  0  0  0  0  0  0
    5.8878    4.2058   10.5017 C   0  0  0  0  0  0  0  0  0  0  0  0
    3.9124    3.0330    9.6364 C   0  0  0  0  0  0  0  0  0  0  0  0
    3.4951    1.8126   10.0722 C   0  0  0  0  0  0  0  0  0  0  0  0
    2.9704    0.8715    9.1953 C   0  0  0  0  0  0  0  0  0  0  0  0
    2.8850    1.1988    7.8979 N   0  0  0  0  0  0  0  0  0  0  0  0
    3.2974    2.4133    7.4496 C   0  0  0  0  0  0  0  0  0  0  0  0
    3.8226    3.3658    8.3022 C   0  0  0  0  0  0  0  0  0  0  0  0
 15 16  1  0  0  0
 16 17  1  0  0  0
 16 18  1  0  0  0
 16 11  1  0  0  0
 11 12  2  0  0  0
 11 13  1  0  0  0
 13  5  1  0  0  0
  5  6  2  0  0  0
  6  7  1  0  0  0
  7 20  1  0  0  0
 20 21  1  0  0  0
 21 22  1  0  0  0
 22 23  1  0  0  0
  7  8  2  0  0  0
  8  9  1  0  0  0
  9 10  2  0  0  0
  8  1  1  0  0  0
  1  2  2  0  0  0
  1  3  1  0  0  0
  3 24  1  0  0  0
 24 25  2  0  0  0
 25 26  1  0  0  0
 26 27  2  0  0  0
 27 28  1  0  0  0
 28 29  2  0  0  0
 28 30  1  0  0  0
 30 31  2  0  0  0
 30 32  1  0  0  0
 32 33  1  0  0  0
 32 34  1  0  0  0
 34 35  2  0  0  0
 35 36  1  0  0  0
 36 37  2  0  0  0
 37 38  1  0  0  0
 38 39  2  0  0  0
 10  5  1  0  0  0
 29 24  1  0  0  0
 39 34  1  0  0  0
 23 20  1  0  0  0
 18 19  1  0  0  0
 13 14  1  0  0  0
  3  4  1  0  0  0
M  END
> <minimizedAffinity>
-6.89044

> <CNNscore>
0.2153841704

> <CNNaffinity>
5.6137528419

> <CNN_VS>
1.2091134787

> <CNNaffinity_variance>
0.7155153155

$$$$
[H]OC(C(=O)N([H])c1nc([H])c(C(=O)N([H])c2c([H])c([H])c([H])c(C(=O)N(c3c([H])c([H])nc([H])c3[H])C([H])([H])[H])c2[H])c(C2([H])C([H])([H])OC2([H])[H])c1[H])(C([H])([H])[H])C([H])([H])[H]


 39 42  0  0  0  0  0  0  0  0999 V2000
    3.4012    2.7506   15.0092 C   0  0  0  0  0  0  0  0  0  0  0  0
    3.3201    1.6440   14.3632 O   0  0  0  0  0  0  0  0  0  0  0  0
    3.2173    3.9735   14.4683 N   0  0  0  0  0  0  0  0  0  0  0  0
    3.3030    3.4024   13.2112 H   0  0  0  0  0  0  0  0  0  0  0  0
    4.0948    1.9195   19.0211 C   0  0  0  0  0  0  0  0  0  0  0  0
    4.6296    3.1054   18.5009 C   0  0  0  0  0  0  0  0  0  0  0  0
    4.4313    3.3901   17.1540 C   0  0  0  0  0  0  0  0  0  0  0  0
    3.7242    2.4933   16.4334 C   0  0  0  0  0  0  0  0  0  0  0  0
    3.2011    1.3238   16.9584 C   0  0  0  0  0  0  0  0  0  0  0  0
    3.3968    1.0495   18.2617 N   0  0  0  0  0  0  0  0  0  0  0  0
    4.2389    2.6966   21.3648 C   0  0  0  0  0  0  0  0  0  0  0  0
    3.9723    3.8559   21.0040 O   0  0  0  0  0  0  0  0  0  0  0  0
    4.3320    1.6430   20.4169 N   0  0  0  0  0  0  0  0  0  0  0  0
    4.5587    0.6908   20.7462 H   0  0  0  0  0  0  0  0  0  0  0  0
    4.0199    3.5010   23.7194 C   0  0  0  0  0  0  0  0  0  0  0  0
    4.4634    2.4023   22.7936 C   0  0  0  0  0  0  0  0  0  0  0  0
    5.9307    2.1420   23.0788 C   0  0  0  0  0  0  0  0  0  0  0  0
    3.7693    1.2355   23.1147 O   0  0  0  0  0  0  0  0  0  0  0  0
    3.5769    1.1518   24.0925 H   0  0  0  0  0  0  0  0  0  0  0  0
    5.0531    4.5636   16.5681 C   0  0  0  0  0  0  0  0  0  0  0  0
    4.5831    5.9049   17.0583 C   0  0  0  0  0  0  0  0  0  0  0  0
    5.4924    5.8298   18.1167 O   0  0  0  0  0  0  0  0  0  0  0  0
    6.2926    5.0604   17.3063 C   0  0  0  0  0  0  0  0  0  0  0  0
    3.0286    5.2072   13.9063 C   0  0  0  0  0  0  0  0  0  0  0  0
    2.0819    6.0793   14.4462 C   0  0  0  0  0  0  0  0  0  0  0  0
    1.7681    7.2546   13.8249 C   0  0  0  0  0  0  0  0  0  0  0  0
    2.3706    7.6293   12.6483 C   0  0  0  0  0  0  0  0  0  0  0  0
    3.3371    6.7985   12.0505 C   0  0  0  0  0  0  0  0  0  0  0  0
    3.6321    5.6220   12.6962 C   0  0  0  0  0  0  0  0  0  0  0  0
    3.9190    7.1803   10.7760 C   0  0  0  0  0  0  0  0  0  0  0  0
    5.1794    7.5327   10.8813 O   0  0  0  0  0  0  0  0  0  0  0  0
    3.3899    7.2355    9.5011 N   0  0  0  0  0  0  0  0  0  0  0  0
    2.1274    6.7206    9.0676 C   0  0  0  0  0  0  0  0  0  0  0  0
    4.2257    7.8412    8.4607 C   0  0  0  0  0  0  0  0  0  0  0  0
    4.1726    9.1711    8.1747 C   0  0  0  0  0  0  0  0  0  0  0  0
    4.9713    9.7310    7.1855 C   0  0  0  0  0  0  0  0  0  0  0  0
    5.8025    8.9211    6.5141 N   0  0  0  0  0  0  0  0  0  0  0  0
    5.8657    7.5921    6.7896 C   0  0  0  0  0  0  0  0  0  0  0  0
    5.0815    7.0120    7.7687 C   0  0  0  0  0  0  0  0  0  0  0  0
 15 16  1  0  0  0
 16 17  1  0  0  0
 16 18  1  0  0  0
 16 11  1  0  0  0
 11 12  2  0  0  0
 11 13  1  0  0  0
 13  5  1  0  0  0
  5  6  2  0  0  0
  6  7  1  0  0  0
  7 20  1  0  0  0
 20 21  1  0  0  0
 21 22  1  0  0  0
 22 23  1  0  0  0
  7  8  2  0  0  0
  8  9  1  0  0  0
  9 10  2  0  0  0
  8  1  1  0  0  0
  1  2  2  0  0  0
  1  3  1  0  0  0
  3 24  1  0  0  0
 24 25  2  0  0  0
 25 26  1  0  0  0
 26 27  2  0  0  0
 27 28  1  0  0  0
 28 29  2  0  0  0
 28 30  1  0  0  0
 30 31  2  0  0  0
 30 32  1  0  0  0
 32 33  1  0  0  0
 32 34  1  0  0  0
 34 35  2  0  0  0
 35 36  1  0  0  0
 36 37  2  0  0  0
 37 38  1  0  0  0
 38 39  2  0  0  0
 10  5  1  0  0  0
 29 24  1  0  0  0
 39 34  1  0  0  0
 23 20  1  0  0  0
 18 19  1  0  0  0
 13 14  1  0  0  0
  3  4  1  0  0  0
M  END
> <minimizedAffinity>
-7.93618

> <CNNscore>
0.2036022544

> <CNNaffinity>
5.7756471634

> <CNN_VS>
1.1759347916

> <CNNaffinity_variance>
0.4132951200

$$$$
[H]OC(C(=O)N([H])c1nc([H])c(C(=O)N([H])c2c([H])c([H])c([H])c(C(=O)N(c3c([H])c([H])nc([H])c3[H])C([H])([H])[H])c2[H])c(C2([H])C([H])([H])OC2([H])[H])c1[H])(C([H])([H])[H])C([H])([H])[H]


 39 42  0  0  0  0  0  0  0  0999 V2000
    5.0794    2.7785   19.7256 C   0  0  0  0  0  0  0  0  0  0  0  0
    5.6729    1.8560   20.3929 O   0  0  0  0  0  0  0  0  0  0  0  0
    4.4431    2.5910   18.5501 N   0  0  0  0  0  0  0  0  0  0  0  0
    5.0442    1.3489   18.4520 H   0  0  0  0  0  0  0  0  0  0  0  0
    5.6093    6.4492   21.5998 C   0  0  0  0  0  0  0  0  0  0  0  0
    4.8843    5.4668   22.2872 C   0  0  0  0  0  0  0  0  0  0  0  0
    4.6731    4.2399   21.6671 C   0  0  0  0  0  0  0  0  0  0  0  0
    5.1920    4.0780   20.4310 C   0  0  0  0  0  0  0  0  0  0  0  0
    5.9062    5.0568   19.7609 C   0  0  0  0  0  0  0  0  0  0  0  0
    6.1069    6.2442   20.3624 N   0  0  0  0  0  0  0  0  0  0  0  0
    6.9573    7.9293   23.0523 C   0  0  0  0  0  0  0  0  0  0  0  0
    7.8037    7.0301   23.1948 O   0  0  0  0  0  0  0  0  0  0  0  0
    5.7969    7.7174   22.2612 N   0  0  0  0  0  0  0  0  0  0  0  0
    5.1096    8.4820   22.1643 H   0  0  0  0  0  0  0  0  0  0  0  0
    6.8782   10.4147   22.8170 C   0  0  0  0  0  0  0  0  0  0  0  0
    7.1523    9.2363   23.7098 C   0  0  0  0  0  0  0  0  0  0  0  0
    8.5706    9.3871   24.2269 C   0  0  0  0  0  0  0  0  0  0  0  0
    6.3031    9.3016   24.8148 O   0  0  0  0  0  0  0  0  0  0  0  0
    6.1106   10.2390   25.1048 H   0  0  0  0  0  0  0  0  0  0  0  0
    3.8468    3.2389   22.3168 C   0  0  0  0  0  0  0  0  0  0  0  0
    4.5358    2.2820   23.2496 C   0  0  0  0  0  0  0  0  0  0  0  0
    4.4031    3.2080   24.2877 O   0  0  0  0  0  0  0  0  0  0  0  0
    3.2692    3.6686   23.6622 C   0  0  0  0  0  0  0  0  0  0  0  0
    3.8017    2.3862   17.3584 C   0  0  0  0  0  0  0  0  0  0  0  0
    3.2559    1.1345   17.0692 C   0  0  0  0  0  0  0  0  0  0  0  0
    2.7390    0.8568   15.8357 C   0  0  0  0  0  0  0  0  0  0  0  0
    2.7310    1.7944   14.8315 C   0  0  0  0  0  0  0  0  0  0  0  0
    3.2623    3.0785   15.0561 C   0  0  0  0  0  0  0  0  0  0  0  0
    3.7768    3.3299   16.3052 C   0  0  0  0  0  0  0  0  0  0  0  0
    3.3016    4.0372   13.9660 C   0  0  0  0  0  0  0  0  0  0  0  0
    4.1445    3.6927   13.0202 O   0  0  0  0  0  0  0  0  0  0  0  0
    2.6216    5.2211   13.7552 N   0  0  0  0  0  0  0  0  0  0  0  0
    1.5128    5.7250   14.5060 C   0  0  0  0  0  0  0  0  0  0  0  0
    3.0415    6.0334   12.6100 C   0  0  0  0  0  0  0  0  0  0  0  0
    4.1521    6.8197   12.6504 C   0  0  0  0  0  0  0  0  0  0  0  0
    4.5377    7.5843   11.5565 C   0  0  0  0  0  0  0  0  0  0  0  0
    3.7815    7.5276   10.4508 N   0  0  0  0  0  0  0  0  0  0  0  0
    2.6708    6.7468   10.3969 C   0  0  0  0  0  0  0  0  0  0  0  0
    2.2669    5.9775   11.4716 C   0  0  0  0  0  0  0  0  0  0  0  0
 15 16  1  0  0  0
 16 17  1  0  0  0
 16 18  1  0  0  0
 16 11  1  0  0  0
 11 12  2  0  0  0
 11 13  1  0  0  0
 13  5  1  0  0  0
  5  6  2  0  0  0
  6  7  1  0  0  0
  7 20  1  0  0  0
 20 21  1  0  0  0
 21 22  1  0  0  0
 22 23  1  0  0  0
  7  8  2  0  0  0
  8  9  1  0  0  0
  9 10  2  0  0  0
  8  1  1  0  0  0
  1  2  2  0  0  0
  1  3  1  0  0  0
  3 24  1  0  0  0
 24 25  2  0  0  0
 25 26  1  0  0  0
 26 27  2  0  0  0
 27 28  1  0  0  0
 28 29  2  0  0  0
 28 30  1  0  0  0
 30 31  2  0  0  0
 30 32  1  0  0  0
 32 33  1  0  0  0
 32 34  1  0  0  0
 34 35  2  0  0  0
 35 36  1  0  0  0
 36 37  2  0  0  0
 37 38  1  0  0  0
 38 39  2  0  0  0
 10  5  1  0  0  0
 29 24  1  0  0  0
 39 34  1  0  0  0
 23 20  1  0  0  0
 18 19  1  0  0  0
 13 14  1  0  0  0
  3  4  1  0  0  0
M  END
> <minimizedAffinity>
-9.23206

> <CNNscore>
0.1673521101

> <CNNaffinity>
6.0870027542

> <CNN_VS>
1.0186727047

> <CNNaffinity_variance>
0.1420722157

$$$$
[H]OC(C(=O)N([H])c1nc([H])c(C(=O)N([H])c2c([H])c([H])c([H])c(C(=O)N(c3c([H])c([H])nc([H])c3[H])C([H])([H])[H])c2[H])c(C2([H])C([H])([H])OC2([H])[H])c1[H])(C([H])([H])[H])C([H])([H])[H]


 39 42  0  0  0  0  0  0  0  0999 V2000
    2.2508    3.6598   14.3094 C   0  0  0  0  0  0  0  0  0  0  0  0
    1.3693    2.7289   14.2397 O   0  0  0  0  0  0  0  0  0  0  0  0
    2.8127    4.2698   13.2444 N   0  0  0  0  0  0  0  0  0  0  0  0
    2.2996    3.2725   12.4346 H   0  0  0  0  0  0  0  0  0  0  0  0
    3.1463    4.7576   18.2158 C   0  0  0  0  0  0  0  0  0  0  0  0
    3.5631    3.4914   17.7844 C   0  0  0  0  0  0  0  0  0  0  0  0
    3.2509    3.0938   16.4886 C   0  0  0  0  0  0  0  0  0  0  0  0
    2.5620    3.9695   15.7257 C   0  0  0  0  0  0  0  0  0  0  0  0
    2.1544    5.2182   16.1633 C   0  0  0  0  0  0  0  0  0  0  0  0
    2.4557    5.5994   17.4188 N   0  0  0  0  0  0  0  0  0  0  0  0
    4.5639    6.0070   19.8116 C   0  0  0  0  0  0  0  0  0  0  0  0
    5.2562    6.4351   18.8721 O   0  0  0  0  0  0  0  0  0  0  0  0
    3.4693    5.1348   19.5701 N   0  0  0  0  0  0  0  0  0  0  0  0
    2.9147    4.7926   20.3712 H   0  0  0  0  0  0  0  0  0  0  0  0
    6.3414    6.3519   21.5323 C   0  0  0  0  0  0  0  0  0  0  0  0
    4.8762    6.4044   21.1984 C   0  0  0  0  0  0  0  0  0  0  0  0
    4.1571    5.5207   22.2002 C   0  0  0  0  0  0  0  0  0  0  0  0
    4.4162    7.7068   21.3949 O   0  0  0  0  0  0  0  0  0  0  0  0
    4.8736    8.1726   22.1524 H   0  0  0  0  0  0  0  0  0  0  0  0
    3.5883    1.7528   16.0472 C   0  0  0  0  0  0  0  0  0  0  0  0
    4.3358    0.8800   17.0166 C   0  0  0  0  0  0  0  0  0  0  0  0
    3.1233    0.4919   17.5926 O   0  0  0  0  0  0  0  0  0  0  0  0
    2.5355    0.6958   16.3670 C   0  0  0  0  0  0  0  0  0  0  0  0
    3.3745    4.8794   12.1554 C   0  0  0  0  0  0  0  0  0  0  0  0
    4.7569    4.8308   11.9680 C   0  0  0  0  0  0  0  0  0  0  0  0
    5.3611    5.5480   10.9748 C   0  0  0  0  0  0  0  0  0  0  0  0
    4.6372    6.3423   10.1188 C   0  0  0  0  0  0  0  0  0  0  0  0
    3.2386    6.4347   10.2491 C   0  0  0  0  0  0  0  0  0  0  0  0
    2.6575    5.7040   11.2573 C   0  0  0  0  0  0  0  0  0  0  0  0
    2.4960    7.3260    9.3756 C   0  0  0  0  0  0  0  0  0  0  0  0
    1.8819    8.2822   10.0331 O   0  0  0  0  0  0  0  0  0  0  0  0
    2.3276    7.3431    8.0045 N   0  0  0  0  0  0  0  0  0  0  0  0
    3.0350    6.5604    7.0382 C   0  0  0  0  0  0  0  0  0  0  0  0
    1.3559    8.2993    7.4667 C   0  0  0  0  0  0  0  0  0  0  0  0
    0.0668    7.9490    7.2044 C   0  0  0  0  0  0  0  0  0  0  0  0
   -0.8432    8.8667    6.6946 C   0  0  0  0  0  0  0  0  0  0  0  0
   -0.4154   10.1165    6.4654 N   0  0  0  0  0  0  0  0  0  0  0  0
    0.8683   10.4795    6.7229 C   0  0  0  0  0  0  0  0  0  0  0  0
    1.7917    9.5850    7.2300 C   0  0  0  0  0  0  0  0  0  0  0  0
 15 16  1  0  0  0
 16 17  1  0  0  0
 16 18  1  0  0  0
 16 11  1  0  0  0
 11 12  2  0  0  0
 11 13  1  0  0  0
 13  5  1  0  0  0
  5  6  2  0  0  0
  6  7  1  0  0  0
  7 20  1  0  0  0
 20 21  1  0  0  0
 21 22  1  0  0  0
 22 23  1  0  0  0
  7  8  2  0  0  0
  8  9  1  0  0  0
  9 10  2  0  0  0
  8  1  1  0  0  0
  1  2  2  0  0  0
  1  3  1  0  0  0
  3 24  1  0  0  0
 24 25  2  0  0  0
 25 26  1  0  0  0
 26 27  2  0  0  0
 27 28  1  0  0  0
 28 29  2  0  0  0
 28 30  1  0  0  0
 30 31  2  0  0  0
 30 32  1  0  0  0
 32 33  1  0  0  0
 32 34  1  0  0  0
 34 35  2  0  0  0
 35 36  1  0  0  0
 36 37  2  0  0  0
 37 38  1  0  0  0
 38 39  2  0  0  0
 10  5  1  0  0  0
 29 24  1  0  0  0
 39 34  1  0  0  0
 23 20  1  0  0  0
 18 19  1  0  0  0
 13 14  1  0  0  0
  3  4  1  0  0  0
M  END
> <minimizedAffinity>
-7.51404

> <CNNscore>
0.1395278424

> <CNNaffinity>
5.6062650681

> <CNN_VS>
0.7822300792

> <CNNaffinity_variance>
0.1005483121

$$$$
[H]OC(C(=O)N([H])c1nc([H])c(C(=O)N([H])c2c([H])c([H])c([H])c(C(=O)N(c3c([H])c([H])nc([H])c3[H])C([H])([H])[H])c2[H])c(C2([H])C([H])([H])OC2([H])[H])c1[H])(C([H])([H])[H])C([H])([H])[H]


 39 42  0  0  0  0  0  0  0  0999 V2000
    3.4102    4.6487   12.8133 C   0  0  0  0  0  0  0  0  0  0  0  0
    2.7480    5.7486   12.8299 O   0  0  0  0  0  0  0  0  0  0  0  0
    3.3987    3.7278   13.8000 N   0  0  0  0  0  0  0  0  0  0  0  0
    2.7939    4.6579   14.6264 H   0  0  0  0  0  0  0  0  0  0  0  0
    5.6731    4.5495    9.3296 C   0  0  0  0  0  0  0  0  0  0  0  0
    4.4542    3.8585    9.3330 C   0  0  0  0  0  0  0  0  0  0  0  0
    3.6934    3.8573   10.4974 C   0  0  0  0  0  0  0  0  0  0  0  0
    4.1878    4.5345   11.5559 C   0  0  0  0  0  0  0  0  0  0  0  0
    5.3946    5.2132   11.5410 C   0  0  0  0  0  0  0  0  0  0  0  0
    6.1301    5.2105   10.4135 N   0  0  0  0  0  0  0  0  0  0  0  0
    7.3549    3.4480    7.8888 C   0  0  0  0  0  0  0  0  0  0  0  0
    7.5004    2.5486    8.7345 O   0  0  0  0  0  0  0  0  0  0  0  0
    6.4482    4.5180    8.1134 N   0  0  0  0  0  0  0  0  0  0  0  0
    6.3515    5.2525    7.3940 H   0  0  0  0  0  0  0  0  0  0  0  0
    7.6555    2.3744    5.6536 C   0  0  0  0  0  0  0  0  0  0  0  0
    8.1299    3.4118    6.6332 C   0  0  0  0  0  0  0  0  0  0  0  0
    9.5981    3.1374    6.8995 C   0  0  0  0  0  0  0  0  0  0  0  0
    8.0493    4.6684    6.0324 O   0  0  0  0  0  0  0  0  0  0  0  0
    8.2354    4.6445    5.0502 H   0  0  0  0  0  0  0  0  0  0  0  0
    2.4736    3.0730   10.5582 C   0  0  0  0  0  0  0  0  0  0  0  0
    2.0677    2.3392    9.3104 C   0  0  0  0  0  0  0  0  0  0  0  0
    2.8900    1.2710    9.6783 O   0  0  0  0  0  0  0  0  0  0  0  0
    2.6723    1.6228   10.9891 C   0  0  0  0  0  0  0  0  0  0  0  0
    3.3777    2.8027   14.8086 C   0  0  0  0  0  0  0  0  0  0  0  0
    2.6660    1.6131   14.6456 C   0  0  0  0  0  0  0  0  0  0  0  0
    2.5060    0.7376   15.6818 C   0  0  0  0  0  0  0  0  0  0  0  0
    3.0391    0.9873   16.9232 C   0  0  0  0  0  0  0  0  0  0  0  0
    3.7715    2.1667   17.1562 C   0  0  0  0  0  0  0  0  0  0  0  0
    3.9156    3.0298   16.0969 C   0  0  0  0  0  0  0  0  0  0  0  0
    4.2756    2.4441   18.4896 C   0  0  0  0  0  0  0  0  0  0  0  0
    5.0373    1.4802   18.9526 O   0  0  0  0  0  0  0  0  0  0  0  0
    4.0980    3.5213   19.3361 N   0  0  0  0  0  0  0  0  0  0  0  0
    3.4987    4.7805   19.0166 C   0  0  0  0  0  0  0  0  0  0  0  0
    4.6214    3.3886   20.6986 C   0  0  0  0  0  0  0  0  0  0  0  0
    4.0406    2.5711   21.6192 C   0  0  0  0  0  0  0  0  0  0  0  0
    4.5483    2.4556   22.9072 C   0  0  0  0  0  0  0  0  0  0  0  0
    5.6340    3.1763   23.2228 N   0  0  0  0  0  0  0  0  0  0  0  0
    6.2237    3.9958   22.3136 C   0  0  0  0  0  0  0  0  0  0  0  0
    5.7374    4.1275   21.0266 C   0  0  0  0  0  0  0  0  0  0  0  0
 15 16  1  0  0  0
 16 17  1  0  0  0
 16 18  1  0  0  0
 16 11  1  0  0  0
 11 12  2  0  0  0
 11 13  1  0  0  0
 13  5  1  0  0  0
  5  6  2  0  0  0
  6  7  1  0  0  0
  7 20  1  0  0  0
 20 21  1  0  0  0
 21 22  1  0  0  0
 22 23  1  0  0  0
  7  8  2  0  0  0
  8  9  1  0  0  0
  9 10  2  0  0  0
  8  1  1  0  0  0
  1  2  2  0  0  0
  1  3  1  0  0  0
  3 24  1  0  0  0
 24 25  2  0  0  0
 25 26  1  0  0  0
 26 27  2  0  0  0
 27 28  1  0  0  0
 28 29  2  0  0  0
 28 30  1  0  0  0
 30 31  2  0  0  0
 30 32  1  0  0  0
 32 33  1  0  0  0
 32 34  1  0  0  0
 34 35  2  0  0  0
 35 36  1  0  0  0
 36 37  2  0  0  0
 37 38  1  0  0  0
 38 39  2  0  0  0
 10  5  1  0  0  0
 29 24  1  0  0  0
 39 34  1  0  0  0
 23 20  1  0  0  0
 18 19  1  0  0  0
 13 14  1  0  0  0
  3  4  1  0  0  0
M  END
> <minimizedAffinity>
-7.14809

> <CNNscore>
0.1353358179

> <CNNaffinity>
5.8064122200

> <CNN_VS>
0.7858155370

> <CNNaffinity_variance>
0.2644019425

$$$$
[H]OC([H])([H])C(c1c([H])nc([H])c(-c2c([H])nc3c(c2[H])c(-c2c([H])nc(N([H])C(=O)[C@]([H])(c4c([H])c([H])c([H])c([H])c4[H])C([H])([H])[H])c(Cl)c2[H])c([H])n3[H])c1[H])(C([H])([H])[H])C([H])([H])[H]


 41 45  0  0  0  0  0  0  0  0999 V2000
    3.1709    1.6363   16.7304 C   0  0  0  0  0  0  0  0  0  0  0  0
    2.4796    0.4259   16.5580 C   0  0  0  0  0  0  0  0  0  0  0  0
    2.2851   -0.4583   17.5373 N   0  0  0  0  0  0  0  0  0  0  0  0
    2.7551   -0.2252   18.7660 C   0  0  0  0  0  0  0  0  0  0  0  0
    2.7258   -0.8909   19.9421 N   0  0  0  0  0  0  0  0  0  0  0  0
    3.3572   -0.2041   20.8916 C   0  0  0  0  0  0  0  0  0  0  0  0
    3.8368    0.9905   20.3191 C   0  0  0  0  0  0  0  0  0  0  0  0
    3.4626    0.9608   19.0254 C   0  0  0  0  0  0  0  0  0  0  0  0
    3.6606    1.8866   17.9834 C   0  0  0  0  0  0  0  0  0  0  0  0
    2.2556   -1.8366   20.0660 H   0  0  0  0  0  0  0  0  0  0  0  0
    4.6291    1.9805   21.0418 C   0  0  0  0  0  0  0  0  0  0  0  0
    5.9758    1.7405   21.3180 C   0  0  0  0  0  0  0  0  0  0  0  0
    6.6809    2.7161   21.8856 N   0  0  0  0  0  0  0  0  0  0  0  0
    6.1948    3.9329   22.2175 C   0  0  0  0  0  0  0  0  0  0  0  0
    4.8711    4.1807   21.9519 C   0  0  0  0  0  0  0  0  0  0  0  0
    4.1520    5.7471   22.3689 Cl  0  0  0  0  0  0  0  0  0  0  0  0
    4.1079    3.2033   21.3701 C   0  0  0  0  0  0  0  0  0  0  0  0
    7.0718    4.9529   22.7227 N   0  0  0  0  0  0  0  0  0  0  0  0
    7.4943    6.0222   21.9208 C   0  0  0  0  0  0  0  0  0  0  0  0
    7.1381    5.9248   20.6688 O   0  0  0  0  0  0  0  0  0  0  0  0
    7.3204    4.9254   23.7288 H   0  0  0  0  0  0  0  0  0  0  0  0
    8.2641    7.2035   22.3266 C   0  0  0  0  0  0  0  0  0  0  0  0
    7.5354    8.5062   22.0049 C   0  0  0  0  0  0  0  0  0  0  0  0
    8.9071    7.2161   23.6379 C   0  0  0  0  0  0  0  0  0  0  0  0
    8.4902    8.0855   24.6461 C   0  0  0  0  0  0  0  0  0  0  0  0
    9.1187    8.1464   25.8680 C   0  0  0  0  0  0  0  0  0  0  0  0
   10.2037    7.3368   26.1445 C   0  0  0  0  0  0  0  0  0  0  0  0
   10.6555    6.4514   25.1719 C   0  0  0  0  0  0  0  0  0  0  0  0
    9.9951    6.4213   23.9555 C   0  0  0  0  0  0  0  0  0  0  0  0
    2.7765    3.0579   13.2596 C   0  0  0  0  0  0  0  0  0  0  0  0
    3.5621    4.1655   13.3161 C   0  0  0  0  0  0  0  0  0  0  0  0
    4.1952    4.4460   14.4767 N   0  0  0  0  0  0  0  0  0  0  0  0
    4.0803    3.6614   15.5923 C   0  0  0  0  0  0  0  0  0  0  0  0
    3.3033    2.5315   15.5908 C   0  0  0  0  0  0  0  0  0  0  0  0
    2.6475    2.2489   14.3844 C   0  0  0  0  0  0  0  0  0  0  0  0
    1.3024    1.3867   12.1900 C   0  0  0  0  0  0  0  0  0  0  0  0
    2.0998    2.6415   11.9974 C   0  0  0  0  0  0  0  0  0  0  0  0
    3.0692    2.5869   10.8743 C   0  0  0  0  0  0  0  0  0  0  0  0
    1.1071    3.7805   11.6912 C   0  0  0  0  0  0  0  0  0  0  0  0
   -0.0891    3.5876   12.3501 O   0  0  0  0  0  0  0  0  0  0  0  0
   -0.6063    4.4112   12.2553 H   0  0  0  0  0  0  0  0  0  0  0  0
 36 37  1  0  0  0
 37 38  1  0  0  0
 37 39  1  0  0  0
 39 40  1  0  0  0
 37 30  1  0  0  0
 30 31  2  0  0  0
 31 32  1  0  0  0
 32 33  2  0  0  0
 33 34  1  0  0  0
 34 35  2  0  0  0
 34  1  1  0  0  0
  1  2  2  0  0  0
  2  3  1  0  0  0
  3  4  2  0  0  0
  4  5  1  0  0  0
  5  6  1  0  0  0
  6  7  2  0  0  0
  7 11  1  0  0  0
 11 12  2  0  0  0
 12 13  1  0  0  0
 13 14  2  0  0  0
 14 18  1  0  0  0
 18 19  1  0  0  0
 19 20  2  0  0  0
 19 22  1  0  0  0
 22 23  1  0  0  0
 22 24  1  0  0  0
 24 25  2  0  0  0
 25 26  1  0  0  0
 26 27  2  0  0  0
 27 28  1  0  0  0
 28 29  2  0  0  0
 14 15  1  0  0  0
 15 16  1  0  0  0
 15 17  2  0  0  0
  7  8  1  0  0  0
  8  9  2  0  0  0
 35 30  1  0  0  0
  9  1  1  0  0  0
  8  4  1  0  0  0
 17 11  1  0  0  0
 29 24  1  0  0  0
 40 41  1  0  0  0
  5 10  1  0  0  0
 18 21  1  0  0  0
M  END
> <minimizedAffinity>
-9.88549

> <CNNscore>
0.8530068994

> <CNNaffinity>
7.8695602417

> <CNN_VS>
6.7127890587

> <CNNaffinity_variance>
0.0945090428

$$$$
[H]OC([H])([H])C(c1c([H])nc([H])c(-c2c([H])nc3c(c2[H])c(-c2c([H])nc(N([H])C(=O)[C@]([H])(c4c([H])c([H])c([H])c([H])c4[H])C([H])([H])[H])c(Cl)c2[H])c([H])n3[H])c1[H])(C([H])([H])[H])C([H])([H])[H]


 41 45  0  0  0  0  0  0  0  0999 V2000
    3.6898    2.9717   17.0662 C   0  0  0  0  0  0  0  0  0  0  0  0
    3.0463    1.7310   17.2056 C   0  0  0  0  0  0  0  0  0  0  0  0
    2.3776    1.1321   16.2193 N   0  0  0  0  0  0  0  0  0  0  0  0
    2.2860    1.7043   15.0155 C   0  0  0  0  0  0  0  0  0  0  0  0
    1.7069    1.3702   13.8407 N   0  0  0  0  0  0  0  0  0  0  0  0
    1.9190    2.3110   12.9231 C   0  0  0  0  0  0  0  0  0  0  0  0
    2.6843    3.3339   13.5169 C   0  0  0  0  0  0  0  0  0  0  0  0
    2.8977    2.9490   14.7901 C   0  0  0  0  0  0  0  0  0  0  0  0
    3.6014    3.5708   15.8391 C   0  0  0  0  0  0  0  0  0  0  0  0
    1.1591    0.4705   13.6950 H   0  0  0  0  0  0  0  0  0  0  0  0
    3.0720    4.5638   12.8334 C   0  0  0  0  0  0  0  0  0  0  0  0
    4.2650    4.6234   12.1119 C   0  0  0  0  0  0  0  0  0  0  0  0
    4.5228    5.7312   11.4208 N   0  0  0  0  0  0  0  0  0  0  0  0
    3.7144    6.8126   11.3585 C   0  0  0  0  0  0  0  0  0  0  0  0
    2.5384    6.7667   12.0649 C   0  0  0  0  0  0  0  0  0  0  0  0
    1.4283    8.1493   12.0471 Cl  0  0  0  0  0  0  0  0  0  0  0  0
    2.2345    5.6462   12.7918 C   0  0  0  0  0  0  0  0  0  0  0  0
    4.0364    7.9118   10.4907 N   0  0  0  0  0  0  0  0  0  0  0  0
    3.7503    7.8735    9.1190 C   0  0  0  0  0  0  0  0  0  0  0  0
    3.3071    6.7204    8.6974 O   0  0  0  0  0  0  0  0  0  0  0  0
    4.4126    8.7767   10.9211 H   0  0  0  0  0  0  0  0  0  0  0  0
    3.8860    8.9576    8.1397 C   0  0  0  0  0  0  0  0  0  0  0  0
    5.2740    8.9914    7.5042 C   0  0  0  0  0  0  0  0  0  0  0  0
    2.8104    9.1849    7.1781 C   0  0  0  0  0  0  0  0  0  0  0  0
    2.8267    8.5963    5.9134 C   0  0  0  0  0  0  0  0  0  0  0  0
    1.8487    8.8417    4.9778 C   0  0  0  0  0  0  0  0  0  0  0  0
    0.7993    9.6945    5.2613 C   0  0  0  0  0  0  0  0  0  0  0  0
    0.7377   10.3039    6.5099 C   0  0  0  0  0  0  0  0  0  0  0  0
    1.7419   10.0303    7.4227 C   0  0  0  0  0  0  0  0  0  0  0  0
    5.2792    3.2257   20.4767 C   0  0  0  0  0  0  0  0  0  0  0  0
    5.7144    4.5132   20.4914 C   0  0  0  0  0  0  0  0  0  0  0  0
    5.5024    5.2758   19.3960 N   0  0  0  0  0  0  0  0  0  0  0  0
    4.8673    4.8070   18.2778 C   0  0  0  0  0  0  0  0  0  0  0  0
    4.4057    3.5175   18.2093 C   0  0  0  0  0  0  0  0  0  0  0  0
    4.6319    2.7320   19.3482 C   0  0  0  0  0  0  0  0  0  0  0  0
    6.4425    1.2736   21.4495 C   0  0  0  0  0  0  0  0  0  0  0  0
    5.4126    2.3405   21.6697 C   0  0  0  0  0  0  0  0  0  0  0  0
    4.0850    1.8333   22.0991 C   0  0  0  0  0  0  0  0  0  0  0  0
    5.9334    3.2656   22.7875 C   0  0  0  0  0  0  0  0  0  0  0  0
    5.4160    2.9035   24.0135 O   0  0  0  0  0  0  0  0  0  0  0  0
    5.9048    3.4079   24.6928 H   0  0  0  0  0  0  0  0  0  0  0  0
 36 37  1  0  0  0
 37 38  1  0  0  0
 37 39  1  0  0  0
 39 40  1  0  0  0
 37 30  1  0  0  0
 30 31  2  0  0  0
 31 32  1  0  0  0
 32 33  2  0  0  0
 33 34  1  0  0  0
 34 35  2  0  0  0
 34  1  1  0  0  0
  1  2  2  0  0  0
  2  3  1  0  0  0
  3  4  2  0  0  0
  4  5  1  0  0  0
  5  6  1  0  0  0
  6  7  2  0  0  0
  7 11  1  0  0  0
 11 12  2  0  0  0
 12 13  1  0  0  0
 13 14  2  0  0  0
 14 18  1  0  0  0
 18 19  1  0  0  0
 19 20  2  0  0  0
 19 22  1  0  0  0
 22 23  1  0  0  0
 22 24  1  0  0  0
 24 25  2  0  0  0
 25 26  1  0  0  0
 26 27  2  0  0  0
 27 28  1  0  0  0
 28 29  2  0  0  0
 14 15  1  0  0  0
 15 16  1  0  0  0
 15 17  2  0  0  0
  7  8  1  0  0  0
  8  9  2  0  0  0
 35 30  1  0  0  0
  9  1  1  0  0  0
  8  4  1  0  0  0
 17 11  1  0  0  0
 29 24  1  0  0  0
 40 41  1  0  0  0
  5 10  1  0  0  0
 18 21  1  0  0  0
M  END
> <minimizedAffinity>
-9.06442

> <CNNscore>
0.3394798040

> <CNNaffinity>
6.9180207253

> <CNN_VS>
2.3485283852

> <CNNaffinity_variance>
0.1761914343

$$$$
[H]OC([H])([H])C(c1c([H])nc([H])c(-c2c([H])nc3c(c2[H])c(-c2c([H])nc(N([H])C(=O)[C@]([H])(c4c([H])c([H])c([H])c([H])c4[H])C([H])([H])[H])c(Cl)c2[H])c([H])n3[H])c1[H])(C([H])([H])[H])C([H])([H])[H]


 41 45  0  0  0  0  0  0  0  0999 V2000
    3.0362    2.4338   15.6913 C   0  0  0  0  0  0  0  0  0  0  0  0
    2.8397    1.0529   15.8564 C   0  0  0  0  0  0  0  0  0  0  0  0
    3.0721    0.4064   16.9995 N   0  0  0  0  0  0  0  0  0  0  0  0
    3.5177    1.0644   18.0735 C   0  0  0  0  0  0  0  0  0  0  0  0
    3.8364    0.7193   19.3410 N   0  0  0  0  0  0  0  0  0  0  0  0
    4.2376    1.7819   20.0352 C   0  0  0  0  0  0  0  0  0  0  0  0
    4.1843    2.9034   19.1842 C   0  0  0  0  0  0  0  0  0  0  0  0
    3.7454    2.4487   17.9946 C   0  0  0  0  0  0  0  0  0  0  0  0
    3.4955    3.1199   16.7825 C   0  0  0  0  0  0  0  0  0  0  0  0
    3.7683   -0.2759   19.7096 H   0  0  0  0  0  0  0  0  0  0  0  0
    4.6015    4.2457   19.5771 C   0  0  0  0  0  0  0  0  0  0  0  0
    3.9795    4.8928   20.6457 C   0  0  0  0  0  0  0  0  0  0  0  0
    4.4650    6.0704   21.0314 N   0  0  0  0  0  0  0  0  0  0  0  0
    5.5230    6.6956   20.4685 C   0  0  0  0  0  0  0  0  0  0  0  0
    6.1426    6.0697   19.4157 C   0  0  0  0  0  0  0  0  0  0  0  0
    7.5293    6.8290   18.6127 Cl  0  0  0  0  0  0  0  0  0  0  0  0
    5.6740    4.8568   18.9847 C   0  0  0  0  0  0  0  0  0  0  0  0
    6.0349    7.9123   21.0363 N   0  0  0  0  0  0  0  0  0  0  0  0
    7.0562    7.9025   21.9964 C   0  0  0  0  0  0  0  0  0  0  0  0
    7.3858    6.7106   22.4141 O   0  0  0  0  0  0  0  0  0  0  0  0
    5.6864    8.8110   20.6546 H   0  0  0  0  0  0  0  0  0  0  0  0
    7.7748    9.0513   22.5591 C   0  0  0  0  0  0  0  0  0  0  0  0
    6.8593   10.2532   22.7803 C   0  0  0  0  0  0  0  0  0  0  0  0
    8.7104    8.8342   23.6594 C   0  0  0  0  0  0  0  0  0  0  0  0
    8.2746    8.7559   24.9823 C   0  0  0  0  0  0  0  0  0  0  0  0
    9.1478    8.6044   26.0342 C   0  0  0  0  0  0  0  0  0  0  0  0
   10.5096    8.5244   25.8147 C   0  0  0  0  0  0  0  0  0  0  0  0
   10.9929    8.5952   24.5126 C   0  0  0  0  0  0  0  0  0  0  0  0
   10.0807    8.7479   23.4825 C   0  0  0  0  0  0  0  0  0  0  0  0
    2.0037    4.9770   13.1051 C   0  0  0  0  0  0  0  0  0  0  0  0
    2.0468    4.2487   11.9583 C   0  0  0  0  0  0  0  0  0  0  0  0
    2.4227    2.9527   12.0338 N   0  0  0  0  0  0  0  0  0  0  0  0
    2.7576    2.3454   13.2139 C   0  0  0  0  0  0  0  0  0  0  0  0
    2.7293    3.0318   14.4007 C   0  0  0  0  0  0  0  0  0  0  0  0
    2.3414    4.3761   14.3138 C   0  0  0  0  0  0  0  0  0  0  0  0
    1.5634    6.9920   11.7428 C   0  0  0  0  0  0  0  0  0  0  0  0
    1.5333    6.3923   13.1164 C   0  0  0  0  0  0  0  0  0  0  0  0
    2.2579    7.1790   14.1461 C   0  0  0  0  0  0  0  0  0  0  0  0
    0.0578    6.3111   13.5558 C   0  0  0  0  0  0  0  0  0  0  0  0
   -0.1018    6.7674   14.8474 O   0  0  0  0  0  0  0  0  0  0  0  0
   -1.0623    6.8500   15.0071 H   0  0  0  0  0  0  0  0  0  0  0  0
 36 37  1  0  0  0
 37 38  1  0  0  0
 37 39  1  0  0  0
 39 40  1  0  0  0
 37 30  1  0  0  0
 30 31  2  0  0  0
 31 32  1  0  0  0
 32 33  2  0  0  0
 33 34  1  0  0  0
 34 35  2  0  0  0
 34  1  1  0  0  0
  1  2  2  0  0  0
  2  3  1  0  0  0
  3  4  2  0  0  0
  4  5  1  0  0  0
  5  6  1  0  0  0
  6  7  2  0  0  0
  7 11  1  0  0  0
 11 12  2  0  0  0
 12 13  1  0  0  0
 13 14  2  0  0  0
 14 18  1  0  0  0
 18 19  1  0  0  0
 19 20  2  0  0  0
 19 22  1  0  0  0
 22 23  1  0  0  0
 22 24  1  0  0  0
 24 25  2  0  0  0
 25 26  1  0  0  0
 26 27  2  0  0  0
 27 28  1  0  0  0
 28 29  2  0  0  0
 14 15  1  0  0  0
 15 16  1  0  0  0
 15 17  2  0  0  0
  7  8  1  0  0  0
  8  9  2  0  0  0
 35 30  1  0  0  0
  9  1  1  0  0  0
  8  4  1  0  0  0
 17 11  1  0  0  0
 29 24  1  0  0  0
 40 41  1  0  0  0
  5 10  1  0  0  0
 18 21  1  0  0  0
M  END
> <minimizedAffinity>
-8.81770

> <CNNscore>
0.2861270308

> <CNNaffinity>
7.0858392715

> <CNN_VS>
2.0274500847

> <CNNaffinity_variance>
0.1606033593

$$$$
[H]OC([H])([H])C(c1c([H])nc([H])c(-c2c([H])nc3c(c2[H])c(-c2c([H])nc(N([H])C(=O)[C@]([H])(c4c([H])c([H])c([H])c([H])c4[H])C([H])([H])[H])c(Cl)c2[H])c([H])n3[H])c1[H])(C([H])([H])[H])C([H])([H])[H]


 41 45  0  0  0  0  0  0  0  0999 V2000
    6.0725    4.1973   21.9610 C   0  0  0  0  0  0  0  0  0  0  0  0
    5.8550    3.2929   23.0133 C   0  0  0  0  0  0  0  0  0  0  0  0
    5.2084    2.1353   22.8692 N   0  0  0  0  0  0  0  0  0  0  0  0
    4.7220    1.7727   21.6789 C   0  0  0  0  0  0  0  0  0  0  0  0
    4.0461    0.7002   21.2098 N   0  0  0  0  0  0  0  0  0  0  0  0
    3.7938    0.8305   19.9092 C   0  0  0  0  0  0  0  0  0  0  0  0
    4.3317    2.0605   19.4823 C   0  0  0  0  0  0  0  0  0  0  0  0
    4.8917    2.6211   20.5717 C   0  0  0  0  0  0  0  0  0  0  0  0
    5.5767    3.8400   20.7366 C   0  0  0  0  0  0  0  0  0  0  0  0
    3.7641   -0.1244   21.8192 H   0  0  0  0  0  0  0  0  0  0  0  0
    4.2062    2.5778   18.1233 C   0  0  0  0  0  0  0  0  0  0  0  0
    4.9786    3.6635   17.7081 C   0  0  0  0  0  0  0  0  0  0  0  0
    4.9048    4.0309   16.4311 N   0  0  0  0  0  0  0  0  0  0  0  0
    4.1371    3.4311   15.4942 C   0  0  0  0  0  0  0  0  0  0  0  0
    3.3719    2.3627   15.8905 C   0  0  0  0  0  0  0  0  0  0  0  0
    2.3266    1.5287   14.7260 Cl  0  0  0  0  0  0  0  0  0  0  0  0
    3.4159    1.9523   17.1967 C   0  0  0  0  0  0  0  0  0  0  0  0
    4.2186    3.8378   14.1184 N   0  0  0  0  0  0  0  0  0  0  0  0
    3.4874    4.9295   13.6302 C   0  0  0  0  0  0  0  0  0  0  0  0
    2.6437    5.4346   14.4885 O   0  0  0  0  0  0  0  0  0  0  0  0
    4.9016    3.3525   13.5078 H   0  0  0  0  0  0  0  0  0  0  0  0
    3.5708    5.5484   12.3025 C   0  0  0  0  0  0  0  0  0  0  0  0
    3.9193    7.0332   12.3783 C   0  0  0  0  0  0  0  0  0  0  0  0
    4.2804    4.8477   11.2355 C   0  0  0  0  0  0  0  0  0  0  0  0
    3.6492    3.8809   10.4526 C   0  0  0  0  0  0  0  0  0  0  0  0
    4.3172    3.1750    9.4792 C   0  0  0  0  0  0  0  0  0  0  0  0
    5.6590    3.4010    9.2392 C   0  0  0  0  0  0  0  0  0  0  0  0
    6.3319    4.3569    9.9924 C   0  0  0  0  0  0  0  0  0  0  0  0
    5.6231    5.0452   10.9622 C   0  0  0  0  0  0  0  0  0  0  0  0
    8.9529    6.5550   22.5666 C   0  0  0  0  0  0  0  0  0  0  0  0
    8.3116    7.7238   22.8313 C   0  0  0  0  0  0  0  0  0  0  0  0
    6.9607    7.7381   22.7956 N   0  0  0  0  0  0  0  0  0  0  0  0
    6.2148    6.6270   22.5079 C   0  0  0  0  0  0  0  0  0  0  0  0
    6.8093    5.4216   22.2356 C   0  0  0  0  0  0  0  0  0  0  0  0
    8.2107    5.4156   22.2716 C   0  0  0  0  0  0  0  0  0  0  0  0
   11.1141    7.6918   22.1833 C   0  0  0  0  0  0  0  0  0  0  0  0
   10.4373    6.4394   22.6534 C   0  0  0  0  0  0  0  0  0  0  0  0
   10.9081    5.1995   21.9862 C   0  0  0  0  0  0  0  0  0  0  0  0
   10.7311    6.2896   24.1593 C   0  0  0  0  0  0  0  0  0  0  0  0
   11.5767    5.2264   24.3972 O   0  0  0  0  0  0  0  0  0  0  0  0
   11.8570    5.2848   25.3315 H   0  0  0  0  0  0  0  0  0  0  0  0
 36 37  1  0  0  0
 37 38  1  0  0  0
 37 39  1  0  0  0
 39 40  1  0  0  0
 37 30  1  0  0  0
 30 31  2  0  0  0
 31 32  1  0  0  0
 32 33  2  0  0  0
 33 34  1  0  0  0
 34 35  2  0  0  0
 34  1  1  0  0  0
  1  2  2  0  0  0
  2  3  1  0  0  0
  3  4  2  0  0  0
  4  5  1  0  0  0
  5  6  1  0  0  0
  6  7  2  0  0  0
  7 11  1  0  0  0
 11 12  2  0  0  0
 12 13  1  0  0  0
 13 14  2  0  0  0
 14 18  1  0  0  0
 18 19  1  0  0  0
 19 20  2  0  0  0
 19 22  1  0  0  0
 22 23  1  0  0  0
 22 24  1  0  0  0
 24 25  2  0  0  0
 25 26  1  0  0  0
 26 27  2  0  0  0
 27 28  1  0  0  0
 28 29  2  0  0  0
 14 15  1  0  0  0
 15 16  1  0  0  0
 15 17  2  0  0  0
  7  8  1  0  0  0
  8  9  2  0  0  0
 35 30  1  0  0  0
  9  1  1  0  0  0
  8  4  1  0  0  0
 17 11  1  0  0  0
 29 24  1  0  0  0
 40 41  1  0  0  0
  5 10  1  0  0  0
 18 21  1  0  0  0
M  END
> <minimizedAffinity>
-9.21681

> <CNNscore>
0.1953828186

> <CNNaffinity>
7.0893659592

> <CNN_VS>
1.3851402998

> <CNNaffinity_variance>
0.3421818614

$$$$
[H]OC([H])([H])C(c1c([H])nc([H])c(-c2c([H])nc3c(c2[H])c(-c2c([H])nc(N([H])C(=O)[C@]([H])(c4c([H])c([H])c([H])c([H])c4[H])C([H])([H])[H])c(Cl)c2[H])c([H])n3[H])c1[H])(C([H])([H])[H])C([H])([H])[H]


 41 45  0  0  0  0  0  0  0  0999 V2000
    2.3077    0.9710    9.8185 C   0  0  0  0  0  0  0  0  0  0  0  0
    1.1622    1.4203    9.1413 C   0  0  0  0  0  0  0  0  0  0  0  0
    0.3159    2.3218    9.6412 N   0  0  0  0  0  0  0  0  0  0  0  0
    0.5262    2.8546   10.8482 C   0  0  0  0  0  0  0  0  0  0  0  0
   -0.1141    3.7652   11.6150 N   0  0  0  0  0  0  0  0  0  0  0  0
    0.5286    3.9521   12.7657 C   0  0  0  0  0  0  0  0  0  0  0  0
    1.6650    3.1194   12.7699 C   0  0  0  0  0  0  0  0  0  0  0  0
    1.6474    2.4581   11.5965 C   0  0  0  0  0  0  0  0  0  0  0  0
    2.5337    1.5062   11.0574 C   0  0  0  0  0  0  0  0  0  0  0  0
   -1.0111    4.2522   11.3166 H   0  0  0  0  0  0  0  0  0  0  0  0
    2.5913    3.0094   13.8925 C   0  0  0  0  0  0  0  0  0  0  0  0
    3.4809    4.0465   14.1765 C   0  0  0  0  0  0  0  0  0  0  0  0
    4.2311    3.9441   15.2710 N   0  0  0  0  0  0  0  0  0  0  0  0
    4.1996    2.9088   16.1394 C   0  0  0  0  0  0  0  0  0  0  0  0
    3.3294    1.8819   15.8702 C   0  0  0  0  0  0  0  0  0  0  0  0
    3.2363    0.4800   16.9521 Cl  0  0  0  0  0  0  0  0  0  0  0  0
    2.5398    1.9456   14.7527 C   0  0  0  0  0  0  0  0  0  0  0  0
    4.9712    2.9523   17.3508 N   0  0  0  0  0  0  0  0  0  0  0  0
    4.5204    3.6418   18.4849 C   0  0  0  0  0  0  0  0  0  0  0  0
    3.4327    4.3366   18.2908 O   0  0  0  0  0  0  0  0  0  0  0  0
    5.8387    2.3864   17.3950 H   0  0  0  0  0  0  0  0  0  0  0  0
    5.1181    3.6603   19.8248 C   0  0  0  0  0  0  0  0  0  0  0  0
    5.3099    5.0805   20.3520 C   0  0  0  0  0  0  0  0  0  0  0  0
    4.6172    2.7361   20.8388 C   0  0  0  0  0  0  0  0  0  0  0  0
    3.9397    1.5678   20.4895 C   0  0  0  0  0  0  0  0  0  0  0  0
    3.4163    0.7141   21.4324 C   0  0  0  0  0  0  0  0  0  0  0  0
    3.5438    0.9882   22.7806 C   0  0  0  0  0  0  0  0  0  0  0  0
    4.2133    2.1402   23.1790 C   0  0  0  0  0  0  0  0  0  0  0  0
    4.7251    2.9728   22.1985 C   0  0  0  0  0  0  0  0  0  0  0  0
    3.5782   -2.3128    8.4675 C   0  0  0  0  0  0  0  0  0  0  0  0
    4.7976   -1.9651    7.9781 C   0  0  0  0  0  0  0  0  0  0  0  0
    5.1858   -0.6744    8.0772 N   0  0  0  0  0  0  0  0  0  0  0  0
    4.4052    0.2926    8.6508 C   0  0  0  0  0  0  0  0  0  0  0  0
    3.1677   -0.0025    9.1628 C   0  0  0  0  0  0  0  0  0  0  0  0
    2.7710   -1.3426    9.0535 C   0  0  0  0  0  0  0  0  0  0  0  0
    2.5002   -4.1118    9.7756 C   0  0  0  0  0  0  0  0  0  0  0  0
    3.1054   -3.7273    8.4591 C   0  0  0  0  0  0  0  0  0  0  0  0
    4.1791   -4.6378    7.9873 C   0  0  0  0  0  0  0  0  0  0  0  0
    1.9816   -3.7583    7.4043 C   0  0  0  0  0  0  0  0  0  0  0  0
    0.7558   -3.9928    7.9911 O   0  0  0  0  0  0  0  0  0  0  0  0
    0.0747   -3.8347    7.3085 H   0  0  0  0  0  0  0  0  0  0  0  0
 36 37  1  0  0  0
 37 38  1  0  0  0
 37 39  1  0  0  0
 39 40  1  0  0  0
 37 30  1  0  0  0
 30 31  2  0  0  0
 31 32  1  0  0  0
 32 33  2  0  0  0
 33 34  1  0  0  0
 34 35  2  0  0  0
 34  1  1  0  0  0
  1  2  2  0  0  0
  2  3  1  0  0  0
  3  4  2  0  0  0
  4  5  1  0  0  0
  5  6  1  0  0  0
  6  7  2  0  0  0
  7 11  1  0  0  0
 11 12  2  0  0  0
 12 13  1  0  0  0
 13 14  2  0  0  0
 14 18  1  0  0  0
 18 19  1  0  0  0
 19 20  2  0  0  0
 19 22  1  0  0  0
 22 23  1  0  0  0
 22 24  1  0  0  0
 24 25  2  0  0  0
 25 26  1  0  0  0
 26 27  2  0  0  0
 27 28  1  0  0  0
 28 29  2  0  0  0
 14 15  1  0  0  0
 15 16  1  0  0  0
 15 17  2  0  0  0
  7  8  1  0  0  0
  8  9  2  0  0  0
 35 30  1  0  0  0
  9  1  1  0  0  0
  8  4  1  0  0  0
 17 11  1  0  0  0
 29 24  1  0  0  0
 40 41  1  0  0  0
  5 10  1  0  0  0
 18 21  1  0  0  0
M  END
> <minimizedAffinity>
-8.73060

> <CNNscore>
0.1874962449

> <CNNaffinity>
6.8060469627

> <CNN_VS>
1.2761082649

> <CNNaffinity_variance>
0.1303656548

$$$$
[H]OC([H])([H])C(c1c([H])nc([H])c(-c2c([H])nc3c(c2[H])c(-c2c([H])nc(N([H])C(=O)[C@]([H])(c4c([H])c([H])c([H])c([H])c4[H])C([H])([H])[H])c(Cl)c2[H])c([H])n3[H])c1[H])(C([H])([H])[H])C([H])([H])[H]


 41 45  0  0  0  0  0  0  0  0999 V2000
    0.4540    1.6266    9.8456 C   0  0  0  0  0  0  0  0  0  0  0  0
   -0.5163    2.4400    9.2377 C   0  0  0  0  0  0  0  0  0  0  0  0
   -0.8704    3.6387    9.7029 N   0  0  0  0  0  0  0  0  0  0  0  0
   -0.3002    4.1353   10.8044 C   0  0  0  0  0  0  0  0  0  0  0  0
   -0.4246    5.2810   11.5108 N   0  0  0  0  0  0  0  0  0  0  0  0
    0.3993    5.2852   12.5564 C   0  0  0  0  0  0  0  0  0  0  0  0
    1.1171    4.0730   12.5501 C   0  0  0  0  0  0  0  0  0  0  0  0
    0.6783    3.3851   11.4783 C   0  0  0  0  0  0  0  0  0  0  0  0
    1.0440    2.1214   10.9767 C   0  0  0  0  0  0  0  0  0  0  0  0
   -1.0990    6.0595   11.2464 H   0  0  0  0  0  0  0  0  0  0  0  0
    2.0817    3.6911   13.5767 C   0  0  0  0  0  0  0  0  0  0  0  0
    3.1096    4.5633   13.9376 C   0  0  0  0  0  0  0  0  0  0  0  0
    3.8992    4.2135   14.9503 N   0  0  0  0  0  0  0  0  0  0  0  0
    3.7842    3.0727   15.6658 C   0  0  0  0  0  0  0  0  0  0  0  0
    2.7776    2.2060   15.3196 C   0  0  0  0  0  0  0  0  0  0  0  0
    2.5668    0.6809   16.1995 Cl  0  0  0  0  0  0  0  0  0  0  0  0
    1.9429    2.5257   14.2817 C   0  0  0  0  0  0  0  0  0  0  0  0
    4.6198    2.8465   16.8127 N   0  0  0  0  0  0  0  0  0  0  0  0
    4.3313    3.4230   18.0575 C   0  0  0  0  0  0  0  0  0  0  0  0
    3.3406    4.2725   18.0363 O   0  0  0  0  0  0  0  0  0  0  0  0
    5.4023    2.1729   16.7186 H   0  0  0  0  0  0  0  0  0  0  0  0
    4.9986    3.1768   19.3407 C   0  0  0  0  0  0  0  0  0  0  0  0
    5.3939    4.4731   20.0442 C   0  0  0  0  0  0  0  0  0  0  0  0
    4.4425    2.1785   20.2505 C   0  0  0  0  0  0  0  0  0  0  0  0
    3.8436    1.0119   19.7748 C   0  0  0  0  0  0  0  0  0  0  0  0
    3.2689    0.0874   20.6157 C   0  0  0  0  0  0  0  0  0  0  0  0
    3.2631    0.2851   21.9831 C   0  0  0  0  0  0  0  0  0  0  0  0
    3.8502    1.4323   22.5059 C   0  0  0  0  0  0  0  0  0  0  0  0
    4.4175    2.3375   21.6254 C   0  0  0  0  0  0  0  0  0  0  0  0
    2.3590   -1.4856    8.8926 C   0  0  0  0  0  0  0  0  0  0  0  0
    1.4959   -2.0958    8.0383 C   0  0  0  0  0  0  0  0  0  0  0  0
    0.3064   -1.5026    7.7939 N   0  0  0  0  0  0  0  0  0  0  0  0
   -0.0618   -0.3155    8.3672 C   0  0  0  0  0  0  0  0  0  0  0  0
    0.7706    0.3446    9.2343 C   0  0  0  0  0  0  0  0  0  0  0  0
    2.0012   -0.2784    9.4851 C   0  0  0  0  0  0  0  0  0  0  0  0
    3.6423   -3.3998    9.7865 C   0  0  0  0  0  0  0  0  0  0  0  0
    3.7176   -2.0394    9.1612 C   0  0  0  0  0  0  0  0  0  0  0  0
    4.5444   -1.0624    9.9137 C   0  0  0  0  0  0  0  0  0  0  0  0
    4.3562   -2.2032    7.7677 C   0  0  0  0  0  0  0  0  0  0  0  0
    5.1391   -3.3371    7.7101 O   0  0  0  0  0  0  0  0  0  0  0  0
    5.3751   -3.4769    6.7722 H   0  0  0  0  0  0  0  0  0  0  0  0
 36 37  1  0  0  0
 37 38  1  0  0  0
 37 39  1  0  0  0
 39 40  1  0  0  0
 37 30  1  0  0  0
 30 31  2  0  0  0
 31 32  1  0  0  0
 32 33  2  0  0  0
 33 34  1  0  0  0
 34 35  2  0  0  0
 34  1  1  0  0  0
  1  2  2  0  0  0
  2  3  1  0  0  0
  3  4  2  0  0  0
  4  5  1  0  0  0
  5  6  1  0  0  0
  6  7  2  0  0  0
  7 11  1  0  0  0
 11 12  2  0  0  0
 12 13  1  0  0  0
 13 14  2  0  0  0
 14 18  1  0  0  0
 18 19  1  0  0  0
 19 20  2  0  0  0
 19 22  1  0  0  0
 22 23  1  0  0  0
 22 24  1  0  0  0
 24 25  2  0  0  0
 25 26  1  0  0  0
 26 27  2  0  0  0
 27 28  1  0  0  0
 28 29  2  0  0  0
 14 15  1  0  0  0
 15 16  1  0  0  0
 15 17  2  0  0  0
  7  8  1  0  0  0
  8  9  2  0  0  0
 35 30  1  0  0  0
  9  1  1  0  0  0
  8  4  1  0  0  0
 17 11  1  0  0  0
 29 24  1  0  0  0
 40 41  1  0  0  0
  5 10  1  0  0  0
 18 21  1  0  0  0
M  END
> <minimizedAffinity>
-8.62622

> <CNNscore>
0.1858023852

> <CNNaffinity>
6.7316727638

> <CNN_VS>
1.2507609129

> <CNNaffinity_variance>
0.1648482084

$$$$
[H]OC([H])([H])C(c1c([H])nc([H])c(-c2c([H])nc3c(c2[H])c(-c2c([H])nc(N([H])C(=O)[C@]([H])(c4c([H])c([H])c([H])c([H])c4[H])C([H])([H])[H])c(Cl)c2[H])c([H])n3[H])c1[H])(C([H])([H])[H])C([H])([H])[H]


 41 45  0  0  0  0  0  0  0  0999 V2000
    4.4198    2.7398   19.2412 C   0  0  0  0  0  0  0  0  0  0  0  0
    4.1196    1.4311   19.6532 C   0  0  0  0  0  0  0  0  0  0  0  0
    3.4969    0.5394   18.8813 N   0  0  0  0  0  0  0  0  0  0  0  0
    3.1177    0.8618   17.6414 C   0  0  0  0  0  0  0  0  0  0  0  0
    2.4931    0.2117   16.6341 N   0  0  0  0  0  0  0  0  0  0  0  0
    2.3528    1.0039   15.5736 C   0  0  0  0  0  0  0  0  0  0  0  0
    2.9159    2.2564   15.8880 C   0  0  0  0  0  0  0  0  0  0  0  0
    3.3755    2.1526   17.1500 C   0  0  0  0  0  0  0  0  0  0  0  0
    4.0342    3.0847   17.9744 C   0  0  0  0  0  0  0  0  0  0  0  0
    2.1662   -0.7977   16.7050 H   0  0  0  0  0  0  0  0  0  0  0  0
    2.9039    3.4051   14.9877 C   0  0  0  0  0  0  0  0  0  0  0  0
    4.0610    3.7742   14.3004 C   0  0  0  0  0  0  0  0  0  0  0  0
    3.9724    4.7622   13.4131 N   0  0  0  0  0  0  0  0  0  0  0  0
    2.8419    5.4421   13.1190 C   0  0  0  0  0  0  0  0  0  0  0  0
    1.6973    5.0890   13.7893 C   0  0  0  0  0  0  0  0  0  0  0  0
    0.1747    5.9407   13.4718 Cl  0  0  0  0  0  0  0  0  0  0  0  0
    1.7439    4.0786   14.7129 C   0  0  0  0  0  0  0  0  0  0  0  0
    2.8331    6.4154   12.0618 N   0  0  0  0  0  0  0  0  0  0  0  0
    2.8570    6.0354   10.7128 C   0  0  0  0  0  0  0  0  0  0  0  0
    3.0268    4.7556   10.5208 O   0  0  0  0  0  0  0  0  0  0  0  0
    2.7229    7.4132   12.3208 H   0  0  0  0  0  0  0  0  0  0  0  0
    2.7104    6.8942    9.5322 C   0  0  0  0  0  0  0  0  0  0  0  0
    3.8243    6.6689    8.5123 C   0  0  0  0  0  0  0  0  0  0  0  0
    1.3930    7.0389    8.9183 C   0  0  0  0  0  0  0  0  0  0  0  0
    0.2546    6.4741    9.4935 C   0  0  0  0  0  0  0  0  0  0  0  0
   -0.9841    6.5566    8.9011 C   0  0  0  0  0  0  0  0  0  0  0  0
   -1.1472    7.2112    7.6954 C   0  0  0  0  0  0  0  0  0  0  0  0
   -0.0421    7.7929    7.0835 C   0  0  0  0  0  0  0  0  0  0  0  0
    1.1865    7.6871    7.7126 C   0  0  0  0  0  0  0  0  0  0  0  0
    5.9619    5.8491   20.7167 C   0  0  0  0  0  0  0  0  0  0  0  0
    6.5228    5.3725   21.8593 C   0  0  0  0  0  0  0  0  0  0  0  0
    6.3827    4.0589   22.1446 N   0  0  0  0  0  0  0  0  0  0  0  0
    5.7040    3.1918   21.3315 C   0  0  0  0  0  0  0  0  0  0  0  0
    5.1206    3.6179   20.1660 C   0  0  0  0  0  0  0  0  0  0  0  0
    5.2677    4.9821   19.8784 C   0  0  0  0  0  0  0  0  0  0  0  0
    7.3827    7.8664   20.8631 C   0  0  0  0  0  0  0  0  0  0  0  0
    6.1299    7.2700   20.2957 C   0  0  0  0  0  0  0  0  0  0  0  0
    4.8976    8.0501   20.5737 C   0  0  0  0  0  0  0  0  0  0  0  0
    6.2972    7.2075   18.7644 C   0  0  0  0  0  0  0  0  0  0  0  0
    7.6240    7.3179   18.4047 O   0  0  0  0  0  0  0  0  0  0  0  0
    7.6831    7.1045   17.4529 H   0  0  0  0  0  0  0  0  0  0  0  0
 36 37  1  0  0  0
 37 38  1  0  0  0
 37 39  1  0  0  0
 39 40  1  0  0  0
 37 30  1  0  0  0
 30 31  2  0  0  0
 31 32  1  0  0  0
 32 33  2  0  0  0
 33 34  1  0  0  0
 34 35  2  0  0  0
 34  1  1  0  0  0
  1  2  2  0  0  0
  2  3  1  0  0  0
  3  4  2  0  0  0
  4  5  1  0  0  0
  5  6  1  0  0  0
  6  7  2  0  0  0
  7 11  1  0  0  0
 11 12  2  0  0  0
 12 13  1  0  0  0
 13 14  2  0  0  0
 14 18  1  0  0  0
 18 19  1  0  0  0
 19 20  2  0  0  0
 19 22  1  0  0  0
 22 23  1  0  0  0
 22 24  1  0  0  0
 24 25  2  0  0  0
 25 26  1  0  0  0
 26 27  2  0  0  0
 27 28  1  0  0  0
 28 29  2  0  0  0
 14 15  1  0  0  0
 15 16  1  0  0  0
 15 17  2  0  0  0
  7  8  1  0  0  0
  8  9  2  0  0  0
 35 30  1  0  0  0
  9  1  1  0  0  0
  8  4  1  0  0  0
 17 11  1  0  0  0
 29 24  1  0  0  0
 40 41  1  0  0  0
  5 10  1  0  0  0
 18 21  1  0  0  0
M  END
> <minimizedAffinity>
-8.02723

> <CNNscore>
0.1689097583

> <CNNaffinity>
6.7518944740

> <CNN_VS>
1.1404608488

> <CNNaffinity_variance>
0.2505988479

$$$$
[H]OC([H])([H])C(c1c([H])nc([H])c(-c2c([H])nc3c(c2[H])c(-c2c([H])nc(N([H])C(=O)[C@]([H])(c4c([H])c([H])c([H])c([H])c4[H])C([H])([H])[H])c(Cl)c2[H])c([H])n3[H])c1[H])(C([H])([H])[H])C([H])([H])[H]


 41 45  0  0  0  0  0  0  0  0999 V2000
    5.7698    4.5562   21.0495 C   0  0  0  0  0  0  0  0  0  0  0  0
    5.8960    3.8067   22.2306 C   0  0  0  0  0  0  0  0  0  0  0  0
    5.4642    2.5512   22.3571 N   0  0  0  0  0  0  0  0  0  0  0  0
    4.8722    1.9302   21.3329 C   0  0  0  0  0  0  0  0  0  0  0  0
    4.3445    0.7012   21.1371 N   0  0  0  0  0  0  0  0  0  0  0  0
    3.8692    0.5809   19.8995 C   0  0  0  0  0  0  0  0  0  0  0  0
    4.0915    1.7989   19.2274 C   0  0  0  0  0  0  0  0  0  0  0  0
    4.7016    2.6086   20.1144 C   0  0  0  0  0  0  0  0  0  0  0  0
    5.1624    3.9335   19.9932 C   0  0  0  0  0  0  0  0  0  0  0  0
    4.3229   -0.0512   21.8883 H   0  0  0  0  0  0  0  0  0  0  0  0
    3.6571    2.0669   17.8600 C   0  0  0  0  0  0  0  0  0  0  0  0
    3.5959    1.0332   16.9244 C   0  0  0  0  0  0  0  0  0  0  0  0
    3.0945    1.3073   15.7224 N   0  0  0  0  0  0  0  0  0  0  0  0
    2.6333    2.5160   15.3311 C   0  0  0  0  0  0  0  0  0  0  0  0
    2.6893    3.5412   16.2421 C   0  0  0  0  0  0  0  0  0  0  0  0
    2.1170    5.1612   15.8036 Cl  0  0  0  0  0  0  0  0  0  0  0  0
    3.2001    3.3035   17.4907 C   0  0  0  0  0  0  0  0  0  0  0  0
    2.0080    2.6746   14.0471 N   0  0  0  0  0  0  0  0  0  0  0  0
    2.7128    3.1736   12.9430 C   0  0  0  0  0  0  0  0  0  0  0  0
    3.9140    3.6000   13.2239 O   0  0  0  0  0  0  0  0  0  0  0  0
    1.0371    2.3292   13.9335 H   0  0  0  0  0  0  0  0  0  0  0  0
    2.2610    3.2596   11.5497 C   0  0  0  0  0  0  0  0  0  0  0  0
    2.9933    4.3504   10.7714 C   0  0  0  0  0  0  0  0  0  0  0  0
    2.0854    2.0291   10.7827 C   0  0  0  0  0  0  0  0  0  0  0  0
    0.8282    1.4488   10.6133 C   0  0  0  0  0  0  0  0  0  0  0  0
    0.6529    0.2629    9.9388 C   0  0  0  0  0  0  0  0  0  0  0  0
    1.7332   -0.4071    9.3974 C   0  0  0  0  0  0  0  0  0  0  0  0
    3.0070    0.1329    9.5380 C   0  0  0  0  0  0  0  0  0  0  0  0
    3.1401    1.3280   10.2239 C   0  0  0  0  0  0  0  0  0  0  0  0
    6.1371    8.2150   20.2126 C   0  0  0  0  0  0  0  0  0  0  0  0
    7.2858    8.5405   20.8621 C   0  0  0  0  0  0  0  0  0  0  0  0
    7.9167    7.5794   21.5726 N   0  0  0  0  0  0  0  0  0  0  0  0
    7.4494    6.2960   21.6619 C   0  0  0  0  0  0  0  0  0  0  0  0
    6.2972    5.9122   21.0252 C   0  0  0  0  0  0  0  0  0  0  0  0
    5.6469    6.9152   20.2928 C   0  0  0  0  0  0  0  0  0  0  0  0
    6.2410    9.5897   18.1609 C   0  0  0  0  0  0  0  0  0  0  0  0
    5.4187    9.1987   19.3519 C   0  0  0  0  0  0  0  0  0  0  0  0
    4.9251   10.3424   20.1597 C   0  0  0  0  0  0  0  0  0  0  0  0
    4.1831    8.4365   18.8335 C   0  0  0  0  0  0  0  0  0  0  0  0
    3.0232    8.9331   19.3903 O   0  0  0  0  0  0  0  0  0  0  0  0
    2.2760    8.5324   18.9047 H   0  0  0  0  0  0  0  0  0  0  0  0
 36 37  1  0  0  0
 37 38  1  0  0  0
 37 39  1  0  0  0
 39 40  1  0  0  0
 37 30  1  0  0  0
 30 31  2  0  0  0
 31 32  1  0  0  0
 32 33  2  0  0  0
 33 34  1  0  0  0
 34 35  2  0  0  0
 34  1  1  0  0  0
  1  2  2  0  0  0
  2  3  1  0  0  0
  3  4  2  0  0  0
  4  5  1  0  0  0
  5  6  1  0  0  0
  6  7  2  0  0  0
  7 11  1  0  0  0
 11 12  2  0  0  0
 12 13  1  0  0  0
 13 14  2  0  0  0
 14 18  1  0  0  0
 18 19  1  0  0  0
 19 20  2  0  0  0
 19 22  1  0  0  0
 22 23  1  0  0  0
 22 24  1  0  0  0
 24 25  2  0  0  0
 25 26  1  0  0  0
 26 27  2  0  0  0
 27 28  1  0  0  0
 28 29  2  0  0  0
 14 15  1  0  0  0
 15 16  1  0  0  0
 15 17  2  0  0  0
  7  8  1  0  0  0
  8  9  2  0  0  0
 35 30  1  0  0  0
  9  1  1  0  0  0
  8  4  1  0  0  0
 17 11  1  0  0  0
 29 24  1  0  0  0
 40 41  1  0  0  0
  5 10  1  0  0  0
 18 21  1  0  0  0
M  END
> <minimizedAffinity>
-9.36516

> <CNNscore>
0.1621882915

> <CNNaffinity>
6.9063272476

> <CNN_VS>
1.1201254129

> <CNNaffinity_variance>
0.5459847450

$$$$
[H]OC([H])([H])C(c1c([H])nc([H])c(-c2c([H])nc3c(c2[H])c(-c2c([H])nc(N([H])C(=O)[C@]([H])(c4c([H])c([H])c([H])c([H])c4[H])C([H])([H])[H])c(Cl)c2[H])c([H])n3[H])c1[H])(C([H])([H])[H])C([H])([H])[H]


 41 45  0  0  0  0  0  0  0  0999 V2000
    3.6639    3.2370   17.1681 C   0  0  0  0  0  0  0  0  0  0  0  0
    3.0312    1.9944   17.3360 C   0  0  0  0  0  0  0  0  0  0  0  0
    2.4191    1.3392   16.3487 N   0  0  0  0  0  0  0  0  0  0  0  0
    2.3782    1.8525   15.1159 C   0  0  0  0  0  0  0  0  0  0  0  0
    1.8611    1.4543   13.9321 N   0  0  0  0  0  0  0  0  0  0  0  0
    2.1047    2.3540   12.9817 C   0  0  0  0  0  0  0  0  0  0  0  0
    2.8266    3.4156   13.5617 C   0  0  0  0  0  0  0  0  0  0  0  0
    2.9833    3.0946   14.8605 C   0  0  0  0  0  0  0  0  0  0  0  0
    3.6270    3.7761   15.9110 C   0  0  0  0  0  0  0  0  0  0  0  0
    1.3332    0.5402   13.8036 H   0  0  0  0  0  0  0  0  0  0  0  0
    3.2304    4.6179   12.8394 C   0  0  0  0  0  0  0  0  0  0  0  0
    4.3856    4.6154   12.0565 C   0  0  0  0  0  0  0  0  0  0  0  0
    4.6541    5.7012   11.3353 N   0  0  0  0  0  0  0  0  0  0  0  0
    3.8906    6.8159   11.2972 C   0  0  0  0  0  0  0  0  0  0  0  0
    2.7522    6.8310   12.0639 C   0  0  0  0  0  0  0  0  0  0  0  0
    1.7028    8.2603   12.0810 Cl  0  0  0  0  0  0  0  0  0  0  0  0
    2.4389    5.7350   12.8235 C   0  0  0  0  0  0  0  0  0  0  0  0
    4.2136    7.8878   10.3964 N   0  0  0  0  0  0  0  0  0  0  0  0
    3.7188    7.9203    9.0853 C   0  0  0  0  0  0  0  0  0  0  0  0
    3.0732    6.8427    8.7307 O   0  0  0  0  0  0  0  0  0  0  0  0
    4.7582    8.6877   10.7683 H   0  0  0  0  0  0  0  0  0  0  0  0
    3.8403    9.0035    8.1030 C   0  0  0  0  0  0  0  0  0  0  0  0
    5.2505    9.1045    7.5262 C   0  0  0  0  0  0  0  0  0  0  0  0
    2.7964    9.1686    7.0950 C   0  0  0  0  0  0  0  0  0  0  0  0
    2.8823    8.5489    5.8482 C   0  0  0  0  0  0  0  0  0  0  0  0
    1.9341    8.7362    4.8694 C   0  0  0  0  0  0  0  0  0  0  0  0
    0.8461    9.5590    5.0894 C   0  0  0  0  0  0  0  0  0  0  0  0
    0.7149   10.1974    6.3179 C   0  0  0  0  0  0  0  0  0  0  0  0
    1.6911    9.9823    7.2757 C   0  0  0  0  0  0  0  0  0  0  0  0
    5.0149    5.8672   19.5090 C   0  0  0  0  0  0  0  0  0  0  0  0
    5.6200    5.1129   20.4640 C   0  0  0  0  0  0  0  0  0  0  0  0
    5.5705    3.7673   20.3472 N   0  0  0  0  0  0  0  0  0  0  0  0
    4.9407    3.1359   19.3088 C   0  0  0  0  0  0  0  0  0  0  0  0
    4.3163    3.8474   18.3167 C   0  0  0  0  0  0  0  0  0  0  0  0
    4.3694    5.2423   18.4464 C   0  0  0  0  0  0  0  0  0  0  0  0
    6.2443    7.8636   18.7261 C   0  0  0  0  0  0  0  0  0  0  0  0
    5.0835    7.3570   19.5281 C   0  0  0  0  0  0  0  0  0  0  0  0
    5.0295    7.8680   20.9210 C   0  0  0  0  0  0  0  0  0  0  0  0
    3.7935    7.8174   18.8206 C   0  0  0  0  0  0  0  0  0  0  0  0
    3.1958    8.8558   19.5035 O   0  0  0  0  0  0  0  0  0  0  0  0
    2.4905    9.2110   18.9280 H   0  0  0  0  0  0  0  0  0  0  0  0
 36 37  1  0  0  0
 37 38  1  0  0  0
 37 39  1  0  0  0
 39 40  1  0  0  0
 37 30  1  0  0  0
 30 31  2  0  0  0
 31 32  1  0  0  0
 32 33  2  0  0  0
 33 34  1  0  0  0
 34 35  2  0  0  0
 34  1  1  0  0  0
  1  2  2  0  0  0
  2  3  1  0  0  0
  3  4  2  0  0  0
  4  5  1  0  0  0
  5  6  1  0  0  0
  6  7  2  0  0  0
  7 11  1  0  0  0
 11 12  2  0  0  0
 12 13  1  0  0  0
 13 14  2  0  0  0
 14 18  1  0  0  0
 18 19  1  0  0  0
 19 20  2  0  0  0
 19 22  1  0  0  0
 22 23  1  0  0  0
 22 24  1  0  0  0
 24 25  2  0  0  0
 25 26  1  0  0  0
 26 27  2  0  0  0
 27 28  1  0  0  0
 28 29  2  0  0  0
 14 15  1  0  0  0
 15 16  1  0  0  0
 15 17  2  0  0  0
  7  8  1  0  0  0
  8  9  2  0  0  0
 35 30  1  0  0  0
  9  1  1  0  0  0
  8  4  1  0  0  0
 17 11  1  0  0  0
 29 24  1  0  0  0
 40 41  1  0  0  0
  5 10  1  0  0  0
 18 21  1  0  0  0
M  END
> <minimizedAffinity>
-8.72285

> <CNNscore>
0.1427991092

> <CNNaffinity>
6.6353392601

> <CNN_VS>
0.9475205541

> <CNNaffinity_variance>
0.1313117892

$$$$
[H]c1nc([H])n(C([H])([H])c2c([H])c([H])c([H])c(-c3nc(N4C([H])([H])C(=O)N(C([H])([H])c5c([H])c([H])c([H])c([H])c5[H])C([H])([H])[C@]4([H])C([H])([H])[H])c(C(=O)N([H])[H])s3)c2[H])c1[H]


 37 41  0  0  0  0  0  0  0  0999 V2000
    3.6375    3.8426   15.4072 C   0  0  0  0  0  0  0  0  0  0  0  0
    3.9457    3.8455   14.1433 N   0  0  0  0  0  0  0  0  0  0  0  0
    3.6816    4.8906   13.3945 C   0  0  0  0  0  0  0  0  0  0  0  0
    2.9546    5.9606   14.4970 S   0  0  0  0  0  0  0  0  0  0  0  0
    3.0339    4.9669   15.9159 C   0  0  0  0  0  0  0  0  0  0  0  0
    5.8325    3.9782   16.9835 C   0  0  0  0  0  0  0  0  0  0  0  0
    4.9995    2.7113   17.1193 C   0  0  0  0  0  0  0  0  0  0  0  0
    4.4673    2.6010   18.5438 C   0  0  0  0  0  0  0  0  0  0  0  0
    3.6853    1.3774   18.6102 N   0  0  0  0  0  0  0  0  0  0  0  0
    3.1789    0.7635   17.4305 C   0  0  0  0  0  0  0  0  0  0  0  0
    2.8180   -0.4317   17.4898 O   0  0  0  0  0  0  0  0  0  0  0  0
    3.0704    1.4985   16.1468 C   0  0  0  0  0  0  0  0  0  0  0  0
    3.8855    2.6700   16.2296 N   0  0  0  0  0  0  0  0  0  0  0  0
    3.4215    0.7884   19.8820 C   0  0  0  0  0  0  0  0  0  0  0  0
    4.3290    1.2394   20.9657 C   0  0  0  0  0  0  0  0  0  0  0  0
    5.6600    0.9517   20.9017 C   0  0  0  0  0  0  0  0  0  0  0  0
    6.4712    1.3932   21.9372 C   0  0  0  0  0  0  0  0  0  0  0  0
    5.9382    2.0958   22.9877 C   0  0  0  0  0  0  0  0  0  0  0  0
    4.6014    2.3678   23.0219 C   0  0  0  0  0  0  0  0  0  0  0  0
    3.7671    1.9422   22.0058 C   0  0  0  0  0  0  0  0  0  0  0  0
    3.9444    5.0785   11.9715 C   0  0  0  0  0  0  0  0  0  0  0  0
    4.0431    6.3407   11.4286 C   0  0  0  0  0  0  0  0  0  0  0  0
    4.2954    6.5353   10.0861 C   0  0  0  0  0  0  0  0  0  0  0  0
    4.4519    5.4322    9.2724 C   0  0  0  0  0  0  0  0  0  0  0  0
    4.3611    4.1455    9.7754 C   0  0  0  0  0  0  0  0  0  0  0  0
    4.1086    4.0109   11.1159 C   0  0  0  0  0  0  0  0  0  0  0  0
    4.5337    2.9519    8.8979 C   0  0  0  0  0  0  0  0  0  0  0  0
    5.8112    2.8909    8.2803 N   0  0  0  0  0  0  0  0  0  0  0  0
    6.9846    2.7233    8.8992 C   0  0  0  0  0  0  0  0  0  0  0  0
    7.9814    2.7190    7.9515 C   0  0  0  0  0  0  0  0  0  0  0  0
    7.3995    2.8865    6.7400 N   0  0  0  0  0  0  0  0  0  0  0  0
    6.0737    2.9886    6.9740 C   0  0  0  0  0  0  0  0  0  0  0  0
    2.6004    5.3021   17.2752 C   0  0  0  0  0  0  0  0  0  0  0  0
    3.2209    6.4157   17.8935 N   0  0  0  0  0  0  0  0  0  0  0  0
    1.7331    4.6707   17.8998 O   0  0  0  0  0  0  0  0  0  0  0  0
    2.6651    7.0739   18.4671 H   0  0  0  0  0  0  0  0  0  0  0  0
    4.2407    6.6069   17.7931 H   0  0  0  0  0  0  0  0  0  0  0  0
  6  7  1  0  0  0
  7  8  1  0  0  0
  8  9  1  0  0  0
  9 14  1  0  0  0
 14 15  1  0  0  0
 15 16  2  0  0  0
 16 17  1  0  0  0
 17 18  2  0  0  0
 18 19  1  0  0  0
 19 20  2  0  0  0
  9 10  1  0  0  0
 10 11  2  0  0  0
 10 12  1  0  0  0
 12 13  1  0  0  0
 13  1  1  0  0  0
  1  2  1  0  0  0
  2  3  2  0  0  0
  3  4  1  0  0  0
  4  5  1  0  0  0
  5 33  1  0  0  0
 33 34  1  0  0  0
 33 35  2  0  0  0
  3 21  1  0  0  0
 21 22  2  0  0  0
 22 23  1  0  0  0
 23 24  2  0  0  0
 24 25  1  0  0  0
 25 27  1  0  0  0
 27 28  1  0  0  0
 28 29  1  0  0  0
 29 30  2  0  0  0
 30 31  1  0  0  0
 31 32  2  0  0  0
 25 26  2  0  0  0
 13  7  1  0  0  0
  5  1  2  0  0  0
 26 21  1  0  0  0
 20 15  1  0  0  0
 32 28  1  0  0  0
 34 36  1  0  0  0
 34 37  1  0  0  0
M  END
> <minimizedAffinity>
-8.02229

> <CNNscore>
0.5727191567

> <CNNaffinity>
6.7398786545

> <CNN_VS>
3.8600575924

> <CNNaffinity_variance>
0.1469572634

$$$$
[H]c1nc([H])n(C([H])([H])c2c([H])c([H])c([H])c(-c3nc(N4C([H])([H])C(=O)N(C([H])([H])c5c([H])c([H])c([H])c([H])c5[H])C([H])([H])[C@]4([H])C([H])([H])[H])c(C(=O)N([H])[H])s3)c2[H])c1[H]


 37 41  0  0  0  0  0  0  0  0999 V2000
    3.6076    3.6002   15.4511 C   0  0  0  0  0  0  0  0  0  0  0  0
    3.9467    3.5513   14.1961 N   0  0  0  0  0  0  0  0  0  0  0  0
    3.7009    4.5644   13.3987 C   0  0  0  0  0  0  0  0  0  0  0  0
    2.9469    5.6781   14.4379 S   0  0  0  0  0  0  0  0  0  0  0  0
    2.9916    4.7438   15.8981 C   0  0  0  0  0  0  0  0  0  0  0  0
    5.7872    3.7849   17.0438 C   0  0  0  0  0  0  0  0  0  0  0  0
    4.9406    2.5330   17.2261 C   0  0  0  0  0  0  0  0  0  0  0  0
    4.3924    2.4906   18.6482 C   0  0  0  0  0  0  0  0  0  0  0  0
    3.5980    1.2783   18.7599 N   0  0  0  0  0  0  0  0  0  0  0  0
    3.0980    0.6177   17.6029 C   0  0  0  0  0  0  0  0  0  0  0  0
    2.7249   -0.5703   17.7108 O   0  0  0  0  0  0  0  0  0  0  0  0
    3.0101    1.2963   16.2870 C   0  0  0  0  0  0  0  0  0  0  0  0
    3.8356    2.4628   16.3270 N   0  0  0  0  0  0  0  0  0  0  0  0
    3.3152    0.7485   20.0534 C   0  0  0  0  0  0  0  0  0  0  0  0
    4.2262    1.2255   21.1230 C   0  0  0  0  0  0  0  0  0  0  0  0
    3.7210    1.8943   22.1981 C   0  0  0  0  0  0  0  0  0  0  0  0
    4.6096    2.3220   23.1742 C   0  0  0  0  0  0  0  0  0  0  0  0
    5.9527    2.0740   23.0492 C   0  0  0  0  0  0  0  0  0  0  0  0
    6.4268    1.4016   21.9604 C   0  0  0  0  0  0  0  0  0  0  0  0
    5.5675    0.9623   20.9714 C   0  0  0  0  0  0  0  0  0  0  0  0
    3.9983    4.6938   11.9760 C   0  0  0  0  0  0  0  0  0  0  0  0
    3.5058    3.7879   11.0625 C   0  0  0  0  0  0  0  0  0  0  0  0
    3.7743    3.8988    9.7136 C   0  0  0  0  0  0  0  0  0  0  0  0
    4.5571    4.9470    9.2757 C   0  0  0  0  0  0  0  0  0  0  0  0
    5.0728    5.8807   10.1582 C   0  0  0  0  0  0  0  0  0  0  0  0
    4.7747    5.7218   11.4868 C   0  0  0  0  0  0  0  0  0  0  0  0
    5.9162    7.0167    9.6861 C   0  0  0  0  0  0  0  0  0  0  0  0
    6.9696    7.3419   10.5815 N   0  0  0  0  0  0  0  0  0  0  0  0
    8.1344    6.6969   10.7042 C   0  0  0  0  0  0  0  0  0  0  0  0
    8.8791    7.3216   11.6773 C   0  0  0  0  0  0  0  0  0  0  0  0
    8.1514    8.3617   12.1496 N   0  0  0  0  0  0  0  0  0  0  0  0
    6.9902    8.3476   11.4608 C   0  0  0  0  0  0  0  0  0  0  0  0
    2.5249    5.1342   17.2314 C   0  0  0  0  0  0  0  0  0  0  0  0
    3.1453    6.2599   17.8276 N   0  0  0  0  0  0  0  0  0  0  0  0
    1.6300    4.5389   17.8526 O   0  0  0  0  0  0  0  0  0  0  0  0
    2.5841    6.9466   18.3610 H   0  0  0  0  0  0  0  0  0  0  0  0
    4.1706    6.4318   17.7503 H   0  0  0  0  0  0  0  0  0  0  0  0
  6  7  1  0  0  0
  7  8  1  0  0  0
  8  9  1  0  0  0
  9 14  1  0  0  0
 14 15  1  0  0  0
 15 16  2  0  0  0
 16 17  1  0  0  0
 17 18  2  0  0  0
 18 19  1  0  0  0
 19 20  2  0  0  0
  9 10  1  0  0  0
 10 11  2  0  0  0
 10 12  1  0  0  0
 12 13  1  0  0  0
 13  1  1  0  0  0
  1  2  1  0  0  0
  2  3  2  0  0  0
  3  4  1  0  0  0
  4  5  1  0  0  0
  5 33  1  0  0  0
 33 34  1  0  0  0
 33 35  2  0  0  0
  3 21  1  0  0  0
 21 22  2  0  0  0
 22 23  1  0  0  0
 23 24  2  0  0  0
 24 25  1  0  0  0
 25 27  1  0  0  0
 27 28  1  0  0  0
 28 29  1  0  0  0
 29 30  2  0  0  0
 30 31  1  0  0  0
 31 32  2  0  0  0
 25 26  2  0  0  0
 13  7  1  0  0  0
  5  1  2  0  0  0
 26 21  1  0  0  0
 20 15  1  0  0  0
 32 28  1  0  0  0
 34 36  1  0  0  0
 34 37  1  0  0  0
M  END
> <minimizedAffinity>
-8.58142

> <CNNscore>
0.5197374821

> <CNNaffinity>
6.8020071983

> <CNN_VS>
3.5352580547

> <CNNaffinity_variance>
0.2474329770

$$$$
[H]c1nc([H])n(C([H])([H])c2c([H])c([H])c([H])c(-c3nc(N4C([H])([H])C(=O)N(C([H])([H])c5c([H])c([H])c([H])c([H])c5[H])C([H])([H])[C@]4([H])C([H])([H])[H])c(C(=O)N([H])[H])s3)c2[H])c1[H]


 37 41  0  0  0  0  0  0  0  0999 V2000
    3.6987    2.4894   17.7823 C   0  0  0  0  0  0  0  0  0  0  0  0
    4.3971    3.4148   18.3725 N   0  0  0  0  0  0  0  0  0  0  0  0
    4.8747    3.2223   19.5798 C   0  0  0  0  0  0  0  0  0  0  0  0
    4.3319    1.6537   19.9459 S   0  0  0  0  0  0  0  0  0  0  0  0
    3.4885    1.3181   18.4685 C   0  0  0  0  0  0  0  0  0  0  0  0
    2.2134    4.7375   17.5352 C   0  0  0  0  0  0  0  0  0  0  0  0
    2.3818    3.9147   16.2656 C   0  0  0  0  0  0  0  0  0  0  0  0
    3.1017    4.7469   15.2103 C   0  0  0  0  0  0  0  0  0  0  0  0
    3.2308    3.9115   14.0276 N   0  0  0  0  0  0  0  0  0  0  0  0
    3.1286    2.4947   14.1135 C   0  0  0  0  0  0  0  0  0  0  0  0
    2.9061    1.8497   13.0662 O   0  0  0  0  0  0  0  0  0  0  0  0
    3.2774    1.7728   15.4005 C   0  0  0  0  0  0  0  0  0  0  0  0
    3.1286    2.7160   16.4646 N   0  0  0  0  0  0  0  0  0  0  0  0
    3.4670    4.5272   12.7631 C   0  0  0  0  0  0  0  0  0  0  0  0
    2.3723    5.4158   12.3008 C   0  0  0  0  0  0  0  0  0  0  0  0
    1.1349    4.8991   12.0556 C   0  0  0  0  0  0  0  0  0  0  0  0
    0.1415    5.7669   11.6248 C   0  0  0  0  0  0  0  0  0  0  0  0
    0.4092    7.1011   11.4540 C   0  0  0  0  0  0  0  0  0  0  0  0
    1.6588    7.5872   11.7082 C   0  0  0  0  0  0  0  0  0  0  0  0
    2.6694    6.7488   12.1388 C   0  0  0  0  0  0  0  0  0  0  0  0
    5.6679    4.1328   20.3990 C   0  0  0  0  0  0  0  0  0  0  0  0
    6.1487    3.7439   21.6299 C   0  0  0  0  0  0  0  0  0  0  0  0
    6.9037    4.5913   22.4147 C   0  0  0  0  0  0  0  0  0  0  0  0
    7.1804    5.8597   21.9475 C   0  0  0  0  0  0  0  0  0  0  0  0
    6.7179    6.2924   20.7165 C   0  0  0  0  0  0  0  0  0  0  0  0
    5.9724    5.4094   19.9791 C   0  0  0  0  0  0  0  0  0  0  0  0
    7.0192    7.6619   20.2083 C   0  0  0  0  0  0  0  0  0  0  0  0
    5.8753    8.3365   19.7048 N   0  0  0  0  0  0  0  0  0  0  0  0
    5.6367    8.6485   18.4266 C   0  0  0  0  0  0  0  0  0  0  0  0
    4.4250    9.2951   18.3539 C   0  0  0  0  0  0  0  0  0  0  0  0
    3.9236    9.3743   19.6096 N   0  0  0  0  0  0  0  0  0  0  0  0
    4.8324    8.7803   20.4121 C   0  0  0  0  0  0  0  0  0  0  0  0
    2.7940    0.0847   18.0885 C   0  0  0  0  0  0  0  0  0  0  0  0
    2.0294   -0.5601   19.0920 N   0  0  0  0  0  0  0  0  0  0  0  0
    2.8415   -0.4137   16.9525 O   0  0  0  0  0  0  0  0  0  0  0  0
    1.1110   -0.9789   18.8634 H   0  0  0  0  0  0  0  0  0  0  0  0
    2.3601   -0.6329   20.0779 H   0  0  0  0  0  0  0  0  0  0  0  0
  6  7  1  0  0  0
  7  8  1  0  0  0
  8  9  1  0  0  0
  9 14  1  0  0  0
 14 15  1  0  0  0
 15 16  2  0  0  0
 16 17  1  0  0  0
 17 18  2  0  0  0
 18 19  1  0  0  0
 19 20  2  0  0  0
  9 10  1  0  0  0
 10 11  2  0  0  0
 10 12  1  0  0  0
 12 13  1  0  0  0
 13  1  1  0  0  0
  1  2  1  0  0  0
  2  3  2  0  0  0
  3  4  1  0  0  0
  4  5  1  0  0  0
  5 33  1  0  0  0
 33 34  1  0  0  0
 33 35  2  0  0  0
  3 21  1  0  0  0
 21 22  2  0  0  0
 22 23  1  0  0  0
 23 24  2  0  0  0
 24 25  1  0  0  0
 25 27  1  0  0  0
 27 28  1  0  0  0
 28 29  1  0  0  0
 29 30  2  0  0  0
 30 31  1  0  0  0
 31 32  2  0  0  0
 25 26  2  0  0  0
 13  7  1  0  0  0
  5  1  2  0  0  0
 26 21  1  0  0  0
 20 15  1  0  0  0
 32 28  1  0  0  0
 34 36  1  0  0  0
 34 37  1  0  0  0
M  END
> <minimizedAffinity>
-8.24291

> <CNNscore>
0.4044752121

> <CNNaffinity>
6.6215186119

> <CNN_VS>
2.6782400608

> <CNNaffinity_variance>
0.5416032076

$$$$
[H]c1nc([H])n(C([H])([H])c2c([H])c([H])c([H])c(-c3nc(N4C([H])([H])C(=O)N(C([H])([H])c5c([H])c([H])c([H])c([H])c5[H])C([H])([H])[C@]4([H])C([H])([H])[H])c(C(=O)N([H])[H])s3)c2[H])c1[H]


 37 41  0  0  0  0  0  0  0  0999 V2000
    3.9900    3.6325   16.2892 C   0  0  0  0  0  0  0  0  0  0  0  0
    3.6831    3.8923   15.0519 N   0  0  0  0  0  0  0  0  0  0  0  0
    3.2531    2.9405   14.2571 C   0  0  0  0  0  0  0  0  0  0  0  0
    3.2648    1.5778   15.2729 S   0  0  0  0  0  0  0  0  0  0  0  0
    3.8439    2.3365   16.7206 C   0  0  0  0  0  0  0  0  0  0  0  0
    2.1215    5.1610   17.5112 C   0  0  0  0  0  0  0  0  0  0  0  0
    3.5675    5.4729   17.8706 C   0  0  0  0  0  0  0  0  0  0  0  0
    3.7840    5.2403   19.3617 C   0  0  0  0  0  0  0  0  0  0  0  0
    5.1755    5.5545   19.6417 N   0  0  0  0  0  0  0  0  0  0  0  0
    6.1479    5.5754   18.6030 C   0  0  0  0  0  0  0  0  0  0  0  0
    7.2290    6.1668   18.8120 O   0  0  0  0  0  0  0  0  0  0  0  0
    5.9126    4.9206   17.2931 C   0  0  0  0  0  0  0  0  0  0  0  0
    4.5109    4.6735   17.1596 N   0  0  0  0  0  0  0  0  0  0  0  0
    5.5676    5.8426   20.9822 C   0  0  0  0  0  0  0  0  0  0  0  0
    5.2656    4.7627   21.9540 C   0  0  0  0  0  0  0  0  0  0  0  0
    4.1874    4.8740   22.7807 C   0  0  0  0  0  0  0  0  0  0  0  0
    3.9431    3.8403   23.6735 C   0  0  0  0  0  0  0  0  0  0  0  0
    4.7689    2.7460   23.7139 C   0  0  0  0  0  0  0  0  0  0  0  0
    5.8403    2.6648   22.8726 C   0  0  0  0  0  0  0  0  0  0  0  0
    6.1102    3.6775   21.9719 C   0  0  0  0  0  0  0  0  0  0  0  0
    2.8678    3.0343   12.8528 C   0  0  0  0  0  0  0  0  0  0  0  0
    2.3912    4.2140   12.3248 C   0  0  0  0  0  0  0  0  0  0  0  0
    2.0268    4.3202   10.9982 C   0  0  0  0  0  0  0  0  0  0  0  0
    2.1459    3.2117   10.1854 C   0  0  0  0  0  0  0  0  0  0  0  0
    2.6204    2.0063   10.6735 C   0  0  0  0  0  0  0  0  0  0  0  0
    2.9672    1.9574   11.9988 C   0  0  0  0  0  0  0  0  0  0  0  0
    2.7533    0.8080    9.7954 C   0  0  0  0  0  0  0  0  0  0  0  0
    4.0948    0.5388    9.4147 N   0  0  0  0  0  0  0  0  0  0  0  0
    4.9405    1.3937    8.8299 C   0  0  0  0  0  0  0  0  0  0  0  0
    6.1392    0.7511    8.6257 C   0  0  0  0  0  0  0  0  0  0  0  0
    6.0149   -0.5131    9.0955 N   0  0  0  0  0  0  0  0  0  0  0  0
    4.7551   -0.6121    9.5707 C   0  0  0  0  0  0  0  0  0  0  0  0
    4.0587    1.7235   18.0344 C   0  0  0  0  0  0  0  0  0  0  0  0
    3.2049    0.6511   18.3928 N   0  0  0  0  0  0  0  0  0  0  0  0
    4.9351    2.0902   18.8335 O   0  0  0  0  0  0  0  0  0  0  0  0
    3.5809   -0.1745   18.8908 H   0  0  0  0  0  0  0  0  0  0  0  0
    2.1865    0.6571   18.1705 H   0  0  0  0  0  0  0  0  0  0  0  0
  6  7  1  0  0  0
  7  8  1  0  0  0
  8  9  1  0  0  0
  9 14  1  0  0  0
 14 15  1  0  0  0
 15 16  2  0  0  0
 16 17  1  0  0  0
 17 18  2  0  0  0
 18 19  1  0  0  0
 19 20  2  0  0  0
  9 10  1  0  0  0
 10 11  2  0  0  0
 10 12  1  0  0  0
 12 13  1  0  0  0
 13  1  1  0  0  0
  1  2  1  0  0  0
  2  3  2  0  0  0
  3  4  1  0  0  0
  4  5  1  0  0  0
  5 33  1  0  0  0
 33 34  1  0  0  0
 33 35  2  0  0  0
  3 21  1  0  0  0
 21 22  2  0  0  0
 22 23  1  0  0  0
 23 24  2  0  0  0
 24 25  1  0  0  0
 25 27  1  0  0  0
 27 28  1  0  0  0
 28 29  1  0  0  0
 29 30  2  0  0  0
 30 31  1  0  0  0
 31 32  2  0  0  0
 25 26  2  0  0  0
 13  7  1  0  0  0
  5  1  2  0  0  0
 26 21  1  0  0  0
 20 15  1  0  0  0
 32 28  1  0  0  0
 34 36  1  0  0  0
 34 37  1  0  0  0
M  END
> <minimizedAffinity>
-7.93301

> <CNNscore>
0.3442537487

> <CNNaffinity>
6.5891175270

> <CNN_VS>
2.2683284283

> <CNNaffinity_variance>
0.3415689766

$$$$
[H]c1nc([H])n(C([H])([H])c2c([H])c([H])c([H])c(-c3nc(N4C([H])([H])C(=O)N(C([H])([H])c5c([H])c([H])c([H])c([H])c5[H])C([H])([H])[C@]4([H])C([H])([H])[H])c(C(=O)N([H])[H])s3)c2[H])c1[H]


 37 41  0  0  0  0  0  0  0  0999 V2000
    3.9040    3.5607   16.3071 C   0  0  0  0  0  0  0  0  0  0  0  0
    3.5536    3.8170   15.0807 N   0  0  0  0  0  0  0  0  0  0  0  0
    3.0977    2.8625   14.3038 C   0  0  0  0  0  0  0  0  0  0  0  0
    3.1471    1.5023   15.3218 S   0  0  0  0  0  0  0  0  0  0  0  0
    3.7752    2.2656   16.7466 C   0  0  0  0  0  0  0  0  0  0  0  0
    2.0765    5.1192   17.5532 C   0  0  0  0  0  0  0  0  0  0  0  0
    3.5327    5.4201   17.8791 C   0  0  0  0  0  0  0  0  0  0  0  0
    3.7784    5.1996   19.3675 C   0  0  0  0  0  0  0  0  0  0  0  0
    5.1784    5.5027   19.6152 N   0  0  0  0  0  0  0  0  0  0  0  0
    6.1289    5.5041   18.5562 C   0  0  0  0  0  0  0  0  0  0  0  0
    7.2199    6.0867   18.7367 O   0  0  0  0  0  0  0  0  0  0  0  0
    5.8597    4.8392   17.2579 C   0  0  0  0  0  0  0  0  0  0  0  0
    4.4531    4.6048   17.1563 N   0  0  0  0  0  0  0  0  0  0  0  0
    5.6015    5.7996   20.9444 C   0  0  0  0  0  0  0  0  0  0  0  0
    5.2823    4.7452   21.9385 C   0  0  0  0  0  0  0  0  0  0  0  0
    4.2069    4.8917   22.7632 C   0  0  0  0  0  0  0  0  0  0  0  0
    3.9461    3.8809   23.6774 C   0  0  0  0  0  0  0  0  0  0  0  0
    4.7535    2.7740   23.7399 C   0  0  0  0  0  0  0  0  0  0  0  0
    5.8226    2.6575   22.8999 C   0  0  0  0  0  0  0  0  0  0  0  0
    6.1086    3.6466   21.9783 C   0  0  0  0  0  0  0  0  0  0  0  0
    2.6635    2.9521   12.9136 C   0  0  0  0  0  0  0  0  0  0  0  0
    2.8849    1.9164   12.0326 C   0  0  0  0  0  0  0  0  0  0  0  0
    2.4768    1.9838   10.7163 C   0  0  0  0  0  0  0  0  0  0  0  0
    1.8305    3.1213   10.2781 C   0  0  0  0  0  0  0  0  0  0  0  0
    1.5868    4.1861   11.1288 C   0  0  0  0  0  0  0  0  0  0  0  0
    2.0143    4.0653   12.4256 C   0  0  0  0  0  0  0  0  0  0  0  0
    0.8851    5.4150   10.6578 C   0  0  0  0  0  0  0  0  0  0  0  0
   -0.2803    5.7179   11.4111 N   0  0  0  0  0  0  0  0  0  0  0  0
   -0.4002    6.6753   12.3367 C   0  0  0  0  0  0  0  0  0  0  0  0
   -1.6829    6.6453   12.8323 C   0  0  0  0  0  0  0  0  0  0  0  0
   -2.3484    5.6530   12.1945 N   0  0  0  0  0  0  0  0  0  0  0  0
   -1.4649    5.1052   11.3329 C   0  0  0  0  0  0  0  0  0  0  0  0
    4.0368    1.6562   18.0535 C   0  0  0  0  0  0  0  0  0  0  0  0
    3.1966    0.5846   18.4450 N   0  0  0  0  0  0  0  0  0  0  0  0
    4.9409    2.0253   18.8201 O   0  0  0  0  0  0  0  0  0  0  0  0
    3.5904   -0.2396   18.9316 H   0  0  0  0  0  0  0  0  0  0  0  0
    2.1709    0.5897   18.2591 H   0  0  0  0  0  0  0  0  0  0  0  0
  6  7  1  0  0  0
  7  8  1  0  0  0
  8  9  1  0  0  0
  9 14  1  0  0  0
 14 15  1  0  0  0
 15 16  2  0  0  0
 16 17  1  0  0  0
 17 18  2  0  0  0
 18 19  1  0  0  0
 19 20  2  0  0  0
  9 10  1  0  0  0
 10 11  2  0  0  0
 10 12  1  0  0  0
 12 13  1  0  0  0
 13  1  1  0  0  0
  1  2  1  0  0  0
  2  3  2  0  0  0
  3  4  1  0  0  0
  4  5  1  0  0  0
  5 33  1  0  0  0
 33 34  1  0  0  0
 33 35  2  0  0  0
  3 21  1  0  0  0
 21 22  2  0  0  0
 22 23  1  0  0  0
 23 24  2  0  0  0
 24 25  1  0  0  0
 25 27  1  0  0  0
 27 28  1  0  0  0
 28 29  1  0  0  0
 29 30  2  0  0  0
 30 31  1  0  0  0
 31 32  2  0  0  0
 25 26  2  0  0  0
 13  7  1  0  0  0
  5  1  2  0  0  0
 26 21  1  0  0  0
 20 15  1  0  0  0
 32 28  1  0  0  0
 34 36  1  0  0  0
 34 37  1  0  0  0
M  END
> <minimizedAffinity>
-7.99465

> <CNNscore>
0.3283883631

> <CNNaffinity>
6.6058402061

> <CNN_VS>
2.1692810059

> <CNNaffinity_variance>
0.2139116079

$$$$
[H]c1nc([H])n(C([H])([H])c2c([H])c([H])c([H])c(-c3nc(N4C([H])([H])C(=O)N(C([H])([H])c5c([H])c([H])c([H])c([H])c5[H])C([H])([H])[C@]4([H])C([H])([H])[H])c(C(=O)N([H])[H])s3)c2[H])c1[H]


 37 41  0  0  0  0  0  0  0  0999 V2000
    4.0002    3.6067   16.2813 C   0  0  0  0  0  0  0  0  0  0  0  0
    3.7364    3.8441   15.0297 N   0  0  0  0  0  0  0  0  0  0  0  0
    3.3315    2.8784   14.2384 C   0  0  0  0  0  0  0  0  0  0  0  0
    3.3052    1.5347   15.2789 S   0  0  0  0  0  0  0  0  0  0  0  0
    3.8363    2.3192   16.7314 C   0  0  0  0  0  0  0  0  0  0  0  0
    2.0951    5.1680   17.4011 C   0  0  0  0  0  0  0  0  0  0  0  0
    3.5282    5.4806   17.8084 C   0  0  0  0  0  0  0  0  0  0  0  0
    3.6872    5.2773   19.3110 C   0  0  0  0  0  0  0  0  0  0  0  0
    5.0688    5.5908   19.6369 N   0  0  0  0  0  0  0  0  0  0  0  0
    6.0797    5.5863   18.6354 C   0  0  0  0  0  0  0  0  0  0  0  0
    7.1553    6.1769   18.8731 O   0  0  0  0  0  0  0  0  0  0  0  0
    5.8905    4.9062   17.3310 C   0  0  0  0  0  0  0  0  0  0  0  0
    4.4934    4.6627   17.1497 N   0  0  0  0  0  0  0  0  0  0  0  0
    5.4118    5.9042   20.9852 C   0  0  0  0  0  0  0  0  0  0  0  0
    5.1835    4.7985   21.9480 C   0  0  0  0  0  0  0  0  0  0  0  0
    4.1126    4.8408   22.7904 C   0  0  0  0  0  0  0  0  0  0  0  0
    3.9382    3.7852   23.6740 C   0  0  0  0  0  0  0  0  0  0  0  0
    4.8234    2.7377   23.6900 C   0  0  0  0  0  0  0  0  0  0  0  0
    5.8856    2.7253   22.8334 C   0  0  0  0  0  0  0  0  0  0  0  0
    6.0866    3.7613   21.9413 C   0  0  0  0  0  0  0  0  0  0  0  0
    2.9948    2.9468   12.8202 C   0  0  0  0  0  0  0  0  0  0  0  0
    2.6017    1.8219   12.1290 C   0  0  0  0  0  0  0  0  0  0  0  0
    2.2758    1.8706   10.7891 C   0  0  0  0  0  0  0  0  0  0  0  0
    2.3478    3.0812   10.1311 C   0  0  0  0  0  0  0  0  0  0  0  0
    2.7375    4.2368   10.7863 C   0  0  0  0  0  0  0  0  0  0  0  0
    3.0502    4.1304   12.1167 C   0  0  0  0  0  0  0  0  0  0  0  0
    2.8123    5.5470   10.0775 C   0  0  0  0  0  0  0  0  0  0  0  0
    2.1752    6.6024   10.7828 N   0  0  0  0  0  0  0  0  0  0  0  0
    2.7805    7.5713   11.4776 C   0  0  0  0  0  0  0  0  0  0  0  0
    1.8159    8.3953   12.0090 C   0  0  0  0  0  0  0  0  0  0  0  0
    0.6080    7.9157   11.6279 N   0  0  0  0  0  0  0  0  0  0  0  0
    0.8607    6.8202   10.8803 C   0  0  0  0  0  0  0  0  0  0  0  0
    4.0046    1.7302   18.0628 C   0  0  0  0  0  0  0  0  0  0  0  0
    3.1743    0.6300   18.3908 N   0  0  0  0  0  0  0  0  0  0  0  0
    4.8231    2.1397   18.9016 O   0  0  0  0  0  0  0  0  0  0  0  0
    3.5545   -0.1746   18.9190 H   0  0  0  0  0  0  0  0  0  0  0  0
    2.1695    0.5942   18.1156 H   0  0  0  0  0  0  0  0  0  0  0  0
  6  7  1  0  0  0
  7  8  1  0  0  0
  8  9  1  0  0  0
  9 14  1  0  0  0
 14 15  1  0  0  0
 15 16  2  0  0  0
 16 17  1  0  0  0
 17 18  2  0  0  0
 18 19  1  0  0  0
 19 20  2  0  0  0
  9 10  1  0  0  0
 10 11  2  0  0  0
 10 12  1  0  0  0
 12 13  1  0  0  0
 13  1  1  0  0  0
  1  2  1  0  0  0
  2  3  2  0  0  0
  3  4  1  0  0  0
  4  5  1  0  0  0
  5 33  1  0  0  0
 33 34  1  0  0  0
 33 35  2  0  0  0
  3 21  1  0  0  0
 21 22  2  0  0  0
 22 23  1  0  0  0
 23 24  2  0  0  0
 24 25  1  0  0  0
 25 27  1  0  0  0
 27 28  1  0  0  0
 28 29  1  0  0  0
 29 30  2  0  0  0
 30 31  1  0  0  0
 31 32  2  0  0  0
 25 26  2  0  0  0
 13  7  1  0  0  0
  5  1  2  0  0  0
 26 21  1  0  0  0
 20 15  1  0  0  0
 32 28  1  0  0  0
 34 36  1  0  0  0
 34 37  1  0  0  0
M  END
> <minimizedAffinity>
-8.17913

> <CNNscore>
0.3128588796

> <CNNaffinity>
6.5895256996

> <CNN_VS>
2.0615916252

> <CNNaffinity_variance>
0.2447689325

$$$$
[H]c1nc([H])n(C([H])([H])c2c([H])c([H])c([H])c(-c3nc(N4C([H])([H])C(=O)N(C([H])([H])c5c([H])c([H])c([H])c([H])c5[H])C([H])([H])[C@]4([H])C([H])([H])[H])c(C(=O)N([H])[H])s3)c2[H])c1[H]


 37 41  0  0  0  0  0  0  0  0999 V2000
    4.0863    3.2468   18.2589 C   0  0  0  0  0  0  0  0  0  0  0  0
    3.6714    3.5555   17.0651 N   0  0  0  0  0  0  0  0  0  0  0  0
    3.2449    2.6236   16.2453 C   0  0  0  0  0  0  0  0  0  0  0  0
    3.4201    1.2089   17.1709 S   0  0  0  0  0  0  0  0  0  0  0  0
    4.0563    1.9213   18.6182 C   0  0  0  0  0  0  0  0  0  0  0  0
    6.2288    4.6166   17.3347 C   0  0  0  0  0  0  0  0  0  0  0  0
    5.6984    5.0579   18.6916 C   0  0  0  0  0  0  0  0  0  0  0  0
    5.2324    6.5073   18.6103 C   0  0  0  0  0  0  0  0  0  0  0  0
    4.7408    6.8688   19.9297 N   0  0  0  0  0  0  0  0  0  0  0  0
    4.3584    5.8719   20.8704 C   0  0  0  0  0  0  0  0  0  0  0  0
    4.2709    6.1931   22.0751 O   0  0  0  0  0  0  0  0  0  0  0  0
    4.0647    4.4769   20.4612 C   0  0  0  0  0  0  0  0  0  0  0  0
    4.6031    4.2695   19.1532 N   0  0  0  0  0  0  0  0  0  0  0  0
    4.6390    8.2473   20.2807 C   0  0  0  0  0  0  0  0  0  0  0  0
    5.8126    8.7802   21.0158 C   0  0  0  0  0  0  0  0  0  0  0  0
    5.6389    9.3937   22.2207 C   0  0  0  0  0  0  0  0  0  0  0  0
    6.7644    9.8768   22.8727 C   0  0  0  0  0  0  0  0  0  0  0  0
    8.0078    9.7361   22.3112 C   0  0  0  0  0  0  0  0  0  0  0  0
    8.1480    9.1168   21.1033 C   0  0  0  0  0  0  0  0  0  0  0  0
    7.0467    8.6245   20.4293 C   0  0  0  0  0  0  0  0  0  0  0  0
    2.7502    2.7711   14.8804 C   0  0  0  0  0  0  0  0  0  0  0  0
    1.9657    1.7983   14.3008 C   0  0  0  0  0  0  0  0  0  0  0  0
    1.4865    1.9247   13.0130 C   0  0  0  0  0  0  0  0  0  0  0  0
    1.8055    3.0577   12.2933 C   0  0  0  0  0  0  0  0  0  0  0  0
    2.5905    4.0605   12.8361 C   0  0  0  0  0  0  0  0  0  0  0  0
    3.0396    3.8825   14.1190 C   0  0  0  0  0  0  0  0  0  0  0  0
    2.9333    5.2877   12.0608 C   0  0  0  0  0  0  0  0  0  0  0  0
    2.6411    6.4902   12.7578 N   0  0  0  0  0  0  0  0  0  0  0  0
    3.5280    7.3936   13.1880 C   0  0  0  0  0  0  0  0  0  0  0  0
    2.8463    8.4111   13.8138 C   0  0  0  0  0  0  0  0  0  0  0  0
    1.5254    8.1169   13.7599 N   0  0  0  0  0  0  0  0  0  0  0  0
    1.4322    6.9376   13.1092 C   0  0  0  0  0  0  0  0  0  0  0  0
    4.4079    1.2501   19.8728 C   0  0  0  0  0  0  0  0  0  0  0  0
    3.3630    0.5903   20.5658 N   0  0  0  0  0  0  0  0  0  0  0  0
    5.5541    1.2313   20.3492 O   0  0  0  0  0  0  0  0  0  0  0  0
    3.5305   -0.3252   21.0185 H   0  0  0  0  0  0  0  0  0  0  0  0
    2.4064    0.9975   20.6417 H   0  0  0  0  0  0  0  0  0  0  0  0
  6  7  1  0  0  0
  7  8  1  0  0  0
  8  9  1  0  0  0
  9 14  1  0  0  0
 14 15  1  0  0  0
 15 16  2  0  0  0
 16 17  1  0  0  0
 17 18  2  0  0  0
 18 19  1  0  0  0
 19 20  2  0  0  0
  9 10  1  0  0  0
 10 11  2  0  0  0
 10 12  1  0  0  0
 12 13  1  0  0  0
 13  1  1  0  0  0
  1  2  1  0  0  0
  2  3  2  0  0  0
  3  4  1  0  0  0
  4  5  1  0  0  0
  5 33  1  0  0  0
 33 34  1  0  0  0
 33 35  2  0  0  0
  3 21  1  0  0  0
 21 22  2  0  0  0
 22 23  1  0  0  0
 23 24  2  0  0  0
 24 25  1  0  0  0
 25 27  1  0  0  0
 27 28  1  0  0  0
 28 29  1  0  0  0
 29 30  2  0  0  0
 30 31  1  0  0  0
 31 32  2  0  0  0
 25 26  2  0  0  0
 13  7  1  0  0  0
  5  1  2  0  0  0
 26 21  1  0  0  0
 20 15  1  0  0  0
 32 28  1  0  0  0
 34 36  1  0  0  0
 34 37  1  0  0  0
M  END
> <minimizedAffinity>
-8.40074

> <CNNscore>
0.2962919474

> <CNNaffinity>
6.6631598473

> <CNN_VS>
1.9742406607

> <CNNaffinity_variance>
0.2996235490

$$$$
[H]c1nc([H])n(C([H])([H])c2c([H])c([H])c([H])c(-c3nc(N4C([H])([H])C(=O)N(C([H])([H])c5c([H])c([H])c([H])c([H])c5[H])C([H])([H])[C@]4([H])C([H])([H])[H])c(C(=O)N([H])[H])s3)c2[H])c1[H]


 37 41  0  0  0  0  0  0  0  0999 V2000
    4.1372    3.8890   17.0401 C   0  0  0  0  0  0  0  0  0  0  0  0
    3.6336    4.0469   15.8511 N   0  0  0  0  0  0  0  0  0  0  0  0
    3.0790    3.0373   15.2220 C   0  0  0  0  0  0  0  0  0  0  0  0
    3.2542    1.7662   16.3368 S   0  0  0  0  0  0  0  0  0  0  0  0
    4.0618    2.6370   17.6003 C   0  0  0  0  0  0  0  0  0  0  0  0
    2.5139    5.4590   18.5304 C   0  0  0  0  0  0  0  0  0  0  0  0
    3.9926    5.8188   18.5637 C   0  0  0  0  0  0  0  0  0  0  0  0
    4.5179    5.6858   19.9888 C   0  0  0  0  0  0  0  0  0  0  0  0
    5.9270    6.0419   19.9558 N   0  0  0  0  0  0  0  0  0  0  0  0
    6.6641    6.0137   18.7389 C   0  0  0  0  0  0  0  0  0  0  0  0
    7.7465    6.6364   18.6844 O   0  0  0  0  0  0  0  0  0  0  0  0
    6.1848    5.2726   17.5469 C   0  0  0  0  0  0  0  0  0  0  0  0
    4.7938    4.9926   17.7212 N   0  0  0  0  0  0  0  0  0  0  0  0
    6.5772    6.4219   21.1668 C   0  0  0  0  0  0  0  0  0  0  0  0
    6.6211    7.8858   21.4049 C   0  0  0  0  0  0  0  0  0  0  0  0
    5.5376    8.6563   21.1040 C   0  0  0  0  0  0  0  0  0  0  0  0
    5.6232   10.0205   21.3431 C   0  0  0  0  0  0  0  0  0  0  0  0
    6.7685   10.5648   21.8656 C   0  0  0  0  0  0  0  0  0  0  0  0
    7.8360    9.7659   22.1562 C   0  0  0  0  0  0  0  0  0  0  0  0
    7.7819    8.4038   21.9300 C   0  0  0  0  0  0  0  0  0  0  0  0
    2.4707    3.0166   13.8958 C   0  0  0  0  0  0  0  0  0  0  0  0
    2.7407    1.9995   13.0068 C   0  0  0  0  0  0  0  0  0  0  0  0
    2.1704    1.9631   11.7509 C   0  0  0  0  0  0  0  0  0  0  0  0
    1.3079    2.9752   11.3830 C   0  0  0  0  0  0  0  0  0  0  0  0
    1.0077    4.0166   12.2444 C   0  0  0  0  0  0  0  0  0  0  0  0
    1.6029    4.0026   13.4792 C   0  0  0  0  0  0  0  0  0  0  0  0
    0.0727    5.1095   11.8497 C   0  0  0  0  0  0  0  0  0  0  0  0
    0.7152    6.3662   11.6915 N   0  0  0  0  0  0  0  0  0  0  0  0
    0.8638    7.3055   12.6315 C   0  0  0  0  0  0  0  0  0  0  0  0
    1.5391    8.3702   12.0820 C   0  0  0  0  0  0  0  0  0  0  0  0
    1.8029    8.0681   10.7884 N   0  0  0  0  0  0  0  0  0  0  0  0
    1.2871    6.8379   10.5800 C   0  0  0  0  0  0  0  0  0  0  0  0
    4.4867    2.1352   18.9101 C   0  0  0  0  0  0  0  0  0  0  0  0
    3.7546    1.0508   19.4536 N   0  0  0  0  0  0  0  0  0  0  0  0
    5.4383    2.6043   19.5548 O   0  0  0  0  0  0  0  0  0  0  0  0
    4.2428    0.2846   19.9493 H   0  0  0  0  0  0  0  0  0  0  0  0
    2.7171    0.9887   19.3736 H   0  0  0  0  0  0  0  0  0  0  0  0
  6  7  1  0  0  0
  7  8  1  0  0  0
  8  9  1  0  0  0
  9 14  1  0  0  0
 14 15  1  0  0  0
 15 16  2  0  0  0
 16 17  1  0  0  0
 17 18  2  0  0  0
 18 19  1  0  0  0
 19 20  2  0  0  0
  9 10  1  0  0  0
 10 11  2  0  0  0
 10 12  1  0  0  0
 12 13  1  0  0  0
 13  1  1  0  0  0
  1  2  1  0  0  0
  2  3  2  0  0  0
  3  4  1  0  0  0
  4  5  1  0  0  0
  5 33  1  0  0  0
 33 34  1  0  0  0
 33 35  2  0  0  0
  3 21  1  0  0  0
 21 22  2  0  0  0
 22 23  1  0  0  0
 23 24  2  0  0  0
 24 25  1  0  0  0
 25 27  1  0  0  0
 27 28  1  0  0  0
 28 29  1  0  0  0
 29 30  2  0  0  0
 30 31  1  0  0  0
 31 32  2  0  0  0
 25 26  2  0  0  0
 13  7  1  0  0  0
  5  1  2  0  0  0
 26 21  1  0  0  0
 20 15  1  0  0  0
 32 28  1  0  0  0
 34 36  1  0  0  0
 34 37  1  0  0  0
M  END
> <minimizedAffinity>
-7.50030

> <CNNscore>
0.2602246702

> <CNNaffinity>
6.2925767899

> <CNN_VS>
1.6374837160

> <CNNaffinity_variance>
0.0978188440

$$$$
[H]c1nc([H])n(C([H])([H])c2c([H])c([H])c([H])c(-c3nc(N4C([H])([H])C(=O)N(C([H])([H])c5c([H])c([H])c([H])c([H])c5[H])C([H])([H])[C@]4([H])C([H])([H])[H])c(C(=O)N([H])[H])s3)c2[H])c1[H]


 37 41  0  0  0  0  0  0  0  0999 V2000
    5.0809    7.0007   17.0649 C   0  0  0  0  0  0  0  0  0  0  0  0
    4.5347    5.8407   16.8447 N   0  0  0  0  0  0  0  0  0  0  0  0
    3.9273    5.5943   15.7076 C   0  0  0  0  0  0  0  0  0  0  0  0
    4.1129    7.0586   14.8649 S   0  0  0  0  0  0  0  0  0  0  0  0
    4.9965    7.9416   16.0676 C   0  0  0  0  0  0  0  0  0  0  0  0
    3.5809    8.4398   18.7971 C   0  0  0  0  0  0  0  0  0  0  0  0
    4.9458    8.0031   19.3107 C   0  0  0  0  0  0  0  0  0  0  0  0
    4.7682    7.0963   20.5234 C   0  0  0  0  0  0  0  0  0  0  0  0
    6.0995    6.7156   20.9663 N   0  0  0  0  0  0  0  0  0  0  0  0
    7.2197    6.8108   20.0939 C   0  0  0  0  0  0  0  0  0  0  0  0
    8.3653    6.8049   20.5939 O   0  0  0  0  0  0  0  0  0  0  0  0
    7.0633    6.9162   18.6227 C   0  0  0  0  0  0  0  0  0  0  0  0
    5.7136    7.2937   18.3403 N   0  0  0  0  0  0  0  0  0  0  0  0
    6.2795    6.2363   22.2973 C   0  0  0  0  0  0  0  0  0  0  0  0
    5.7080    4.8897   22.5457 C   0  0  0  0  0  0  0  0  0  0  0  0
    4.4319    4.7676   23.0091 C   0  0  0  0  0  0  0  0  0  0  0  0
    3.9387    3.4891   23.2271 C   0  0  0  0  0  0  0  0  0  0  0  0
    4.7214    2.3900   22.9809 C   0  0  0  0  0  0  0  0  0  0  0  0
    5.9953    2.5462   22.5171 C   0  0  0  0  0  0  0  0  0  0  0  0
    6.5153    3.8061   22.2895 C   0  0  0  0  0  0  0  0  0  0  0  0
    3.2580    4.3696   15.2817 C   0  0  0  0  0  0  0  0  0  0  0  0
    2.3646    4.3767   14.2332 C   0  0  0  0  0  0  0  0  0  0  0  0
    1.7269    3.2266   13.8156 C   0  0  0  0  0  0  0  0  0  0  0  0
    1.9961    2.0422   14.4700 C   0  0  0  0  0  0  0  0  0  0  0  0
    2.8870    1.9886   15.5283 C   0  0  0  0  0  0  0  0  0  0  0  0
    3.4915    3.1610   15.9013 C   0  0  0  0  0  0  0  0  0  0  0  0
    3.1820    0.7085   16.2345 C   0  0  0  0  0  0  0  0  0  0  0  0
    3.5171    0.8882   17.6030 N   0  0  0  0  0  0  0  0  0  0  0  0
    2.8732    0.3671   18.6526 C   0  0  0  0  0  0  0  0  0  0  0  0
    3.5086    0.7763   19.8017 C   0  0  0  0  0  0  0  0  0  0  0  0
    4.5540    1.5574   19.4393 N   0  0  0  0  0  0  0  0  0  0  0  0
    4.5325    1.6068   18.0902 C   0  0  0  0  0  0  0  0  0  0  0  0
    5.5254    9.3054   15.9760 C   0  0  0  0  0  0  0  0  0  0  0  0
    4.5922   10.3440   15.7356 N   0  0  0  0  0  0  0  0  0  0  0  0
    6.7277    9.5902   16.0961 O   0  0  0  0  0  0  0  0  0  0  0  0
    4.6815   11.2523   16.2235 H   0  0  0  0  0  0  0  0  0  0  0  0
    3.7973   10.2303   15.0708 H   0  0  0  0  0  0  0  0  0  0  0  0
  6  7  1  0  0  0
  7  8  1  0  0  0
  8  9  1  0  0  0
  9 14  1  0  0  0
 14 15  1  0  0  0
 15 16  2  0  0  0
 16 17  1  0  0  0
 17 18  2  0  0  0
 18 19  1  0  0  0
 19 20  2  0  0  0
  9 10  1  0  0  0
 10 11  2  0  0  0
 10 12  1  0  0  0
 12 13  1  0  0  0
 13  1  1  0  0  0
  1  2  1  0  0  0
  2  3  2  0  0  0
  3  4  1  0  0  0
  4  5  1  0  0  0
  5 33  1  0  0  0
 33 34  1  0  0  0
 33 35  2  0  0  0
  3 21  1  0  0  0
 21 22  2  0  0  0
 22 23  1  0  0  0
 23 24  2  0  0  0
 24 25  1  0  0  0
 25 27  1  0  0  0
 27 28  1  0  0  0
 28 29  1  0  0  0
 29 30  2  0  0  0
 30 31  1  0  0  0
 31 32  2  0  0  0
 25 26  2  0  0  0
 13  7  1  0  0  0
  5  1  2  0  0  0
 26 21  1  0  0  0
 20 15  1  0  0  0
 32 28  1  0  0  0
 34 36  1  0  0  0
 34 37  1  0  0  0
M  END
> <minimizedAffinity>
-8.89967

> <CNNscore>
0.2145292163

> <CNNaffinity>
6.5204744339

> <CNN_VS>
1.3988323212

> <CNNaffinity_variance>
0.1839379370

$$$$
[H]c1nc(N([H])C([H])([H])C2([H])C([H])([H])C([H])([H])OC([H])([H])C2([H])[H])c(N([H])C(=O)N(C([H])([H])[H])C([H])([H])C([H])([H])N2C([H])([H])C([H])([H])OC([H])([H])C2([H])[H])nc1C([H])(C(=O)N([H])c1c([H])n(C([H])([H])[H])c2c([H])c([H])c([H])c([H])c12)[C@@]1([H])OC([H])([H])C([H])([H])C1([H])[H]


 49 54  0  0  0  0  0  0  0  0999 V2000
    3.6741    3.5566   15.7133 C   0  0  0  0  0  0  0  0  0  0  0  0
    3.8694    3.6232   17.0436 N   0  0  0  0  0  0  0  0  0  0  0  0
    3.7387    2.5327   17.8441 C   0  0  0  0  0  0  0  0  0  0  0  0
    3.4002    1.3139   17.3161 C   0  0  0  0  0  0  0  0  0  0  0  0
    3.2070    1.2506   15.9920 N   0  0  0  0  0  0  0  0  0  0  0  0
    3.3352    2.3364   15.1837 C   0  0  0  0  0  0  0  0  0  0  0  0
    3.8961    7.0569   13.2657 C   0  0  0  0  0  0  0  0  0  0  0  0
    2.6952    6.7522   13.9963 N   0  0  0  0  0  0  0  0  0  0  0  0
    2.6539    5.5829   14.7961 C   0  0  0  0  0  0  0  0  0  0  0  0
    1.6016    5.3230   15.4145 O   0  0  0  0  0  0  0  0  0  0  0  0
    3.8065    4.7086   14.8950 N   0  0  0  0  0  0  0  0  0  0  0  0
    4.6516    4.9627   14.3685 H   0  0  0  0  0  0  0  0  0  0  0  0
    1.5259    7.6019   13.9428 C   0  0  0  0  0  0  0  0  0  0  0  0
    1.0446    7.6456   12.5066 C   0  0  0  0  0  0  0  0  0  0  0  0
    0.2855    6.5476   12.0826 N   0  0  0  0  0  0  0  0  0  0  0  0
   -0.7778    6.0936   12.8920 C   0  0  0  0  0  0  0  0  0  0  0  0
   -1.4732    4.9387   12.1907 C   0  0  0  0  0  0  0  0  0  0  0  0
   -1.9361    5.3740   10.9763 O   0  0  0  0  0  0  0  0  0  0  0  0
   -1.0297    5.9894   10.1575 C   0  0  0  0  0  0  0  0  0  0  0  0
    0.3379    6.1555   10.7320 C   0  0  0  0  0  0  0  0  0  0  0  0
    3.1285    2.2114   13.7784 N   0  0  0  0  0  0  0  0  0  0  0  0
    3.9130    2.2062   13.1223 H   0  0  0  0  0  0  0  0  0  0  0  0
    1.7780    2.0863   13.2571 C   0  0  0  0  0  0  0  0  0  0  0  0
    1.5774    2.7822   11.9369 C   0  0  0  0  0  0  0  0  0  0  0  0
    1.3598    1.6871   10.8917 C   0  0  0  0  0  0  0  0  0  0  0  0
    2.7002    1.2398   10.4051 C   0  0  0  0  0  0  0  0  0  0  0  0
    3.2420    2.2157    9.5818 O   0  0  0  0  0  0  0  0  0  0  0  0
    3.1206    3.4901   10.1010 C   0  0  0  0  0  0  0  0  0  0  0  0
    2.8699    3.4973   11.5923 C   0  0  0  0  0  0  0  0  0  0  0  0
    3.9386    2.6823   19.2968 C   0  0  0  0  0  0  0  0  0  0  0  0
    4.5845    1.4560   19.8437 C   0  0  0  0  0  0  0  0  0  0  0  0
    3.4912    0.5463   20.3584 C   0  0  0  0  0  0  0  0  0  0  0  0
    3.9518    0.2830   21.7756 C   0  0  0  0  0  0  0  0  0  0  0  0
    4.6874    1.5888   22.0693 C   0  0  0  0  0  0  0  0  0  0  0  0
    5.4377    1.7221   20.9120 O   0  0  0  0  0  0  0  0  0  0  0  0
    4.6459    3.9463   19.6085 C   0  0  0  0  0  0  0  0  0  0  0  0
    5.6844    4.2451   18.9545 O   0  0  0  0  0  0  0  0  0  0  0  0
    4.2167    4.8497   20.6067 N   0  0  0  0  0  0  0  0  0  0  0  0
    3.3470    4.5751   21.1262 H   0  0  0  0  0  0  0  0  0  0  0  0
    4.8546    6.0714   20.9443 C   0  0  0  0  0  0  0  0  0  0  0  0
    5.7785    6.3887   21.8920 C   0  0  0  0  0  0  0  0  0  0  0  0
    6.0814    7.6820   21.8298 N   0  0  0  0  0  0  0  0  0  0  0  0
    7.0359    8.3908   22.6899 C   0  0  0  0  0  0  0  0  0  0  0  0
    5.3737    8.2423   20.8510 C   0  0  0  0  0  0  0  0  0  0  0  0
    5.3211    9.5500   20.3743 C   0  0  0  0  0  0  0  0  0  0  0  0
    4.4778    9.8375   19.3220 C   0  0  0  0  0  0  0  0  0  0  0  0
    3.7032    8.8580   18.7519 C   0  0  0  0  0  0  0  0  0  0  0  0
    3.7459    7.5627   19.2134 C   0  0  0  0  0  0  0  0  0  0  0  0
    4.5981    7.2720   20.2767 C   0  0  0  0  0  0  0  0  0  0  0  0
  7  8  1  0  0  0
  8 13  1  0  0  0
 13 14  1  0  0  0
 14 15  1  0  0  0
 15 16  1  0  0  0
 16 17  1  0  0  0
 17 18  1  0  0  0
 18 19  1  0  0  0
 19 20  1  0  0  0
  8  9  1  0  0  0
  9 10  2  0  0  0
  9 11  1  0  0  0
 11  1  1  0  0  0
  1  2  2  0  0  0
  2  3  1  0  0  0
  3  4  2  0  0  0
  4  5  1  0  0  0
  5  6  2  0  0  0
  6 21  1  0  0  0
 21 23  1  0  0  0
 23 24  1  0  0  0
 24 25  1  0  0  0
 25 26  1  0  0  0
 26 27  1  0  0  0
 27 28  1  0  0  0
 28 29  1  0  0  0
  3 30  1  0  0  0
 30 31  1  0  0  0
 31 32  1  0  0  0
 32 33  1  0  0  0
 33 34  1  0  0  0
 34 35  1  0  0  0
 30 36  1  0  0  0
 36 37  2  0  0  0
 36 38  1  0  0  0
 38 40  1  0  0  0
 40 41  2  0  0  0
 41 42  1  0  0  0
 42 43  1  0  0  0
 42 44  1  0  0  0
 44 45  2  0  0  0
 45 46  1  0  0  0
 46 47  2  0  0  0
 47 48  1  0  0  0
 48 49  2  0  0  0
 20 15  1  0  0  0
  6  1  1  0  0  0
 29 24  1  0  0  0
 35 31  1  0  0  0
 49 40  1  0  0  0
 49 44  1  0  0  0
 11 12  1  0  0  0
 21 22  1  0  0  0
 38 39  1  0  0  0
M  END
> <minimizedAffinity>
-9.02639

> <CNNscore>
0.2071882486

> <CNNaffinity>
7.0994744301

> <CNN_VS>
1.4709277153

> <CNNaffinity_variance>
0.4599970877

$$$$
[H]c1nc(N([H])C([H])([H])C2([H])C([H])([H])C([H])([H])OC([H])([H])C2([H])[H])c(N([H])C(=O)N(C([H])([H])[H])C([H])([H])C([H])([H])N2C([H])([H])C([H])([H])OC([H])([H])C2([H])[H])nc1C([H])(C(=O)N([H])c1c([H])n(C([H])([H])[H])c2c([H])c([H])c([H])c([H])c12)[C@@]1([H])OC([H])([H])C([H])([H])C1([H])[H]


 49 54  0  0  0  0  0  0  0  0999 V2000
    3.6274    5.9424   19.1011 C   0  0  0  0  0  0  0  0  0  0  0  0
    3.6105    5.0221   18.1188 N   0  0  0  0  0  0  0  0  0  0  0  0
    3.6689    5.3713   16.8066 C   0  0  0  0  0  0  0  0  0  0  0  0
    3.7488    6.6886   16.4362 C   0  0  0  0  0  0  0  0  0  0  0  0
    3.7659    7.6020   17.4159 N   0  0  0  0  0  0  0  0  0  0  0  0
    3.7074    7.2618   18.7311 C   0  0  0  0  0  0  0  0  0  0  0  0
    3.5556    4.6781   23.1863 C   0  0  0  0  0  0  0  0  0  0  0  0
    4.6640    4.3360   22.3359 N   0  0  0  0  0  0  0  0  0  0  0  0
    4.6553    4.7685   20.9862 C   0  0  0  0  0  0  0  0  0  0  0  0
    5.6166    4.4539   20.2554 O   0  0  0  0  0  0  0  0  0  0  0  0
    3.5564    5.5584   20.4656 N   0  0  0  0  0  0  0  0  0  0  0  0
    2.7864    5.7940   21.1041 H   0  0  0  0  0  0  0  0  0  0  0  0
    5.7903    3.5645   22.8135 C   0  0  0  0  0  0  0  0  0  0  0  0
    5.2626    2.2500   23.3518 C   0  0  0  0  0  0  0  0  0  0  0  0
    4.7514    1.3602   22.3987 N   0  0  0  0  0  0  0  0  0  0  0  0
    3.3619    1.1156   22.3627 C   0  0  0  0  0  0  0  0  0  0  0  0
    3.0574    0.1675   21.2148 C   0  0  0  0  0  0  0  0  0  0  0  0
    3.4822    0.7405   20.0445 O   0  0  0  0  0  0  0  0  0  0  0  0
    4.7779    1.1771   20.0084 C   0  0  0  0  0  0  0  0  0  0  0  0
    5.5388    1.0200   21.2830 C   0  0  0  0  0  0  0  0  0  0  0  0
    3.7397    8.2741   19.7348 N   0  0  0  0  0  0  0  0  0  0  0  0
    3.1349    8.2282   20.5583 H   0  0  0  0  0  0  0  0  0  0  0  0
    4.6492    9.3984   19.5951 C   0  0  0  0  0  0  0  0  0  0  0  0
    5.6368    9.5157   20.7258 C   0  0  0  0  0  0  0  0  0  0  0  0
    7.0054    9.1428   20.1542 C   0  0  0  0  0  0  0  0  0  0  0  0
    7.1512    7.6576   20.2359 C   0  0  0  0  0  0  0  0  0  0  0  0
    7.3628    7.2861   21.5553 O   0  0  0  0  0  0  0  0  0  0  0  0
    6.5058    7.9139   22.4383 C   0  0  0  0  0  0  0  0  0  0  0  0
    5.2723    8.4729   21.7654 C   0  0  0  0  0  0  0  0  0  0  0  0
    3.6170    4.3140   15.7809 C   0  0  0  0  0  0  0  0  0  0  0  0
    2.6777    3.2410   16.2129 C   0  0  0  0  0  0  0  0  0  0  0  0
    3.5030    2.0559   16.6629 C   0  0  0  0  0  0  0  0  0  0  0  0
    2.9131    0.9371   15.8320 C   0  0  0  0  0  0  0  0  0  0  0  0
    2.4793    1.7180   14.5934 C   0  0  0  0  0  0  0  0  0  0  0  0
    1.8475    2.8000   15.1852 O   0  0  0  0  0  0  0  0  0  0  0  0
    3.3326    4.8844   14.4435 C   0  0  0  0  0  0  0  0  0  0  0  0
    4.1880    4.7480   13.5242 O   0  0  0  0  0  0  0  0  0  0  0  0
    2.1414    5.5786   14.1335 N   0  0  0  0  0  0  0  0  0  0  0  0
    1.4490    5.6679   14.9172 H   0  0  0  0  0  0  0  0  0  0  0  0
    1.8188    6.1425   12.8720 C   0  0  0  0  0  0  0  0  0  0  0  0
    2.4759    7.0240   12.0698 C   0  0  0  0  0  0  0  0  0  0  0  0
    1.7713    7.2627   10.9678 N   0  0  0  0  0  0  0  0  0  0  0  0
    2.1555    8.1578    9.8703 C   0  0  0  0  0  0  0  0  0  0  0  0
    0.6460    6.5525   11.0152 C   0  0  0  0  0  0  0  0  0  0  0  0
   -0.4191    6.4394   10.1247 C   0  0  0  0  0  0  0  0  0  0  0  0
   -1.4671    5.6042   10.4491 C   0  0  0  0  0  0  0  0  0  0  0  0
   -1.4658    4.8960   11.6251 C   0  0  0  0  0  0  0  0  0  0  0  0
   -0.4201    4.9989   12.5129 C   0  0  0  0  0  0  0  0  0  0  0  0
    0.6392    5.8427   12.1853 C   0  0  0  0  0  0  0  0  0  0  0  0
  7  8  1  0  0  0
  8 13  1  0  0  0
 13 14  1  0  0  0
 14 15  1  0  0  0
 15 16  1  0  0  0
 16 17  1  0  0  0
 17 18  1  0  0  0
 18 19  1  0  0  0
 19 20  1  0  0  0
  8  9  1  0  0  0
  9 10  2  0  0  0
  9 11  1  0  0  0
 11  1  1  0  0  0
  1  2  2  0  0  0
  2  3  1  0  0  0
  3  4  2  0  0  0
  4  5  1  0  0  0
  5  6  2  0  0  0
  6 21  1  0  0  0
 21 23  1  0  0  0
 23 24  1  0  0  0
 24 25  1  0  0  0
 25 26  1  0  0  0
 26 27  1  0  0  0
 27 28  1  0  0  0
 28 29  1  0  0  0
  3 30  1  0  0  0
 30 31  1  0  0  0
 31 32  1  0  0  0
 32 33  1  0  0  0
 33 34  1  0  0  0
 34 35  1  0  0  0
 30 36  1  0  0  0
 36 37  2  0  0  0
 36 38  1  0  0  0
 38 40  1  0  0  0
 40 41  2  0  0  0
 41 42  1  0  0  0
 42 43  1  0  0  0
 42 44  1  0  0  0
 44 45  2  0  0  0
 45 46  1  0  0  0
 46 47  2  0  0  0
 47 48  1  0  0  0
 48 49  2  0  0  0
 20 15  1  0  0  0
  6  1  1  0  0  0
 29 24  1  0  0  0
 35 31  1  0  0  0
 49 40  1  0  0  0
 49 44  1  0  0  0
 11 12  1  0  0  0
 21 22  1  0  0  0
 38 39  1  0  0  0
M  END
> <minimizedAffinity>
-9.47161

> <CNNscore>
0.1560197771

> <CNNaffinity>
7.2128334045

> <CNN_VS>
1.1253446341

> <CNNaffinity_variance>
0.2525439858

$$$$
[H]c1nc(N([H])C([H])([H])C2([H])C([H])([H])C([H])([H])OC([H])([H])C2([H])[H])c(N([H])C(=O)N(C([H])([H])[H])C([H])([H])C([H])([H])N2C([H])([H])C([H])([H])OC([H])([H])C2([H])[H])nc1C([H])(C(=O)N([H])c1c([H])n(C([H])([H])[H])c2c([H])c([H])c([H])c([H])c12)[C@@]1([H])OC([H])([H])C([H])([H])C1([H])[H]


 49 54  0  0  0  0  0  0  0  0999 V2000
    4.6094    7.7445   20.4186 C   0  0  0  0  0  0  0  0  0  0  0  0
    4.1935    7.7525   19.1383 N   0  0  0  0  0  0  0  0  0  0  0  0
    4.5457    8.7413   18.2749 C   0  0  0  0  0  0  0  0  0  0  0  0
    5.3468    9.7753   18.6849 C   0  0  0  0  0  0  0  0  0  0  0  0
    5.7594    9.7644   19.9592 N   0  0  0  0  0  0  0  0  0  0  0  0
    5.4116    8.7796   20.8299 C   0  0  0  0  0  0  0  0  0  0  0  0
    3.5924    4.5279   23.0475 C   0  0  0  0  0  0  0  0  0  0  0  0
    4.8769    4.5640   22.4014 N   0  0  0  0  0  0  0  0  0  0  0  0
    5.1811    5.6430   21.5340 C   0  0  0  0  0  0  0  0  0  0  0  0
    6.2939    5.6557   20.9695 O   0  0  0  0  0  0  0  0  0  0  0  0
    4.2233    6.7077   21.3075 N   0  0  0  0  0  0  0  0  0  0  0  0
    3.3196    6.6557   21.7941 H   0  0  0  0  0  0  0  0  0  0  0  0
    5.8713    3.5344   22.6086 C   0  0  0  0  0  0  0  0  0  0  0  0
    5.2016    2.3721   23.3135 C   0  0  0  0  0  0  0  0  0  0  0  0
    4.7277    1.3464   22.4860 N   0  0  0  0  0  0  0  0  0  0  0  0
    3.3580    1.0084   22.5264 C   0  0  0  0  0  0  0  0  0  0  0  0
    3.0891   -0.0842   21.5050 C   0  0  0  0  0  0  0  0  0  0  0  0
    3.4415    0.3762   20.2630 O   0  0  0  0  0  0  0  0  0  0  0  0
    4.7025    0.8898   20.1326 C   0  0  0  0  0  0  0  0  0  0  0  0
    5.5064    0.9317   21.3896 C   0  0  0  0  0  0  0  0  0  0  0  0
    5.8874    8.8108   22.1737 N   0  0  0  0  0  0  0  0  0  0  0  0
    5.2578    8.9951   22.9584 H   0  0  0  0  0  0  0  0  0  0  0  0
    7.2952    8.5751   22.4452 C   0  0  0  0  0  0  0  0  0  0  0  0
    7.5384    7.7571   23.6859 C   0  0  0  0  0  0  0  0  0  0  0  0
    7.3415    8.6962   24.8767 C   0  0  0  0  0  0  0  0  0  0  0  0
    8.6374    9.3950   25.1335 C   0  0  0  0  0  0  0  0  0  0  0  0
    9.5349    8.5074   25.7082 O   0  0  0  0  0  0  0  0  0  0  0  0
    9.5619    7.2797   25.0754 C   0  0  0  0  0  0  0  0  0  0  0  0
    8.9926    7.3258   23.6752 C   0  0  0  0  0  0  0  0  0  0  0  0
    4.0314    8.7036   16.8941 C   0  0  0  0  0  0  0  0  0  0  0  0
    4.7086    9.7497   16.0772 C   0  0  0  0  0  0  0  0  0  0  0  0
    3.9906    9.8375   14.7488 C   0  0  0  0  0  0  0  0  0  0  0  0
    5.1324    9.6683   13.7702 C   0  0  0  0  0  0  0  0  0  0  0  0
    6.0662    8.7829   14.5927 C   0  0  0  0  0  0  0  0  0  0  0  0
    6.0416    9.4494   15.8074 O   0  0  0  0  0  0  0  0  0  0  0  0
    4.1101    7.3339   16.3349 C   0  0  0  0  0  0  0  0  0  0  0  0
    5.1675    6.6635   16.5015 O   0  0  0  0  0  0  0  0  0  0  0  0
    3.0540    6.7262   15.6193 N   0  0  0  0  0  0  0  0  0  0  0  0
    2.1874    7.3072   15.5050 H   0  0  0  0  0  0  0  0  0  0  0  0
    3.0763    5.4202   15.0648 C   0  0  0  0  0  0  0  0  0  0  0  0
    2.9925    4.9697   13.7833 C   0  0  0  0  0  0  0  0  0  0  0  0
    3.0581    3.6421   13.7530 N   0  0  0  0  0  0  0  0  0  0  0  0
    3.0010    2.7986   12.5535 C   0  0  0  0  0  0  0  0  0  0  0  0
    3.1859    3.1898   14.9988 C   0  0  0  0  0  0  0  0  0  0  0  0
    3.2995    1.8996   15.5114 C   0  0  0  0  0  0  0  0  0  0  0  0
    3.4257    1.7379   16.8748 C   0  0  0  0  0  0  0  0  0  0  0  0
    3.4396    2.8236   17.7149 C   0  0  0  0  0  0  0  0  0  0  0  0
    3.3282    4.1027   17.2213 C   0  0  0  0  0  0  0  0  0  0  0  0
    3.2008    4.2665   15.8435 C   0  0  0  0  0  0  0  0  0  0  0  0
  7  8  1  0  0  0
  8 13  1  0  0  0
 13 14  1  0  0  0
 14 15  1  0  0  0
 15 16  1  0  0  0
 16 17  1  0  0  0
 17 18  1  0  0  0
 18 19  1  0  0  0
 19 20  1  0  0  0
  8  9  1  0  0  0
  9 10  2  0  0  0
  9 11  1  0  0  0
 11  1  1  0  0  0
  1  2  2  0  0  0
  2  3  1  0  0  0
  3  4  2  0  0  0
  4  5  1  0  0  0
  5  6  2  0  0  0
  6 21  1  0  0  0
 21 23  1  0  0  0
 23 24  1  0  0  0
 24 25  1  0  0  0
 25 26  1  0  0  0
 26 27  1  0  0  0
 27 28  1  0  0  0
 28 29  1  0  0  0
  3 30  1  0  0  0
 30 31  1  0  0  0
 31 32  1  0  0  0
 32 33  1  0  0  0
 33 34  1  0  0  0
 34 35  1  0  0  0
 30 36  1  0  0  0
 36 37  2  0  0  0
 36 38  1  0  0  0
 38 40  1  0  0  0
 40 41  2  0  0  0
 41 42  1  0  0  0
 42 43  1  0  0  0
 42 44  1  0  0  0
 44 45  2  0  0  0
 45 46  1  0  0  0
 46 47  2  0  0  0
 47 48  1  0  0  0
 48 49  2  0  0  0
 20 15  1  0  0  0
  6  1  1  0  0  0
 29 24  1  0  0  0
 35 31  1  0  0  0
 49 40  1  0  0  0
 49 44  1  0  0  0
 11 12  1  0  0  0
 21 22  1  0  0  0
 38 39  1  0  0  0
M  END
> <minimizedAffinity>
-9.19549

> <CNNscore>
0.1552212536

> <CNNaffinity>
6.9745202065

> <CNN_VS>
1.0825937986

> <CNNaffinity_variance>
0.6369188428

$$$$
[H]c1nc(N([H])C([H])([H])C2([H])C([H])([H])C([H])([H])OC([H])([H])C2([H])[H])c(N([H])C(=O)N(C([H])([H])[H])C([H])([H])C([H])([H])N2C([H])([H])C([H])([H])OC([H])([H])C2([H])[H])nc1C([H])(C(=O)N([H])c1c([H])n(C([H])([H])[H])c2c([H])c([H])c([H])c([H])c12)[C@@]1([H])OC([H])([H])C([H])([H])C1([H])[H]


 49 54  0  0  0  0  0  0  0  0999 V2000
    3.5762    4.0959   15.4277 C   0  0  0  0  0  0  0  0  0  0  0  0
    2.6901    4.4533   14.4794 N   0  0  0  0  0  0  0  0  0  0  0  0
    1.8633    3.5487   13.8916 C   0  0  0  0  0  0  0  0  0  0  0  0
    1.9050    2.2265   14.2506 C   0  0  0  0  0  0  0  0  0  0  0  0
    2.7874    1.8740   15.1948 N   0  0  0  0  0  0  0  0  0  0  0  0
    3.6185    2.7720   15.7877 C   0  0  0  0  0  0  0  0  0  0  0  0
    6.0316    7.0444   17.3171 C   0  0  0  0  0  0  0  0  0  0  0  0
    4.6913    6.8048   17.7808 N   0  0  0  0  0  0  0  0  0  0  0  0
    3.9033    5.8223   17.1308 C   0  0  0  0  0  0  0  0  0  0  0  0
    2.7376    5.6334   17.5343 O   0  0  0  0  0  0  0  0  0  0  0  0
    4.4376    5.0538   16.0234 N   0  0  0  0  0  0  0  0  0  0  0  0
    5.4027    5.2433   15.7255 H   0  0  0  0  0  0  0  0  0  0  0  0
    4.1200    7.5338   18.8917 C   0  0  0  0  0  0  0  0  0  0  0  0
    5.0827    7.4393   20.0581 C   0  0  0  0  0  0  0  0  0  0  0  0
    5.1424    6.1972   20.7024 N   0  0  0  0  0  0  0  0  0  0  0  0
    6.3064    5.8515   21.4217 C   0  0  0  0  0  0  0  0  0  0  0  0
    6.1010    4.4919   22.0687 C   0  0  0  0  0  0  0  0  0  0  0  0
    5.0148    4.5592   22.9018 O   0  0  0  0  0  0  0  0  0  0  0  0
    3.8545    5.0416   22.3617 C   0  0  0  0  0  0  0  0  0  0  0  0
    3.9506    5.4877   20.9405 C   0  0  0  0  0  0  0  0  0  0  0  0
    4.5323    2.3451   16.7957 N   0  0  0  0  0  0  0  0  0  0  0  0
    5.3972    2.8577   16.9833 H   0  0  0  0  0  0  0  0  0  0  0  0
    4.2368    1.1583   17.5801 C   0  0  0  0  0  0  0  0  0  0  0  0
    3.4712    1.4493   18.8437 C   0  0  0  0  0  0  0  0  0  0  0  0
    4.4532    2.1149   19.8089 C   0  0  0  0  0  0  0  0  0  0  0  0
    5.1791    1.0365   20.5463 C   0  0  0  0  0  0  0  0  0  0  0  0
    4.3268    0.4576   21.4749 O   0  0  0  0  0  0  0  0  0  0  0  0
    3.0759    0.1774   20.9601 C   0  0  0  0  0  0  0  0  0  0  0  0
    3.0597    0.1208   19.4490 C   0  0  0  0  0  0  0  0  0  0  0  0
    0.9368    4.0031   12.8392 C   0  0  0  0  0  0  0  0  0  0  0  0
    0.8802    5.4920   12.8285 C   0  0  0  0  0  0  0  0  0  0  0  0
   -0.2290    5.9205   13.7634 C   0  0  0  0  0  0  0  0  0  0  0  0
   -1.0545    6.8201   12.8693 C   0  0  0  0  0  0  0  0  0  0  0  0
   -0.7891    6.1719   11.5122 C   0  0  0  0  0  0  0  0  0  0  0  0
    0.5865    6.0152   11.5716 O   0  0  0  0  0  0  0  0  0  0  0  0
    1.2714    3.3867   11.5341 C   0  0  0  0  0  0  0  0  0  0  0  0
    2.4833    3.3046   11.1877 O   0  0  0  0  0  0  0  0  0  0  0  0
    0.2989    2.8758   10.6453 N   0  0  0  0  0  0  0  0  0  0  0  0
   -0.6973    2.9530   10.9666 H   0  0  0  0  0  0  0  0  0  0  0  0
    0.5642    2.2759    9.3870 C   0  0  0  0  0  0  0  0  0  0  0  0
    0.9195    2.7990    8.1818 C   0  0  0  0  0  0  0  0  0  0  0  0
    1.0584    1.8323    7.2795 N   0  0  0  0  0  0  0  0  0  0  0  0
    1.4324    2.0084    5.8714 C   0  0  0  0  0  0  0  0  0  0  0  0
    0.8020    0.6621    7.8606 C   0  0  0  0  0  0  0  0  0  0  0  0
    0.8100   -0.6408    7.3683 C   0  0  0  0  0  0  0  0  0  0  0  0
    0.4995   -1.6745    8.2263 C   0  0  0  0  0  0  0  0  0  0  0  0
    0.1878   -1.4297    9.5407 C   0  0  0  0  0  0  0  0  0  0  0  0
    0.1764   -0.1477   10.0391 C   0  0  0  0  0  0  0  0  0  0  0  0
    0.4902    0.8971    9.1723 C   0  0  0  0  0  0  0  0  0  0  0  0
  7  8  1  0  0  0
  8 13  1  0  0  0
 13 14  1  0  0  0
 14 15  1  0  0  0
 15 16  1  0  0  0
 16 17  1  0  0  0
 17 18  1  0  0  0
 18 19  1  0  0  0
 19 20  1  0  0  0
  8  9  1  0  0  0
  9 10  2  0  0  0
  9 11  1  0  0  0
 11  1  1  0  0  0
  1  2  2  0  0  0
  2  3  1  0  0  0
  3  4  2  0  0  0
  4  5  1  0  0  0
  5  6  2  0  0  0
  6 21  1  0  0  0
 21 23  1  0  0  0
 23 24  1  0  0  0
 24 25  1  0  0  0
 25 26  1  0  0  0
 26 27  1  0  0  0
 27 28  1  0  0  0
 28 29  1  0  0  0
  3 30  1  0  0  0
 30 31  1  0  0  0
 31 32  1  0  0  0
 32 33  1  0  0  0
 33 34  1  0  0  0
 34 35  1  0  0  0
 30 36  1  0  0  0
 36 37  2  0  0  0
 36 38  1  0  0  0
 38 40  1  0  0  0
 40 41  2  0  0  0
 41 42  1  0  0  0
 42 43  1  0  0  0
 42 44  1  0  0  0
 44 45  2  0  0  0
 45 46  1  0  0  0
 46 47  2  0  0  0
 47 48  1  0  0  0
 48 49  2  0  0  0
 20 15  1  0  0  0
  6  1  1  0  0  0
 29 24  1  0  0  0
 35 31  1  0  0  0
 49 40  1  0  0  0
 49 44  1  0  0  0
 11 12  1  0  0  0
 21 22  1  0  0  0
 38 39  1  0  0  0
M  END
> <minimizedAffinity>
-8.05194

> <CNNscore>
0.1482526213

> <CNNaffinity>
6.9159688950

> <CNN_VS>
1.0253105164

> <CNNaffinity_variance>
0.2101453841

$$$$
[H]c1nc(N([H])C([H])([H])C2([H])C([H])([H])C([H])([H])OC([H])([H])C2([H])[H])c(N([H])C(=O)N(C([H])([H])[H])C([H])([H])C([H])([H])N2C([H])([H])C([H])([H])OC([H])([H])C2([H])[H])nc1C([H])(C(=O)N([H])c1c([H])n(C([H])([H])[H])c2c([H])c([H])c([H])c([H])c12)[C@@]1([H])OC([H])([H])C([H])([H])C1([H])[H]


 49 54  0  0  0  0  0  0  0  0999 V2000
    4.0074    4.8061   18.2297 C   0  0  0  0  0  0  0  0  0  0  0  0
    3.4966    5.7418   17.4077 N   0  0  0  0  0  0  0  0  0  0  0  0
    3.4431    5.5631   16.0614 C   0  0  0  0  0  0  0  0  0  0  0  0
    3.9128    4.4092   15.4898 C   0  0  0  0  0  0  0  0  0  0  0  0
    4.4201    3.4798   16.3103 N   0  0  0  0  0  0  0  0  0  0  0  0
    4.4780    3.6503   17.6580 C   0  0  0  0  0  0  0  0  0  0  0  0
    4.3531    5.4549   22.4430 C   0  0  0  0  0  0  0  0  0  0  0  0
    5.4771    5.6828   21.5748 N   0  0  0  0  0  0  0  0  0  0  0  0
    5.3295    5.4556   20.1836 C   0  0  0  0  0  0  0  0  0  0  0  0
    6.3160    5.6444   19.4431 O   0  0  0  0  0  0  0  0  0  0  0  0
    4.0629    5.0150   19.6324 N   0  0  0  0  0  0  0  0  0  0  0  0
    3.2778    4.8729   20.2801 H   0  0  0  0  0  0  0  0  0  0  0  0
    6.7554    6.1381   22.0752 C   0  0  0  0  0  0  0  0  0  0  0  0
    6.5678    7.5324   22.6381 C   0  0  0  0  0  0  0  0  0  0  0  0
    6.3473    8.5467   21.6979 N   0  0  0  0  0  0  0  0  0  0  0  0
    7.2708    8.7203   20.6449 C   0  0  0  0  0  0  0  0  0  0  0  0
    6.7808    9.8369   19.7380 C   0  0  0  0  0  0  0  0  0  0  0  0
    5.5444    9.5002   19.2518 O   0  0  0  0  0  0  0  0  0  0  0  0
    4.5972    9.1457   20.1727 C   0  0  0  0  0  0  0  0  0  0  0  0
    5.0655    9.1176   21.5898 C   0  0  0  0  0  0  0  0  0  0  0  0
    5.0186    2.6238   18.4871 N   0  0  0  0  0  0  0  0  0  0  0  0
    6.0282    2.4922   18.5832 H   0  0  0  0  0  0  0  0  0  0  0  0
    4.1242    1.7417   19.2172 C   0  0  0  0  0  0  0  0  0  0  0  0
    4.7902    1.0256   20.3623 C   0  0  0  0  0  0  0  0  0  0  0  0
    3.6911    0.6966   21.3734 C   0  0  0  0  0  0  0  0  0  0  0  0
    3.5176    1.8804   22.2690 C   0  0  0  0  0  0  0  0  0  0  0  0
    4.5927    1.9611   23.1415 O   0  0  0  0  0  0  0  0  0  0  0  0
    5.8114    1.7800   22.5167 C   0  0  0  0  0  0  0  0  0  0  0  0
    5.7458    2.0014   21.0221 C   0  0  0  0  0  0  0  0  0  0  0  0
    2.8973    6.6408   15.2169 C   0  0  0  0  0  0  0  0  0  0  0  0
    4.0146    7.4138   14.6048 C   0  0  0  0  0  0  0  0  0  0  0  0
    4.6201    8.2856   15.6824 C   0  0  0  0  0  0  0  0  0  0  0  0
    4.5693    9.6531   15.0364 C   0  0  0  0  0  0  0  0  0  0  0  0
    3.3337    9.4909   14.1537 C   0  0  0  0  0  0  0  0  0  0  0  0
    3.5936    8.2569   13.5793 O   0  0  0  0  0  0  0  0  0  0  0  0
    1.9093    6.1091   14.2493 C   0  0  0  0  0  0  0  0  0  0  0  0
    0.7568    5.7952   14.6600 O   0  0  0  0  0  0  0  0  0  0  0  0
    2.1861    5.9342   12.8747 N   0  0  0  0  0  0  0  0  0  0  0  0
    3.1500    6.2113   12.5652 H   0  0  0  0  0  0  0  0  0  0  0  0
    1.2783    5.4314   11.9070 C   0  0  0  0  0  0  0  0  0  0  0  0
    0.2867    6.0252   11.1885 C   0  0  0  0  0  0  0  0  0  0  0  0
   -0.3055    5.1384   10.3942 N   0  0  0  0  0  0  0  0  0  0  0  0
   -1.4161    5.4056    9.4730 C   0  0  0  0  0  0  0  0  0  0  0  0
    0.2744    3.9524   10.5669 C   0  0  0  0  0  0  0  0  0  0  0  0
    0.0392    2.7097    9.9833 C   0  0  0  0  0  0  0  0  0  0  0  0
    0.8202    1.6401   10.3665 C   0  0  0  0  0  0  0  0  0  0  0  0
    1.8113    1.7913   11.3043 C   0  0  0  0  0  0  0  0  0  0  0  0
    2.0536    3.0131   11.8881 C   0  0  0  0  0  0  0  0  0  0  0  0
    1.2646    4.0943   11.5010 C   0  0  0  0  0  0  0  0  0  0  0  0
  7  8  1  0  0  0
  8 13  1  0  0  0
 13 14  1  0  0  0
 14 15  1  0  0  0
 15 16  1  0  0  0
 16 17  1  0  0  0
 17 18  1  0  0  0
 18 19  1  0  0  0
 19 20  1  0  0  0
  8  9  1  0  0  0
  9 10  2  0  0  0
  9 11  1  0  0  0
 11  1  1  0  0  0
  1  2  2  0  0  0
  2  3  1  0  0  0
  3  4  2  0  0  0
  4  5  1  0  0  0
  5  6  2  0  0  0
  6 21  1  0  0  0
 21 23  1  0  0  0
 23 24  1  0  0  0
 24 25  1  0  0  0
 25 26  1  0  0  0
 26 27  1  0  0  0
 27 28  1  0  0  0
 28 29  1  0  0  0
  3 30  1  0  0  0
 30 31  1  0  0  0
 31 32  1  0  0  0
 32 33  1  0  0  0
 33 34  1  0  0  0
 34 35  1  0  0  0
 30 36  1  0  0  0
 36 37  2  0  0  0
 36 38  1  0  0  0
 38 40  1  0  0  0
 40 41  2  0  0  0
 41 42  1  0  0  0
 42 43  1  0  0  0
 42 44  1  0  0  0
 44 45  2  0  0  0
 45 46  1  0  0  0
 46 47  2  0  0  0
 47 48  1  0  0  0
 48 49  2  0  0  0
 20 15  1  0  0  0
  6  1  1  0  0  0
 29 24  1  0  0  0
 35 31  1  0  0  0
 49 40  1  0  0  0
 49 44  1  0  0  0
 11 12  1  0  0  0
 21 22  1  0  0  0
 38 39  1  0  0  0
M  END
> <minimizedAffinity>
-8.37068

> <CNNscore>
0.1433523893

> <CNNaffinity>
6.9296212196

> <CNN_VS>
0.9933777452

> <CNNaffinity_variance>
0.1712632775

$$$$
[H]c1nc(N([H])C([H])([H])C2([H])C([H])([H])C([H])([H])OC([H])([H])C2([H])[H])c(N([H])C(=O)N(C([H])([H])[H])C([H])([H])C([H])([H])N2C([H])([H])C([H])([H])OC([H])([H])C2([H])[H])nc1C([H])(C(=O)N([H])c1c([H])n(C([H])([H])[H])c2c([H])c([H])c([H])c([H])c12)[C@@]1([H])OC([H])([H])C([H])([H])C1([H])[H]


 49 54  0  0  0  0  0  0  0  0999 V2000
    3.7573    3.7501   15.6448 C   0  0  0  0  0  0  0  0  0  0  0  0
    2.9495    4.0029   14.5980 N   0  0  0  0  0  0  0  0  0  0  0  0
    2.2103    3.0262   14.0091 C   0  0  0  0  0  0  0  0  0  0  0  0
    2.2633    1.7358   14.4684 C   0  0  0  0  0  0  0  0  0  0  0  0
    3.0676    1.4874   15.5105 N   0  0  0  0  0  0  0  0  0  0  0  0
    3.8109    2.4581   16.1054 C   0  0  0  0  0  0  0  0  0  0  0  0
    5.9333    6.9148   17.5268 C   0  0  0  0  0  0  0  0  0  0  0  0
    4.5930    6.6018   17.9443 N   0  0  0  0  0  0  0  0  0  0  0  0
    3.8988    5.5486   17.2980 C   0  0  0  0  0  0  0  0  0  0  0  0
    2.7319    5.2958   17.6608 O   0  0  0  0  0  0  0  0  0  0  0  0
    4.5285    4.7818   16.2407 N   0  0  0  0  0  0  0  0  0  0  0  0
    5.4910    5.0253   15.9753 H   0  0  0  0  0  0  0  0  0  0  0  0
    3.9289    7.3269   19.0051 C   0  0  0  0  0  0  0  0  0  0  0  0
    4.9910    7.8475   19.9522 C   0  0  0  0  0  0  0  0  0  0  0  0
    5.2418    7.0591   21.0823 N   0  0  0  0  0  0  0  0  0  0  0  0
    4.3909    5.9684   21.3618 C   0  0  0  0  0  0  0  0  0  0  0  0
    4.9041    5.2461   22.5964 C   0  0  0  0  0  0  0  0  0  0  0  0
    6.1838    4.8176   22.3571 O   0  0  0  0  0  0  0  0  0  0  0  0
    7.0743    5.7570   21.9153 C   0  0  0  0  0  0  0  0  0  0  0  0
    6.5065    7.1201   21.6967 C   0  0  0  0  0  0  0  0  0  0  0  0
    4.6432    2.1414   17.2191 N   0  0  0  0  0  0  0  0  0  0  0  0
    5.5743    2.5515   17.3229 H   0  0  0  0  0  0  0  0  0  0  0  0
    4.1667    1.2185   18.2351 C   0  0  0  0  0  0  0  0  0  0  0  0
    3.7956    1.8910   19.5303 C   0  0  0  0  0  0  0  0  0  0  0  0
    5.0598    2.5808   20.0450 C   0  0  0  0  0  0  0  0  0  0  0  0
    5.8419    1.5823   20.8355 C   0  0  0  0  0  0  0  0  0  0  0  0
    5.2113    1.3589   22.0505 O   0  0  0  0  0  0  0  0  0  0  0  0
    3.8471    1.1796   21.9271 C   0  0  0  0  0  0  0  0  0  0  0  0
    3.4266    0.8055   20.5235 C   0  0  0  0  0  0  0  0  0  0  0  0
    1.3684    3.3665   12.8481 C   0  0  0  0  0  0  0  0  0  0  0  0
    1.3622    4.8430   12.6480 C   0  0  0  0  0  0  0  0  0  0  0  0
   -0.0081    5.3569   13.0304 C   0  0  0  0  0  0  0  0  0  0  0  0
   -0.4023    6.1327   11.7923 C   0  0  0  0  0  0  0  0  0  0  0  0
    0.3446    5.3371   10.7239 C   0  0  0  0  0  0  0  0  0  0  0  0
    1.5874    5.2126   11.3241 O   0  0  0  0  0  0  0  0  0  0  0  0
    1.7652    2.5817   11.6557 C   0  0  0  0  0  0  0  0  0  0  0  0
    0.9027    1.8579   11.0834 O   0  0  0  0  0  0  0  0  0  0  0  0
    3.0700    2.6003   11.1136 N   0  0  0  0  0  0  0  0  0  0  0  0
    3.7601    3.2172   11.6083 H   0  0  0  0  0  0  0  0  0  0  0  0
    3.5020    1.8707    9.9758 C   0  0  0  0  0  0  0  0  0  0  0  0
    3.6239    0.5362    9.7380 C   0  0  0  0  0  0  0  0  0  0  0  0
    4.0780    0.3241    8.5063 N   0  0  0  0  0  0  0  0  0  0  0  0
    4.3370   -0.9827    7.8912 C   0  0  0  0  0  0  0  0  0  0  0  0
    4.2637    1.4994    7.9087 C   0  0  0  0  0  0  0  0  0  0  0  0
    4.7144    1.8318    6.6334 C   0  0  0  0  0  0  0  0  0  0  0  0
    4.8004    3.1639    6.2882 C   0  0  0  0  0  0  0  0  0  0  0  0
    4.4501    4.1470    7.1800 C   0  0  0  0  0  0  0  0  0  0  0  0
    4.0036    3.8319    8.4424 C   0  0  0  0  0  0  0  0  0  0  0  0
    3.9165    2.4858    8.7915 C   0  0  0  0  0  0  0  0  0  0  0  0
  7  8  1  0  0  0
  8 13  1  0  0  0
 13 14  1  0  0  0
 14 15  1  0  0  0
 15 16  1  0  0  0
 16 17  1  0  0  0
 17 18  1  0  0  0
 18 19  1  0  0  0
 19 20  1  0  0  0
  8  9  1  0  0  0
  9 10  2  0  0  0
  9 11  1  0  0  0
 11  1  1  0  0  0
  1  2  2  0  0  0
  2  3  1  0  0  0
  3  4  2  0  0  0
  4  5  1  0  0  0
  5  6  2  0  0  0
  6 21  1  0  0  0
 21 23  1  0  0  0
 23 24  1  0  0  0
 24 25  1  0  0  0
 25 26  1  0  0  0
 26 27  1  0  0  0
 27 28  1  0  0  0
 28 29  1  0  0  0
  3 30  1  0  0  0
 30 31  1  0  0  0
 31 32  1  0  0  0
 32 33  1  0  0  0
 33 34  1  0  0  0
 34 35  1  0  0  0
 30 36  1  0  0  0
 36 37  2  0  0  0
 36 38  1  0  0  0
 38 40  1  0  0  0
 40 41  2  0  0  0
 41 42  1  0  0  0
 42 43  1  0  0  0
 42 44  1  0  0  0
 44 45  2  0  0  0
 45 46  1  0  0  0
 46 47  2  0  0  0
 47 48  1  0  0  0
 48 49  2  0  0  0
 20 15  1  0  0  0
  6  1  1  0  0  0
 29 24  1  0  0  0
 35 31  1  0  0  0
 49 40  1  0  0  0
 49 44  1  0  0  0
 11 12  1  0  0  0
 21 22  1  0  0  0
 38 39  1  0  0  0
M  END
> <minimizedAffinity>
-7.87333

> <CNNscore>
0.1413133442

> <CNNaffinity>
7.0116319656

> <CNN_VS>
0.9908371568

> <CNNaffinity_variance>
0.2148018628

$$$$
[H]c1nc(N([H])C([H])([H])C2([H])C([H])([H])C([H])([H])OC([H])([H])C2([H])[H])c(N([H])C(=O)N(C([H])([H])[H])C([H])([H])C([H])([H])N2C([H])([H])C([H])([H])OC([H])([H])C2([H])[H])nc1C([H])(C(=O)N([H])c1c([H])n(C([H])([H])[H])c2c([H])c([H])c([H])c([H])c12)[C@@]1([H])OC([H])([H])C([H])([H])C1([H])[H]


 49 54  0  0  0  0  0  0  0  0999 V2000
    3.6371    3.6250   12.9855 C   0  0  0  0  0  0  0  0  0  0  0  0
    3.6596    3.5783   14.3307 N   0  0  0  0  0  0  0  0  0  0  0  0
    2.7093    2.9166   15.0423 C   0  0  0  0  0  0  0  0  0  0  0  0
    1.6846    2.2664   14.4052 C   0  0  0  0  0  0  0  0  0  0  0  0
    1.6651    2.3143   13.0666 N   0  0  0  0  0  0  0  0  0  0  0  0
    2.6112    2.9741   12.3467 C   0  0  0  0  0  0  0  0  0  0  0  0
    6.5161    5.8694   10.7571 C   0  0  0  0  0  0  0  0  0  0  0  0
    5.2167    6.4206   11.0342 N   0  0  0  0  0  0  0  0  0  0  0  0
    4.2851    5.6493   11.7731 C   0  0  0  0  0  0  0  0  0  0  0  0
    3.1567    6.1337   11.9954 O   0  0  0  0  0  0  0  0  0  0  0  0
    4.6335    4.3289   12.2604 N   0  0  0  0  0  0  0  0  0  0  0  0
    5.5744    3.9708   12.0537 H   0  0  0  0  0  0  0  0  0  0  0  0
    4.8287    7.7391   10.5839 C   0  0  0  0  0  0  0  0  0  0  0  0
    5.3589    7.9280    9.1770 C   0  0  0  0  0  0  0  0  0  0  0  0
    4.4610    8.4790    8.2541 N   0  0  0  0  0  0  0  0  0  0  0  0
    4.9498    8.9494    7.0165 C   0  0  0  0  0  0  0  0  0  0  0  0
    3.7811    9.4422    6.1795 C   0  0  0  0  0  0  0  0  0  0  0  0
    2.9026    8.4064    5.9950 O   0  0  0  0  0  0  0  0  0  0  0  0
    2.4783    7.7524    7.1189 C   0  0  0  0  0  0  0  0  0  0  0  0
    3.0842    8.2257    8.3984 C   0  0  0  0  0  0  0  0  0  0  0  0
    2.5491    2.9848   10.9222 N   0  0  0  0  0  0  0  0  0  0  0  0
    2.7709    3.8262   10.3849 H   0  0  0  0  0  0  0  0  0  0  0  0
    2.1651    1.7787   10.2088 C   0  0  0  0  0  0  0  0  0  0  0  0
    3.2671    0.7561   10.1222 C   0  0  0  0  0  0  0  0  0  0  0  0
    4.4317    1.4261    9.3918 C   0  0  0  0  0  0  0  0  0  0  0  0
    4.2151    1.2561    7.9228 C   0  0  0  0  0  0  0  0  0  0  0  0
    4.4697   -0.0602    7.5676 O   0  0  0  0  0  0  0  0  0  0  0  0
    3.8942   -0.9740    8.4290 C   0  0  0  0  0  0  0  0  0  0  0  0
    2.7713   -0.3825    9.2512 C   0  0  0  0  0  0  0  0  0  0  0  0
    2.7781    2.9298   16.5146 C   0  0  0  0  0  0  0  0  0  0  0  0
    3.7920    1.9415   16.9788 C   0  0  0  0  0  0  0  0  0  0  0  0
    3.0599    0.6808   17.3821 C   0  0  0  0  0  0  0  0  0  0  0  0
    3.5782    0.4600   18.7866 C   0  0  0  0  0  0  0  0  0  0  0  0
    3.8394    1.9039   19.2099 C   0  0  0  0  0  0  0  0  0  0  0  0
    4.5063    2.3785   18.0918 O   0  0  0  0  0  0  0  0  0  0  0  0
    2.9762    4.3065   17.0251 C   0  0  0  0  0  0  0  0  0  0  0  0
    1.9747    4.9590   17.4333 O   0  0  0  0  0  0  0  0  0  0  0  0
    4.2391    4.9375   17.0849 N   0  0  0  0  0  0  0  0  0  0  0  0
    5.0508    4.3654   16.7451 H   0  0  0  0  0  0  0  0  0  0  0  0
    4.4844    6.2502   17.5646 C   0  0  0  0  0  0  0  0  0  0  0  0
    4.6186    7.4457   16.9280 C   0  0  0  0  0  0  0  0  0  0  0  0
    4.8455    8.4166   17.8077 N   0  0  0  0  0  0  0  0  0  0  0  0
    5.0432    9.8374   17.4984 C   0  0  0  0  0  0  0  0  0  0  0  0
    4.8655    7.8918   19.0312 C   0  0  0  0  0  0  0  0  0  0  0  0
    5.0571    8.4667   20.2853 C   0  0  0  0  0  0  0  0  0  0  0  0
    5.0190    7.6542   21.3986 C   0  0  0  0  0  0  0  0  0  0  0  0
    4.7972    6.3048   21.2789 C   0  0  0  0  0  0  0  0  0  0  0  0
    4.6066    5.7248   20.0462 C   0  0  0  0  0  0  0  0  0  0  0  0
    4.6449    6.5456   18.9210 C   0  0  0  0  0  0  0  0  0  0  0  0
  7  8  1  0  0  0
  8 13  1  0  0  0
 13 14  1  0  0  0
 14 15  1  0  0  0
 15 16  1  0  0  0
 16 17  1  0  0  0
 17 18  1  0  0  0
 18 19  1  0  0  0
 19 20  1  0  0  0
  8  9  1  0  0  0
  9 10  2  0  0  0
  9 11  1  0  0  0
 11  1  1  0  0  0
  1  2  2  0  0  0
  2  3  1  0  0  0
  3  4  2  0  0  0
  4  5  1  0  0  0
  5  6  2  0  0  0
  6 21  1  0  0  0
 21 23  1  0  0  0
 23 24  1  0  0  0
 24 25  1  0  0  0
 25 26  1  0  0  0
 26 27  1  0  0  0
 27 28  1  0  0  0
 28 29  1  0  0  0
  3 30  1  0  0  0
 30 31  1  0  0  0
 31 32  1  0  0  0
 32 33  1  0  0  0
 33 34  1  0  0  0
 34 35  1  0  0  0
 30 36  1  0  0  0
 36 37  2  0  0  0
 36 38  1  0  0  0
 38 40  1  0  0  0
 40 41  2  0  0  0
 41 42  1  0  0  0
 42 43  1  0  0  0
 42 44  1  0  0  0
 44 45  2  0  0  0
 45 46  1  0  0  0
 46 47  2  0  0  0
 47 48  1  0  0  0
 48 49  2  0  0  0
 20 15  1  0  0  0
  6  1  1  0  0  0
 29 24  1  0  0  0
 35 31  1  0  0  0
 49 40  1  0  0  0
 49 44  1  0  0  0
 11 12  1  0  0  0
 21 22  1  0  0  0
 38 39  1  0  0  0
M  END
> <minimizedAffinity>
-7.63013

> <CNNscore>
0.1390813440

> <CNNaffinity>
6.6692008972

> <CNN_VS>
0.9275614023

> <CNNaffinity_variance>
0.1832548529

$$$$
[H]c1nc(N([H])C([H])([H])C2([H])C([H])([H])C([H])([H])OC([H])([H])C2([H])[H])c(N([H])C(=O)N(C([H])([H])[H])C([H])([H])C([H])([H])N2C([H])([H])C([H])([H])OC([H])([H])C2([H])[H])nc1C([H])(C(=O)N([H])c1c([H])n(C([H])([H])[H])c2c([H])c([H])c([H])c([H])c12)[C@@]1([H])OC([H])([H])C([H])([H])C1([H])[H]


 49 54  0  0  0  0  0  0  0  0999 V2000
    3.6312    3.9420   15.2152 C   0  0  0  0  0  0  0  0  0  0  0  0
    2.8284    4.1948   14.1647 N   0  0  0  0  0  0  0  0  0  0  0  0
    2.0825    3.2207   13.5800 C   0  0  0  0  0  0  0  0  0  0  0  0
    2.1234    1.9328   14.0476 C   0  0  0  0  0  0  0  0  0  0  0  0
    2.9228    1.6844   15.0933 N   0  0  0  0  0  0  0  0  0  0  0  0
    3.6727    2.6526   15.6841 C   0  0  0  0  0  0  0  0  0  0  0  0
    5.8308    7.0948   17.0897 C   0  0  0  0  0  0  0  0  0  0  0  0
    4.5088    6.7567   17.5446 N   0  0  0  0  0  0  0  0  0  0  0  0
    3.8061    5.7082   16.8997 C   0  0  0  0  0  0  0  0  0  0  0  0
    2.6549    5.4335   17.2954 O   0  0  0  0  0  0  0  0  0  0  0  0
    4.4094    4.9710   15.8066 N   0  0  0  0  0  0  0  0  0  0  0  0
    5.3596    5.2318   15.5148 H   0  0  0  0  0  0  0  0  0  0  0  0
    3.8717    7.4517   18.6413 C   0  0  0  0  0  0  0  0  0  0  0  0
    4.8452    7.4862   19.8021 C   0  0  0  0  0  0  0  0  0  0  0  0
    5.0099    6.2820   20.4978 N   0  0  0  0  0  0  0  0  0  0  0  0
    6.2212    6.0437   21.1818 C   0  0  0  0  0  0  0  0  0  0  0  0
    6.1291    4.7059   21.8968 C   0  0  0  0  0  0  0  0  0  0  0  0
    5.0745    4.7444   22.7713 O   0  0  0  0  0  0  0  0  0  0  0  0
    3.8652    5.1276   22.2599 C   0  0  0  0  0  0  0  0  0  0  0  0
    3.8764    5.5115   20.8175 C   0  0  0  0  0  0  0  0  0  0  0  0
    4.4993    2.3359   16.8020 N   0  0  0  0  0  0  0  0  0  0  0  0
    5.2954    2.9238   17.0603 H   0  0  0  0  0  0  0  0  0  0  0  0
    4.2118    1.1558   17.5993 C   0  0  0  0  0  0  0  0  0  0  0  0
    3.4783    1.4599   18.8788 C   0  0  0  0  0  0  0  0  0  0  0  0
    4.4922    2.1070   19.8232 C   0  0  0  0  0  0  0  0  0  0  0  0
    5.2138    1.0152   20.5450 C   0  0  0  0  0  0  0  0  0  0  0  0
    4.3709    0.4513   21.4911 O   0  0  0  0  0  0  0  0  0  0  0  0
    3.1045    0.1940   21.0027 C   0  0  0  0  0  0  0  0  0  0  0  0
    3.0556    0.1386   19.4923 C   0  0  0  0  0  0  0  0  0  0  0  0
    1.2466    3.5607   12.4145 C   0  0  0  0  0  0  0  0  0  0  0  0
    0.9397    5.0187   12.4249 C   0  0  0  0  0  0  0  0  0  0  0  0
   -0.5201    5.1826   12.7854 C   0  0  0  0  0  0  0  0  0  0  0  0
   -1.0238    6.0419   11.6461 C   0  0  0  0  0  0  0  0  0  0  0  0
   -0.0904    5.5842   10.5273 C   0  0  0  0  0  0  0  0  0  0  0  0
    1.1292    5.6224   11.1841 O   0  0  0  0  0  0  0  0  0  0  0  0
    1.8584    3.0656   11.1592 C   0  0  0  0  0  0  0  0  0  0  0  0
    1.1344    2.4547   10.3237 O   0  0  0  0  0  0  0  0  0  0  0  0
    3.2230    3.2437   10.8383 N   0  0  0  0  0  0  0  0  0  0  0  0
    3.7946    3.7614   11.5502 H   0  0  0  0  0  0  0  0  0  0  0  0
    3.8582    2.7918    9.6526 C   0  0  0  0  0  0  0  0  0  0  0  0
    4.3013    3.4485    8.5459 C   0  0  0  0  0  0  0  0  0  0  0  0
    4.8359    2.5916    7.6811 N   0  0  0  0  0  0  0  0  0  0  0  0
    5.4181    2.9267    6.3765 C   0  0  0  0  0  0  0  0  0  0  0  0
    4.7600    1.3637    8.1904 C   0  0  0  0  0  0  0  0  0  0  0  0
    5.1720    0.1272    7.6988 C   0  0  0  0  0  0  0  0  0  0  0  0
    4.9595   -0.9957    8.4700 C   0  0  0  0  0  0  0  0  0  0  0  0
    4.3541   -0.9027    9.6986 C   0  0  0  0  0  0  0  0  0  0  0  0
    3.9426    0.3123   10.1953 C   0  0  0  0  0  0  0  0  0  0  0  0
    4.1573    1.4474    9.4163 C   0  0  0  0  0  0  0  0  0  0  0  0
  7  8  1  0  0  0
  8 13  1  0  0  0
 13 14  1  0  0  0
 14 15  1  0  0  0
 15 16  1  0  0  0
 16 17  1  0  0  0
 17 18  1  0  0  0
 18 19  1  0  0  0
 19 20  1  0  0  0
  8  9  1  0  0  0
  9 10  2  0  0  0
  9 11  1  0  0  0
 11  1  1  0  0  0
  1  2  2  0  0  0
  2  3  1  0  0  0
  3  4  2  0  0  0
  4  5  1  0  0  0
  5  6  2  0  0  0
  6 21  1  0  0  0
 21 23  1  0  0  0
 23 24  1  0  0  0
 24 25  1  0  0  0
 25 26  1  0  0  0
 26 27  1  0  0  0
 27 28  1  0  0  0
 28 29  1  0  0  0
  3 30  1  0  0  0
 30 31  1  0  0  0
 31 32  1  0  0  0
 32 33  1  0  0  0
 33 34  1  0  0  0
 34 35  1  0  0  0
 30 36  1  0  0  0
 36 37  2  0  0  0
 36 38  1  0  0  0
 38 40  1  0  0  0
 40 41  2  0  0  0
 41 42  1  0  0  0
 42 43  1  0  0  0
 42 44  1  0  0  0
 44 45  2  0  0  0
 45 46  1  0  0  0
 46 47  2  0  0  0
 47 48  1  0  0  0
 48 49  2  0  0  0
 20 15  1  0  0  0
  6  1  1  0  0  0
 29 24  1  0  0  0
 35 31  1  0  0  0
 49 40  1  0  0  0
 49 44  1  0  0  0
 11 12  1  0  0  0
 21 22  1  0  0  0
 38 39  1  0  0  0
M  END
> <minimizedAffinity>
-8.27202

> <CNNscore>
0.1292264462

> <CNNaffinity>
6.9547982216

> <CNN_VS>
0.8987438679

> <CNNaffinity_variance>
0.2847831845

$$$$
[H]c1nc(N([H])C([H])([H])C2([H])C([H])([H])C([H])([H])OC([H])([H])C2([H])[H])c(N([H])C(=O)N(C([H])([H])[H])C([H])([H])C([H])([H])N2C([H])([H])C([H])([H])OC([H])([H])C2([H])[H])nc1C([H])(C(=O)N([H])c1c([H])n(C([H])([H])[H])c2c([H])c([H])c([H])c([H])c12)[C@@]1([H])OC([H])([H])C([H])([H])C1([H])[H]


 49 54  0  0  0  0  0  0  0  0999 V2000
    3.7059    3.8407   15.5006 C   0  0  0  0  0  0  0  0  0  0  0  0
    3.9067    3.9822   16.8241 N   0  0  0  0  0  0  0  0  0  0  0  0
    3.7183    2.9542   17.6930 C   0  0  0  0  0  0  0  0  0  0  0  0
    3.3135    1.7241   17.2440 C   0  0  0  0  0  0  0  0  0  0  0  0
    3.1149    1.5862   15.9264 N   0  0  0  0  0  0  0  0  0  0  0  0
    3.3004    2.6091   15.0501 C   0  0  0  0  0  0  0  0  0  0  0  0
    4.1141    7.1609   12.8357 C   0  0  0  0  0  0  0  0  0  0  0  0
    2.9087    6.9824   13.5998 N   0  0  0  0  0  0  0  0  0  0  0  0
    2.8049    5.8699   14.4719 C   0  0  0  0  0  0  0  0  0  0  0  0
    1.7488    5.7192   15.1193 O   0  0  0  0  0  0  0  0  0  0  0  0
    3.8992    4.9287   14.6100 N   0  0  0  0  0  0  0  0  0  0  0  0
    4.7499    5.0930   14.0573 H   0  0  0  0  0  0  0  0  0  0  0  0
    1.7970    7.9030   13.5088 C   0  0  0  0  0  0  0  0  0  0  0  0
    1.3653    7.9733   12.0579 C   0  0  0  0  0  0  0  0  0  0  0  0
    0.2162    7.2446   11.7261 N   0  0  0  0  0  0  0  0  0  0  0  0
    0.1669    6.5644   10.4905 C   0  0  0  0  0  0  0  0  0  0  0  0
   -1.1491    5.8105   10.3945 C   0  0  0  0  0  0  0  0  0  0  0  0
   -1.2298    4.9285   11.4404 O   0  0  0  0  0  0  0  0  0  0  0  0
   -1.0316    5.4404   12.6932 C   0  0  0  0  0  0  0  0  0  0  0  0
   -0.6928    6.8933   12.7414 C   0  0  0  0  0  0  0  0  0  0  0  0
    3.0850    2.4052   13.6553 N   0  0  0  0  0  0  0  0  0  0  0  0
    3.8328    2.5513   12.9731 H   0  0  0  0  0  0  0  0  0  0  0  0
    1.7788    1.9788   13.1829 C   0  0  0  0  0  0  0  0  0  0  0  0
    1.3624    2.6371   11.8942 C   0  0  0  0  0  0  0  0  0  0  0  0
    1.3266    1.5383   10.8311 C   0  0  0  0  0  0  0  0  0  0  0  0
    2.7029    1.3971   10.2659 C   0  0  0  0  0  0  0  0  0  0  0  0
    2.9781    2.4799    9.4441 O   0  0  0  0  0  0  0  0  0  0  0  0
    2.6162    3.6898   10.0040 C   0  0  0  0  0  0  0  0  0  0  0  0
    2.4517    3.6185   11.5055 C   0  0  0  0  0  0  0  0  0  0  0  0
    3.9285    3.1861   19.1334 C   0  0  0  0  0  0  0  0  0  0  0  0
    4.7792    2.1008   19.6978 C   0  0  0  0  0  0  0  0  0  0  0  0
    3.8760    1.1446   20.4447 C   0  0  0  0  0  0  0  0  0  0  0  0
    4.5432    1.0875   21.8017 C   0  0  0  0  0  0  0  0  0  0  0  0
    5.1517    2.4869   21.8644 C   0  0  0  0  0  0  0  0  0  0  0  0
    5.7257    2.5695   20.6058 O   0  0  0  0  0  0  0  0  0  0  0  0
    4.4283    4.5582   19.3835 C   0  0  0  0  0  0  0  0  0  0  0  0
    3.6844    5.3811   19.9874 O   0  0  0  0  0  0  0  0  0  0  0  0
    5.7082    5.0028   18.9821 N   0  0  0  0  0  0  0  0  0  0  0  0
    6.3035    4.2925   18.4895 H   0  0  0  0  0  0  0  0  0  0  0  0
    6.2358    6.3024   19.1969 C   0  0  0  0  0  0  0  0  0  0  0  0
    6.2735    7.4146   18.4133 C   0  0  0  0  0  0  0  0  0  0  0  0
    6.8820    8.4105   19.0504 N   0  0  0  0  0  0  0  0  0  0  0  0
    7.1122    9.7618   18.5268 C   0  0  0  0  0  0  0  0  0  0  0  0
    7.2554    7.9849   20.2555 C   0  0  0  0  0  0  0  0  0  0  0  0
    7.9148    8.6239   21.3030 C   0  0  0  0  0  0  0  0  0  0  0  0
    8.1668    7.9137   22.4576 C   0  0  0  0  0  0  0  0  0  0  0  0
    7.7778    6.6026   22.5776 C   0  0  0  0  0  0  0  0  0  0  0  0
    7.1260    5.9602   21.5506 C   0  0  0  0  0  0  0  0  0  0  0  0
    6.8711    6.6777   20.3837 C   0  0  0  0  0  0  0  0  0  0  0  0
  7  8  1  0  0  0
  8 13  1  0  0  0
 13 14  1  0  0  0
 14 15  1  0  0  0
 15 16  1  0  0  0
 16 17  1  0  0  0
 17 18  1  0  0  0
 18 19  1  0  0  0
 19 20  1  0  0  0
  8  9  1  0  0  0
  9 10  2  0  0  0
  9 11  1  0  0  0
 11  1  1  0  0  0
  1  2  2  0  0  0
  2  3  1  0  0  0
  3  4  2  0  0  0
  4  5  1  0  0  0
  5  6  2  0  0  0
  6 21  1  0  0  0
 21 23  1  0  0  0
 23 24  1  0  0  0
 24 25  1  0  0  0
 25 26  1  0  0  0
 26 27  1  0  0  0
 27 28  1  0  0  0
 28 29  1  0  0  0
  3 30  1  0  0  0
 30 31  1  0  0  0
 31 32  1  0  0  0
 32 33  1  0  0  0
 33 34  1  0  0  0
 34 35  1  0  0  0
 30 36  1  0  0  0
 36 37  2  0  0  0
 36 38  1  0  0  0
 38 40  1  0  0  0
 40 41  2  0  0  0
 41 42  1  0  0  0
 42 43  1  0  0  0
 42 44  1  0  0  0
 44 45  2  0  0  0
 45 46  1  0  0  0
 46 47  2  0  0  0
 47 48  1  0  0  0
 48 49  2  0  0  0
 20 15  1  0  0  0
  6  1  1  0  0  0
 29 24  1  0  0  0
 35 31  1  0  0  0
 49 40  1  0  0  0
 49 44  1  0  0  0
 11 12  1  0  0  0
 21 22  1  0  0  0
 38 39  1  0  0  0
M  END
> <minimizedAffinity>
-8.46672

> <CNNscore>
0.1024056971

> <CNNaffinity>
6.7848510742

> <CNN_VS>
0.6948074102

> <CNNaffinity_variance>
0.5227609277

$$$$
[H]c1c([H])c([H])c(C([H])([H])N([H])c2nc(N([H])c3c([H])c([H])c(C(=O)OC([H])([H])C([H])([H])[H])c([H])c3[H])n(C([H])([H])[H])n2)c([H])c1[H]


 28 30  0  0  0  0  0  0  0  0999 V2000
    3.7474    2.1523   17.2448 C   0  0  0  0  0  0  0  0  0  0  0  0
    3.8615    1.5223   18.4653 N   0  0  0  0  0  0  0  0  0  0  0  0
    3.1104    0.4165   18.4933 C   0  0  0  0  0  0  0  0  0  0  0  0
    2.5324    0.3675   17.2819 N   0  0  0  0  0  0  0  0  0  0  0  0
    2.9107    1.4052   16.5273 N   0  0  0  0  0  0  0  0  0  0  0  0
    2.4717    1.6003   15.1535 C   0  0  0  0  0  0  0  0  0  0  0  0
    4.4615    3.3091   16.9567 N   0  0  0  0  0  0  0  0  0  0  0  0
    4.6126    3.5703   15.9175 H   0  0  0  0  0  0  0  0  0  0  0  0
    6.2372    6.0916   19.5159 C   0  0  0  0  0  0  0  0  0  0  0  0
    5.3366    5.1860   20.0443 C   0  0  0  0  0  0  0  0  0  0  0  0
    4.7611    4.2808   19.2073 C   0  0  0  0  0  0  0  0  0  0  0  0
    5.0343    4.2258   17.8593 C   0  0  0  0  0  0  0  0  0  0  0  0
    5.9530    5.1567   17.3460 C   0  0  0  0  0  0  0  0  0  0  0  0
    6.5280    6.0585   18.1735 C   0  0  0  0  0  0  0  0  0  0  0  0
    6.8878    7.0872   20.3630 C   0  0  0  0  0  0  0  0  0  0  0  0
    7.8274    6.7667   21.1184 O   0  0  0  0  0  0  0  0  0  0  0  0
    6.4870    8.4054   20.3554 O   0  0  0  0  0  0  0  0  0  0  0  0
    4.3287    9.2558   19.9051 C   0  0  0  0  0  0  0  0  0  0  0  0
    5.2542    8.7725   20.9929 C   0  0  0  0  0  0  0  0  0  0  0  0
    2.9534   -0.5082   19.5663 N   0  0  0  0  0  0  0  0  0  0  0  0
    3.0025   -1.5161   19.3606 H   0  0  0  0  0  0  0  0  0  0  0  0
    2.7345   -0.0227   20.8870 C   0  0  0  0  0  0  0  0  0  0  0  0
    3.8593    0.7611   21.4152 C   0  0  0  0  0  0  0  0  0  0  0  0
    5.1419    0.3352   21.0847 C   0  0  0  0  0  0  0  0  0  0  0  0
    6.2584    0.9800   21.5146 C   0  0  0  0  0  0  0  0  0  0  0  0
    6.1469    2.1007   22.3091 C   0  0  0  0  0  0  0  0  0  0  0  0
    4.8776    2.5292   22.6410 C   0  0  0  0  0  0  0  0  0  0  0  0
    3.7305    1.8795   22.2082 C   0  0  0  0  0  0  0  0  0  0  0  0
 18 19  1  0  0  0
 19 17  1  0  0  0
 17 15  1  0  0  0
 15 16  2  0  0  0
 15  9  1  0  0  0
  9 10  2  0  0  0
 10 11  1  0  0  0
 11 12  2  0  0  0
 12  7  1  0  0  0
  7  1  1  0  0  0
  1  2  2  0  0  0
  2  3  1  0  0  0
  3 20  1  0  0  0
 20 22  1  0  0  0
 22 23  1  0  0  0
 23 24  2  0  0  0
 24 25  1  0  0  0
 25 26  2  0  0  0
 26 27  1  0  0  0
 27 28  2  0  0  0
  3  4  2  0  0  0
  4  5  1  0  0  0
  5  6  1  0  0  0
 12 13  1  0  0  0
 13 14  2  0  0  0
 14  9  1  0  0  0
  5  1  1  0  0  0
 28 23  1  0  0  0
  7  8  1  0  0  0
 20 21  1  0  0  0
M  END
> <minimizedAffinity>
-7.56026

> <CNNscore>
0.9151443839

> <CNNaffinity>
6.6408262253

> <CNN_VS>
6.0773148537

> <CNNaffinity_variance>
0.2772809863

$$$$
[H]c1c([H])c([H])c(C([H])([H])N([H])c2nc(N([H])c3c([H])c([H])c(C(=O)OC([H])([H])C([H])([H])[H])c([H])c3[H])n(C([H])([H])[H])n2)c([H])c1[H]


 28 30  0  0  0  0  0  0  0  0999 V2000
    3.9181    2.4045   17.7960 C   0  0  0  0  0  0  0  0  0  0  0  0
    4.3007    2.2089   19.1054 N   0  0  0  0  0  0  0  0  0  0  0  0
    3.8870    1.0143   19.5406 C   0  0  0  0  0  0  0  0  0  0  0  0
    3.2471    0.4732   18.4910 N   0  0  0  0  0  0  0  0  0  0  0  0
    3.2625    1.3013   17.4405 N   0  0  0  0  0  0  0  0  0  0  0  0
    2.6753    0.9714   16.1504 C   0  0  0  0  0  0  0  0  0  0  0  0
    4.2609    3.5608   17.1056 N   0  0  0  0  0  0  0  0  0  0  0  0
    4.1653    3.5591   16.0277 H   0  0  0  0  0  0  0  0  0  0  0  0
    5.7886    7.1470   18.6056 C   0  0  0  0  0  0  0  0  0  0  0  0
    4.4451    6.8743   18.7815 C   0  0  0  0  0  0  0  0  0  0  0  0
    3.9517    5.7046   18.2920 C   0  0  0  0  0  0  0  0  0  0  0  0
    4.7287    4.7811   17.6299 C   0  0  0  0  0  0  0  0  0  0  0  0
    6.0912    5.0811   17.4637 C   0  0  0  0  0  0  0  0  0  0  0  0
    6.5868    6.2422   17.9483 C   0  0  0  0  0  0  0  0  0  0  0  0
    6.3771    8.3852   19.1082 C   0  0  0  0  0  0  0  0  0  0  0  0
    6.4033    9.4126   18.4011 O   0  0  0  0  0  0  0  0  0  0  0  0
    6.9197    8.4582   20.3726 O   0  0  0  0  0  0  0  0  0  0  0  0
    8.4318    6.9172   21.3334 C   0  0  0  0  0  0  0  0  0  0  0  0
    8.3208    8.2042   20.5557 C   0  0  0  0  0  0  0  0  0  0  0  0
    4.0788    0.4377   20.8297 N   0  0  0  0  0  0  0  0  0  0  0  0
    3.4588   -0.3300   21.1244 H   0  0  0  0  0  0  0  0  0  0  0  0
    5.1141    0.9309   21.6740 C   0  0  0  0  0  0  0  0  0  0  0  0
    4.8751    2.2990   22.1531 C   0  0  0  0  0  0  0  0  0  0  0  0
    5.8232    3.2627   21.8244 C   0  0  0  0  0  0  0  0  0  0  0  0
    5.7093    4.5605   22.2115 C   0  0  0  0  0  0  0  0  0  0  0  0
    4.6244    4.9664   22.9586 C   0  0  0  0  0  0  0  0  0  0  0  0
    3.6797    4.0159   23.2884 C   0  0  0  0  0  0  0  0  0  0  0  0
    3.7850    2.6883   22.8991 C   0  0  0  0  0  0  0  0  0  0  0  0
 18 19  1  0  0  0
 19 17  1  0  0  0
 17 15  1  0  0  0
 15 16  2  0  0  0
 15  9  1  0  0  0
  9 10  2  0  0  0
 10 11  1  0  0  0
 11 12  2  0  0  0
 12  7  1  0  0  0
  7  1  1  0  0  0
  1  2  2  0  0  0
  2  3  1  0  0  0
  3 20  1  0  0  0
 20 22  1  0  0  0
 22 23  1  0  0  0
 23 24  2  0  0  0
 24 25  1  0  0  0
 25 26  2  0  0  0
 26 27  1  0  0  0
 27 28  2  0  0  0
  3  4  2  0  0  0
  4  5  1  0  0  0
  5  6  1  0  0  0
 12 13  1  0  0  0
 13 14  2  0  0  0
 14  9  1  0  0  0
  5  1  1  0  0  0
 28 23  1  0  0  0
  7  8  1  0  0  0
 20 21  1  0  0  0
M  END
> <minimizedAffinity>
-6.60377

> <CNNscore>
0.5710983276

> <CNNaffinity>
6.2107720375

> <CNN_VS>
3.5469615459

> <CNNaffinity_variance>
0.5743153095

$$$$
[H]c1c([H])c([H])c(C([H])([H])N([H])c2nc(N([H])c3c([H])c([H])c(C(=O)OC([H])([H])C([H])([H])[H])c([H])c3[H])n(C([H])([H])[H])n2)c([H])c1[H]


 28 30  0  0  0  0  0  0  0  0999 V2000
    4.1486    2.8630   17.5725 C   0  0  0  0  0  0  0  0  0  0  0  0
    4.4035    2.5407   18.8880 N   0  0  0  0  0  0  0  0  0  0  0  0
    3.9937    1.2959   19.1529 C   0  0  0  0  0  0  0  0  0  0  0  0
    3.4848    0.8514   17.9920 N   0  0  0  0  0  0  0  0  0  0  0  0
    3.5752    1.7860   17.0392 N   0  0  0  0  0  0  0  0  0  0  0  0
    3.1352    1.5783   15.6676 C   0  0  0  0  0  0  0  0  0  0  0  0
    4.5153    4.0948   17.0438 N   0  0  0  0  0  0  0  0  0  0  0  0
    4.7370    4.1508   15.9861 H   0  0  0  0  0  0  0  0  0  0  0  0
    4.7323    7.7536   19.0463 C   0  0  0  0  0  0  0  0  0  0  0  0
    5.9080    7.1457   18.6481 C   0  0  0  0  0  0  0  0  0  0  0  0
    5.8328    5.9543   17.9954 C   0  0  0  0  0  0  0  0  0  0  0  0
    4.6402    5.3271   17.7138 C   0  0  0  0  0  0  0  0  0  0  0  0
    3.4591    5.9648   18.1288 C   0  0  0  0  0  0  0  0  0  0  0  0
    3.5281    7.1490   18.7778 C   0  0  0  0  0  0  0  0  0  0  0  0
    4.7476    9.0327   19.7505 C   0  0  0  0  0  0  0  0  0  0  0  0
    4.7521    9.0750   20.9972 O   0  0  0  0  0  0  0  0  0  0  0  0
    4.7575   10.2275   19.0644 O   0  0  0  0  0  0  0  0  0  0  0  0
    3.2381   10.7363   17.3274 C   0  0  0  0  0  0  0  0  0  0  0  0
    3.5172   10.9005   18.8000 C   0  0  0  0  0  0  0  0  0  0  0  0
    4.0754    0.5918   20.3892 N   0  0  0  0  0  0  0  0  0  0  0  0
    3.4037   -0.1676   20.5703 H   0  0  0  0  0  0  0  0  0  0  0  0
    5.0749    0.9502   21.3381 C   0  0  0  0  0  0  0  0  0  0  0  0
    4.8439    2.2593   21.9636 C   0  0  0  0  0  0  0  0  0  0  0  0
    5.8214    3.2325   21.7817 C   0  0  0  0  0  0  0  0  0  0  0  0
    5.7175    4.4795   22.3120 C   0  0  0  0  0  0  0  0  0  0  0  0
    4.6134    4.8216   23.0629 C   0  0  0  0  0  0  0  0  0  0  0  0
    3.6395    3.8614   23.2476 C   0  0  0  0  0  0  0  0  0  0  0  0
    3.7343    2.5852   22.7113 C   0  0  0  0  0  0  0  0  0  0  0  0
 18 19  1  0  0  0
 19 17  1  0  0  0
 17 15  1  0  0  0
 15 16  2  0  0  0
 15  9  1  0  0  0
  9 10  2  0  0  0
 10 11  1  0  0  0
 11 12  2  0  0  0
 12  7  1  0  0  0
  7  1  1  0  0  0
  1  2  2  0  0  0
  2  3  1  0  0  0
  3 20  1  0  0  0
 20 22  1  0  0  0
 22 23  1  0  0  0
 23 24  2  0  0  0
 24 25  1  0  0  0
 25 26  2  0  0  0
 26 27  1  0  0  0
 27 28  2  0  0  0
  3  4  2  0  0  0
  4  5  1  0  0  0
  5  6  1  0  0  0
 12 13  1  0  0  0
 13 14  2  0  0  0
 14  9  1  0  0  0
  5  1  1  0  0  0
 28 23  1  0  0  0
  7  8  1  0  0  0
 20 21  1  0  0  0
M  END
> <minimizedAffinity>
-6.96377

> <CNNscore>
0.4468503296

> <CNNaffinity>
5.7872352600

> <CNN_VS>
2.5860280991

> <CNNaffinity_variance>
0.6586043835

$$$$
[H]c1c([H])c([H])c(C([H])([H])N([H])c2nc(N([H])c3c([H])c([H])c(C(=O)OC([H])([H])C([H])([H])[H])c([H])c3[H])n(C([H])([H])[H])n2)c([H])c1[H]


 28 30  0  0  0  0  0  0  0  0999 V2000
    4.0874    1.5169   19.7554 C   0  0  0  0  0  0  0  0  0  0  0  0
    4.5664    2.7589   20.1125 N   0  0  0  0  0  0  0  0  0  0  0  0
    4.3159    3.0040   21.4028 C   0  0  0  0  0  0  0  0  0  0  0  0
    3.6799    1.9048   21.8403 N   0  0  0  0  0  0  0  0  0  0  0  0
    3.5401    1.0081   20.8575 N   0  0  0  0  0  0  0  0  0  0  0  0
    2.9185   -0.2947   21.0428 C   0  0  0  0  0  0  0  0  0  0  0  0
    4.2568    1.0169   18.4699 N   0  0  0  0  0  0  0  0  0  0  0  0
    4.6603    0.0189   18.3593 H   0  0  0  0  0  0  0  0  0  0  0  0
    3.4744    3.0042   14.8806 C   0  0  0  0  0  0  0  0  0  0  0  0
    2.9219    1.7529   15.0791 C   0  0  0  0  0  0  0  0  0  0  0  0
    3.1786    1.1094   16.2500 C   0  0  0  0  0  0  0  0  0  0  0  0
    3.9630    1.6470   17.2453 C   0  0  0  0  0  0  0  0  0  0  0  0
    4.5132    2.9200   17.0200 C   0  0  0  0  0  0  0  0  0  0  0  0
    4.2611    3.5641   15.8580 C   0  0  0  0  0  0  0  0  0  0  0  0
    3.2355    3.7449   13.6451 C   0  0  0  0  0  0  0  0  0  0  0  0
    2.0745    3.9459   13.2356 O   0  0  0  0  0  0  0  0  0  0  0  0
    4.2791    4.2428   12.8959 O   0  0  0  0  0  0  0  0  0  0  0  0
    5.5867    4.5087   10.9455 C   0  0  0  0  0  0  0  0  0  0  0  0
    4.2055    4.1954   11.4629 C   0  0  0  0  0  0  0  0  0  0  0  0
    4.6471    4.1696   22.1529 N   0  0  0  0  0  0  0  0  0  0  0  0
    5.2925    4.0769   22.9501 H   0  0  0  0  0  0  0  0  0  0  0  0
    4.0838    5.4253   21.7868 C   0  0  0  0  0  0  0  0  0  0  0  0
    4.5037    5.8885   20.4573 C   0  0  0  0  0  0  0  0  0  0  0  0
    3.5061    6.0828   19.5072 C   0  0  0  0  0  0  0  0  0  0  0  0
    3.7736    6.5089   18.2447 C   0  0  0  0  0  0  0  0  0  0  0  0
    5.0727    6.7662   17.8626 C   0  0  0  0  0  0  0  0  0  0  0  0
    6.0677    6.5758   18.7999 C   0  0  0  0  0  0  0  0  0  0  0  0
    5.8070    6.1412   20.0915 C   0  0  0  0  0  0  0  0  0  0  0  0
 18 19  1  0  0  0
 19 17  1  0  0  0
 17 15  1  0  0  0
 15 16  2  0  0  0
 15  9  1  0  0  0
  9 10  2  0  0  0
 10 11  1  0  0  0
 11 12  2  0  0  0
 12  7  1  0  0  0
  7  1  1  0  0  0
  1  2  2  0  0  0
  2  3  1  0  0  0
  3 20  1  0  0  0
 20 22  1  0  0  0
 22 23  1  0  0  0
 23 24  2  0  0  0
 24 25  1  0  0  0
 25 26  2  0  0  0
 26 27  1  0  0  0
 27 28  2  0  0  0
  3  4  2  0  0  0
  4  5  1  0  0  0
  5  6  1  0  0  0
 12 13  1  0  0  0
 13 14  2  0  0  0
 14  9  1  0  0  0
  5  1  1  0  0  0
 28 23  1  0  0  0
  7  8  1  0  0  0
 20 21  1  0  0  0
M  END
> <minimizedAffinity>
-7.12955

> <CNNscore>
0.4096897244

> <CNNaffinity>
5.9117107391

> <CNN_VS>
2.4219670296

> <CNNaffinity_variance>
0.5407074690

$$$$
[H]c1c([H])c([H])c(C([H])([H])N([H])c2nc(N([H])c3c([H])c([H])c(C(=O)OC([H])([H])C([H])([H])[H])c([H])c3[H])n(C([H])([H])[H])n2)c([H])c1[H]


 28 30  0  0  0  0  0  0  0  0999 V2000
    4.3601    6.7383   19.7522 C   0  0  0  0  0  0  0  0  0  0  0  0
    4.2975    5.6804   20.6333 N   0  0  0  0  0  0  0  0  0  0  0  0
    4.7199    6.0549   21.8453 C   0  0  0  0  0  0  0  0  0  0  0  0
    5.0430    7.3513   21.7070 N   0  0  0  0  0  0  0  0  0  0  0  0
    4.8289    7.7682   20.4541 N   0  0  0  0  0  0  0  0  0  0  0  0
    5.0568    9.1366   20.0140 C   0  0  0  0  0  0  0  0  0  0  0  0
    3.9410    6.6091   18.4335 N   0  0  0  0  0  0  0  0  0  0  0  0
    3.7016    7.5097   17.8834 H   0  0  0  0  0  0  0  0  0  0  0  0
    3.3162    3.1357   16.1997 C   0  0  0  0  0  0  0  0  0  0  0  0
    4.6076    3.4632   16.5679 C   0  0  0  0  0  0  0  0  0  0  0  0
    4.8066    4.5951   17.2962 C   0  0  0  0  0  0  0  0  0  0  0  0
    3.7814    5.4285   17.6827 C   0  0  0  0  0  0  0  0  0  0  0  0
    2.4779    5.0742   17.2963 C   0  0  0  0  0  0  0  0  0  0  0  0
    2.2745    3.9503   16.5725 C   0  0  0  0  0  0  0  0  0  0  0  0
    3.0385    1.9341   15.4181 C   0  0  0  0  0  0  0  0  0  0  0  0
    3.2889    1.8949   14.1967 O   0  0  0  0  0  0  0  0  0  0  0  0
    2.4937    0.8109   16.0013 O   0  0  0  0  0  0  0  0  0  0  0  0
    2.4325   -0.1457   18.1612 C   0  0  0  0  0  0  0  0  0  0  0  0
    3.2785    0.0448   16.9278 C   0  0  0  0  0  0  0  0  0  0  0  0
    4.8100    5.2607   23.0251 N   0  0  0  0  0  0  0  0  0  0  0  0
    5.4284    5.5753   23.7862 H   0  0  0  0  0  0  0  0  0  0  0  0
    4.0498    4.0606   23.1250 C   0  0  0  0  0  0  0  0  0  0  0  0
    4.6435    2.9308   22.3973 C   0  0  0  0  0  0  0  0  0  0  0  0
    5.9823    2.6465   22.6470 C   0  0  0  0  0  0  0  0  0  0  0  0
    6.6385    1.6265   22.0339 C   0  0  0  0  0  0  0  0  0  0  0  0
    5.9786    0.8267   21.1259 C   0  0  0  0  0  0  0  0  0  0  0  0
    4.6502    1.1026   20.8731 C   0  0  0  0  0  0  0  0  0  0  0  0
    3.9696    2.1409   21.4927 C   0  0  0  0  0  0  0  0  0  0  0  0
 18 19  1  0  0  0
 19 17  1  0  0  0
 17 15  1  0  0  0
 15 16  2  0  0  0
 15  9  1  0  0  0
  9 10  2  0  0  0
 10 11  1  0  0  0
 11 12  2  0  0  0
 12  7  1  0  0  0
  7  1  1  0  0  0
  1  2  2  0  0  0
  2  3  1  0  0  0
  3 20  1  0  0  0
 20 22  1  0  0  0
 22 23  1  0  0  0
 23 24  2  0  0  0
 24 25  1  0  0  0
 25 26  2  0  0  0
 26 27  1  0  0  0
 27 28  2  0  0  0
  3  4  2  0  0  0
  4  5  1  0  0  0
  5  6  1  0  0  0
 12 13  1  0  0  0
 13 14  2  0  0  0
 14  9  1  0  0  0
  5  1  1  0  0  0
 28 23  1  0  0  0
  7  8  1  0  0  0
 20 21  1  0  0  0
M  END
> <minimizedAffinity>
-7.83236

> <CNNscore>
0.3259937167

> <CNNaffinity>
5.5967798233

> <CNN_VS>
1.8245151043

> <CNNaffinity_variance>
0.3481798470

$$$$
[H]c1c([H])c([H])c(C([H])([H])N([H])c2nc(N([H])c3c([H])c([H])c(C(=O)OC([H])([H])C([H])([H])[H])c([H])c3[H])n(C([H])([H])[H])n2)c([H])c1[H]


 28 30  0  0  0  0  0  0  0  0999 V2000
    4.3095    1.5961   20.0556 C   0  0  0  0  0  0  0  0  0  0  0  0
    4.6860    2.8024   20.6054 N   0  0  0  0  0  0  0  0  0  0  0  0
    4.1967    2.9257   21.8436 C   0  0  0  0  0  0  0  0  0  0  0  0
    3.5162    1.7871   22.0550 N   0  0  0  0  0  0  0  0  0  0  0  0
    3.5803    0.9843   20.9869 N   0  0  0  0  0  0  0  0  0  0  0  0
    2.9651   -0.3336   20.9358 C   0  0  0  0  0  0  0  0  0  0  0  0
    4.7241    1.2180   18.7842 N   0  0  0  0  0  0  0  0  0  0  0  0
    5.6331    0.6378   18.6952 H   0  0  0  0  0  0  0  0  0  0  0  0
    2.9624    2.1572   15.1156 C   0  0  0  0  0  0  0  0  0  0  0  0
    2.6374    0.9566   15.7184 C   0  0  0  0  0  0  0  0  0  0  0  0
    3.2129    0.6550   16.9138 C   0  0  0  0  0  0  0  0  0  0  0  0
    4.1035    1.4900   17.5497 C   0  0  0  0  0  0  0  0  0  0  0  0
    4.4179    2.7045   16.9170 C   0  0  0  0  0  0  0  0  0  0  0  0
    3.8486    3.0093   15.7289 C   0  0  0  0  0  0  0  0  0  0  0  0
    2.3778    2.5374   13.8327 C   0  0  0  0  0  0  0  0  0  0  0  0
    2.7035    1.9476   12.7828 O   0  0  0  0  0  0  0  0  0  0  0  0
    1.4528    3.5545   13.7409 O   0  0  0  0  0  0  0  0  0  0  0  0
    1.3149    5.8945   14.0404 C   0  0  0  0  0  0  0  0  0  0  0  0
    1.8318    4.8017   13.1393 C   0  0  0  0  0  0  0  0  0  0  0  0
    4.3574    4.0188   22.7437 N   0  0  0  0  0  0  0  0  0  0  0  0
    4.8028    3.8459   23.6560 H   0  0  0  0  0  0  0  0  0  0  0  0
    3.9030    5.3143   22.3652 C   0  0  0  0  0  0  0  0  0  0  0  0
    4.9231    6.1112   21.6703 C   0  0  0  0  0  0  0  0  0  0  0  0
    6.1475    6.2746   22.3105 C   0  0  0  0  0  0  0  0  0  0  0  0
    7.1662    6.9902   21.7655 C   0  0  0  0  0  0  0  0  0  0  0  0
    7.0095    7.5880   20.5335 C   0  0  0  0  0  0  0  0  0  0  0  0
    5.7976    7.4302   19.8924 C   0  0  0  0  0  0  0  0  0  0  0  0
    4.7503    6.7021   20.4386 C   0  0  0  0  0  0  0  0  0  0  0  0
 18 19  1  0  0  0
 19 17  1  0  0  0
 17 15  1  0  0  0
 15 16  2  0  0  0
 15  9  1  0  0  0
  9 10  2  0  0  0
 10 11  1  0  0  0
 11 12  2  0  0  0
 12  7  1  0  0  0
  7  1  1  0  0  0
  1  2  2  0  0  0
  2  3  1  0  0  0
  3 20  1  0  0  0
 20 22  1  0  0  0
 22 23  1  0  0  0
 23 24  2  0  0  0
 24 25  1  0  0  0
 25 26  2  0  0  0
 26 27  1  0  0  0
 27 28  2  0  0  0
  3  4  2  0  0  0
  4  5  1  0  0  0
  5  6  1  0  0  0
 12 13  1  0  0  0
 13 14  2  0  0  0
 14  9  1  0  0  0
  5  1  1  0  0  0
 28 23  1  0  0  0
  7  8  1  0  0  0
 20 21  1  0  0  0
M  END
> <minimizedAffinity>
-7.19589

> <CNNscore>
0.3145602942

> <CNNaffinity>
5.7248125076

> <CNN_VS>
1.8007986546

> <CNNaffinity_variance>
0.5623328090

$$$$
[H]c1c([H])c([H])c(C([H])([H])N([H])c2nc(N([H])c3c([H])c([H])c(C(=O)OC([H])([H])C([H])([H])[H])c([H])c3[H])n(C([H])([H])[H])n2)c([H])c1[H]


 28 30  0  0  0  0  0  0  0  0999 V2000
    4.2973    1.6128   19.9987 C   0  0  0  0  0  0  0  0  0  0  0  0
    4.6386    2.8519   20.4963 N   0  0  0  0  0  0  0  0  0  0  0  0
    4.1934    2.9921   21.7492 C   0  0  0  0  0  0  0  0  0  0  0  0
    3.5756    1.8311   22.0223 N   0  0  0  0  0  0  0  0  0  0  0  0
    3.6348    0.9985   20.9769 N   0  0  0  0  0  0  0  0  0  0  0  0
    3.0802   -0.3469   20.9905 C   0  0  0  0  0  0  0  0  0  0  0  0
    4.6785    1.2138   18.7233 N   0  0  0  0  0  0  0  0  0  0  0  0
    5.5490    0.5785   18.6259 H   0  0  0  0  0  0  0  0  0  0  0  0
    2.7858    2.0131   15.0869 C   0  0  0  0  0  0  0  0  0  0  0  0
    3.6778    2.9425   15.5877 C   0  0  0  0  0  0  0  0  0  0  0  0
    4.2927    2.6779   16.7721 C   0  0  0  0  0  0  0  0  0  0  0  0
    4.0672    1.5277   17.4941 C   0  0  0  0  0  0  0  0  0  0  0  0
    3.1563    0.5984   16.9643 C   0  0  0  0  0  0  0  0  0  0  0  0
    2.5424    0.8564   15.7874 C   0  0  0  0  0  0  0  0  0  0  0  0
    2.0945    2.2398   13.8208 C   0  0  0  0  0  0  0  0  0  0  0  0
    0.8483    2.2415   13.7653 O   0  0  0  0  0  0  0  0  0  0  0  0
    2.7926    2.4578   12.6531 O   0  0  0  0  0  0  0  0  0  0  0  0
    4.1762    4.3107   12.1663 C   0  0  0  0  0  0  0  0  0  0  0  0
    2.7762    3.7621   12.0534 C   0  0  0  0  0  0  0  0  0  0  0  0
    4.3384    4.1195   22.6089 N   0  0  0  0  0  0  0  0  0  0  0  0
    4.6863    3.9687   23.5664 H   0  0  0  0  0  0  0  0  0  0  0  0
    4.0023    5.4176   22.1293 C   0  0  0  0  0  0  0  0  0  0  0  0
    5.1740    6.2598   21.8536 C   0  0  0  0  0  0  0  0  0  0  0  0
    6.4259    5.7159   22.1232 C   0  0  0  0  0  0  0  0  0  0  0  0
    7.5805    6.3999   21.9085 C   0  0  0  0  0  0  0  0  0  0  0  0
    7.5408    7.6825   21.4053 C   0  0  0  0  0  0  0  0  0  0  0  0
    6.3025    8.2286   21.1353 C   0  0  0  0  0  0  0  0  0  0  0  0
    5.1171    7.5404   21.3503 C   0  0  0  0  0  0  0  0  0  0  0  0
 18 19  1  0  0  0
 19 17  1  0  0  0
 17 15  1  0  0  0
 15 16  2  0  0  0
 15  9  1  0  0  0
  9 10  2  0  0  0
 10 11  1  0  0  0
 11 12  2  0  0  0
 12  7  1  0  0  0
  7  1  1  0  0  0
  1  2  2  0  0  0
  2  3  1  0  0  0
  3 20  1  0  0  0
 20 22  1  0  0  0
 22 23  1  0  0  0
 23 24  2  0  0  0
 24 25  1  0  0  0
 25 26  2  0  0  0
 26 27  1  0  0  0
 27 28  2  0  0  0
  3  4  2  0  0  0
  4  5  1  0  0  0
  5  6  1  0  0  0
 12 13  1  0  0  0
 13 14  2  0  0  0
 14  9  1  0  0  0
  5  1  1  0  0  0
 28 23  1  0  0  0
  7  8  1  0  0  0
 20 21  1  0  0  0
M  END
> <minimizedAffinity>
-7.31399

> <CNNscore>
0.3080066144

> <CNNaffinity>
5.8486213684

> <CNN_VS>
1.8014140129

> <CNNaffinity_variance>
0.4689963758

$$$$
[H]c1c([H])c([H])c(C([H])([H])N([H])c2nc(N([H])c3c([H])c([H])c(C(=O)OC([H])([H])C([H])([H])[H])c([H])c3[H])n(C([H])([H])[H])n2)c([H])c1[H]


 28 30  0  0  0  0  0  0  0  0999 V2000
    4.1389    1.7144   18.1635 C   0  0  0  0  0  0  0  0  0  0  0  0
    4.6574    2.0805   19.3868 N   0  0  0  0  0  0  0  0  0  0  0  0
    4.1782    1.2910   20.3536 C   0  0  0  0  0  0  0  0  0  0  0  0
    3.3610    0.4344   19.7190 N   0  0  0  0  0  0  0  0  0  0  0  0
    3.3332    0.6821   18.4047 N   0  0  0  0  0  0  0  0  0  0  0  0
    2.5605   -0.1061   17.4561 C   0  0  0  0  0  0  0  0  0  0  0  0
    4.5127    2.3650   16.9937 N   0  0  0  0  0  0  0  0  0  0  0  0
    5.5655    2.4068   16.7469 H   0  0  0  0  0  0  0  0  0  0  0  0
    2.0304    4.3547   14.2876 C   0  0  0  0  0  0  0  0  0  0  0  0
    2.6369    3.1785   13.8888 C   0  0  0  0  0  0  0  0  0  0  0  0
    3.4441    2.5332   14.7736 C   0  0  0  0  0  0  0  0  0  0  0  0
    3.6844    2.9978   16.0469 C   0  0  0  0  0  0  0  0  0  0  0  0
    3.0564    4.1952   16.4288 C   0  0  0  0  0  0  0  0  0  0  0  0
    2.2531    4.8406   15.5533 C   0  0  0  0  0  0  0  0  0  0  0  0
    1.1532    5.0931   13.3834 C   0  0  0  0  0  0  0  0  0  0  0  0
    0.2658    4.5051   12.7332 O   0  0  0  0  0  0  0  0  0  0  0  0
    1.2769    6.4557   13.2202 O   0  0  0  0  0  0  0  0  0  0  0  0
    1.8749    8.1647   11.7017 C   0  0  0  0  0  0  0  0  0  0  0  0
    2.3895    6.9803   12.4800 C   0  0  0  0  0  0  0  0  0  0  0  0
    4.4662    1.3416   21.7484 N   0  0  0  0  0  0  0  0  0  0  0  0
    5.0313    0.5874   22.1636 H   0  0  0  0  0  0  0  0  0  0  0  0
    3.9709    2.4241   22.5300 C   0  0  0  0  0  0  0  0  0  0  0  0
    4.7254    3.6711   22.3454 C   0  0  0  0  0  0  0  0  0  0  0  0
    3.9903    4.8401   22.1761 C   0  0  0  0  0  0  0  0  0  0  0  0
    4.5780    6.0524   21.9971 C   0  0  0  0  0  0  0  0  0  0  0  0
    5.9521    6.1584   21.9780 C   0  0  0  0  0  0  0  0  0  0  0  0
    6.6880    5.0030   22.1453 C   0  0  0  0  0  0  0  0  0  0  0  0
    6.0995    3.7599   22.3289 C   0  0  0  0  0  0  0  0  0  0  0  0
 18 19  1  0  0  0
 19 17  1  0  0  0
 17 15  1  0  0  0
 15 16  2  0  0  0
 15  9  1  0  0  0
  9 10  2  0  0  0
 10 11  1  0  0  0
 11 12  2  0  0  0
 12  7  1  0  0  0
  7  1  1  0  0  0
  1  2  2  0  0  0
  2  3  1  0  0  0
  3 20  1  0  0  0
 20 22  1  0  0  0
 22 23  1  0  0  0
 23 24  2  0  0  0
 24 25  1  0  0  0
 25 26  2  0  0  0
 26 27  1  0  0  0
 27 28  2  0  0  0
  3  4  2  0  0  0
  4  5  1  0  0  0
  5  6  1  0  0  0
 12 13  1  0  0  0
 13 14  2  0  0  0
 14  9  1  0  0  0
  5  1  1  0  0  0
 28 23  1  0  0  0
  7  8  1  0  0  0
 20 21  1  0  0  0
M  END
> <minimizedAffinity>
-6.86028

> <CNNscore>
0.2543830276

> <CNNaffinity>
5.6334233284

> <CNN_VS>
1.4330472946

> <CNNaffinity_variance>
0.5988332033

$$$$
[H]c1c([H])c([H])c(C([H])([H])N([H])c2nc(N([H])c3c([H])c([H])c(C(=O)OC([H])([H])C([H])([H])[H])c([H])c3[H])n(C([H])([H])[H])n2)c([H])c1[H]


 28 30  0  0  0  0  0  0  0  0999 V2000
    4.7296    2.2023   20.0987 C   0  0  0  0  0  0  0  0  0  0  0  0
    4.0927    3.4087   20.2948 N   0  0  0  0  0  0  0  0  0  0  0  0
    4.5679    4.0168   21.3867 C   0  0  0  0  0  0  0  0  0  0  0  0
    5.5030    3.1784   21.8629 N   0  0  0  0  0  0  0  0  0  0  0  0
    5.6060    2.0881   21.0947 N   0  0  0  0  0  0  0  0  0  0  0  0
    6.5602    1.0180   21.3445 C   0  0  0  0  0  0  0  0  0  0  0  0
    4.4341    1.3959   19.0062 N   0  0  0  0  0  0  0  0  0  0  0  0
    4.4450    0.3229   19.1459 H   0  0  0  0  0  0  0  0  0  0  0  0
    3.3715    2.4471   15.1061 C   0  0  0  0  0  0  0  0  0  0  0  0
    4.2221    3.2800   15.8083 C   0  0  0  0  0  0  0  0  0  0  0  0
    4.5663    2.9335   17.0781 C   0  0  0  0  0  0  0  0  0  0  0  0
    4.1064    1.7922   17.6952 C   0  0  0  0  0  0  0  0  0  0  0  0
    3.2431    0.9617   16.9610 C   0  0  0  0  0  0  0  0  0  0  0  0
    2.8978    1.3014   15.6985 C   0  0  0  0  0  0  0  0  0  0  0  0
    2.9656    2.7647   13.7399 C   0  0  0  0  0  0  0  0  0  0  0  0
    2.9540    3.9447   13.3354 O   0  0  0  0  0  0  0  0  0  0  0  0
    2.5844    1.7767   12.8584 O   0  0  0  0  0  0  0  0  0  0  0  0
    2.0972    1.5259   10.5597 C   0  0  0  0  0  0  0  0  0  0  0  0
    1.5803    2.0591   11.8720 C   0  0  0  0  0  0  0  0  0  0  0  0
    4.1743    5.2743   21.9296 N   0  0  0  0  0  0  0  0  0  0  0  0
    3.4408    5.2922   22.6524 H   0  0  0  0  0  0  0  0  0  0  0  0
    4.7982    6.4673   21.4654 C   0  0  0  0  0  0  0  0  0  0  0  0
    4.9024    6.5405   20.0018 C   0  0  0  0  0  0  0  0  0  0  0  0
    6.1576    6.3238   19.4420 C   0  0  0  0  0  0  0  0  0  0  0  0
    6.3758    6.3661   18.1013 C   0  0  0  0  0  0  0  0  0  0  0  0
    5.3337    6.6314   17.2391 C   0  0  0  0  0  0  0  0  0  0  0  0
    4.0856    6.8474   17.7873 C   0  0  0  0  0  0  0  0  0  0  0  0
    3.8504    6.8068   19.1541 C   0  0  0  0  0  0  0  0  0  0  0  0
 18 19  1  0  0  0
 19 17  1  0  0  0
 17 15  1  0  0  0
 15 16  2  0  0  0
 15  9  1  0  0  0
  9 10  2  0  0  0
 10 11  1  0  0  0
 11 12  2  0  0  0
 12  7  1  0  0  0
  7  1  1  0  0  0
  1  2  2  0  0  0
  2  3  1  0  0  0
  3 20  1  0  0  0
 20 22  1  0  0  0
 22 23  1  0  0  0
 23 24  2  0  0  0
 24 25  1  0  0  0
 25 26  2  0  0  0
 26 27  1  0  0  0
 27 28  2  0  0  0
  3  4  2  0  0  0
  4  5  1  0  0  0
  5  6  1  0  0  0
 12 13  1  0  0  0
 13 14  2  0  0  0
 14  9  1  0  0  0
  5  1  1  0  0  0
 28 23  1  0  0  0
  7  8  1  0  0  0
 20 21  1  0  0  0
M  END
> <minimizedAffinity>
-7.03362

> <CNNscore>
0.2539424896

> <CNNaffinity>
5.6994686127

> <CNN_VS>
1.4473372698

> <CNNaffinity_variance>
0.5641261339

$$$$
[H]c1nc(N([H])C([H])([H])[H])nc(-c2c([H])nc(N([H])[H])nc2[H])c1[H]


 18 19  0  0  0  0  0  0  0  0999 V2000
    3.1432    2.7345   13.9409 C   0  0  0  0  0  0  0  0  0  0  0  0
    3.7650    3.9176   14.0482 N   0  0  0  0  0  0  0  0  0  0  0  0
    4.2320    4.2913   15.2415 C   0  0  0  0  0  0  0  0  0  0  0  0
    4.0641    3.4475   16.3449 C   0  0  0  0  0  0  0  0  0  0  0  0
    3.4317    2.2383   16.2489 C   0  0  0  0  0  0  0  0  0  0  0  0
    2.9766    1.9098   15.0092 N   0  0  0  0  0  0  0  0  0  0  0  0
    3.2560    1.3635   17.3860 C   0  0  0  0  0  0  0  0  0  0  0  0
    3.8917    1.6858   18.5896 C   0  0  0  0  0  0  0  0  0  0  0  0
    3.7936    0.9510   19.6851 N   0  0  0  0  0  0  0  0  0  0  0  0
    3.0449   -0.1572   19.6298 C   0  0  0  0  0  0  0  0  0  0  0  0
    2.8966   -0.9907   20.7675 N   0  0  0  0  0  0  0  0  0  0  0  0
    2.4146   -0.5097   18.4980 N   0  0  0  0  0  0  0  0  0  0  0  0
    2.5005    0.2272   17.3639 C   0  0  0  0  0  0  0  0  0  0  0  0
    2.8090   -2.0198   20.6727 H   0  0  0  0  0  0  0  0  0  0  0  0
    2.8693   -0.6078   21.7459 H   0  0  0  0  0  0  0  0  0  0  0  0
    1.2660    1.9085   12.5065 C   0  0  0  0  0  0  0  0  0  0  0  0
    2.6332    2.3160   12.6602 N   0  0  0  0  0  0  0  0  0  0  0  0
    3.2914    2.3207   11.8544 H   0  0  0  0  0  0  0  0  0  0  0  0
 16 17  1  0  0  0
 17  1  1  0  0  0
  1  2  2  0  0  0
  2  3  1  0  0  0
  3  4  2  0  0  0
  4  5  1  0  0  0
  5  6  2  0  0  0
  5  7  1  0  0  0
  7  8  2  0  0  0
  8  9  1  0  0  0
  9 10  2  0  0  0
 10 11  1  0  0  0
 10 12  1  0  0  0
 12 13  2  0  0  0
  6  1  1  0  0  0
 13  7  1  0  0  0
 17 18  1  0  0  0
 11 14  1  0  0  0
 11 15  1  0  0  0
M  END
> <minimizedAffinity>
-5.32605

> <CNNscore>
0.9159721732

> <CNNaffinity>
5.1343030930

> <CNN_VS>
4.7028789520

> <CNNaffinity_variance>
0.1667120010

$$$$
[H]c1nc(N([H])C([H])([H])[H])nc(-c2c([H])nc(N([H])[H])nc2[H])c1[H]


 18 19  0  0  0  0  0  0  0  0999 V2000
    2.9633    0.0418   18.8861 C   0  0  0  0  0  0  0  0  0  0  0  0
    2.4906   -0.3516   17.6946 N   0  0  0  0  0  0  0  0  0  0  0  0
    2.7287    0.4118   16.6258 C   0  0  0  0  0  0  0  0  0  0  0  0
    3.4600    1.5957   16.7708 C   0  0  0  0  0  0  0  0  0  0  0  0
    3.9477    2.0084   17.9804 C   0  0  0  0  0  0  0  0  0  0  0  0
    3.6747    1.1912   19.0339 N   0  0  0  0  0  0  0  0  0  0  0  0
    4.7037    3.2305   18.1348 C   0  0  0  0  0  0  0  0  0  0  0  0
    4.7216    3.8594   19.3841 C   0  0  0  0  0  0  0  0  0  0  0  0
    5.3822    4.9793   19.6269 N   0  0  0  0  0  0  0  0  0  0  0  0
    6.0665    5.5328   18.6183 C   0  0  0  0  0  0  0  0  0  0  0  0
    6.7967    6.7335   18.8091 N   0  0  0  0  0  0  0  0  0  0  0  0
    6.0806    4.9678   17.4005 N   0  0  0  0  0  0  0  0  0  0  0  0
    5.4116    3.8210   17.1286 C   0  0  0  0  0  0  0  0  0  0  0  0
    6.8819    7.4374   18.0522 H   0  0  0  0  0  0  0  0  0  0  0  0
    7.2785    6.9611   19.7150 H   0  0  0  0  0  0  0  0  0  0  0  0
    3.4511   -0.5657   21.2644 C   0  0  0  0  0  0  0  0  0  0  0  0
    2.7153   -0.7705   20.0497 N   0  0  0  0  0  0  0  0  0  0  0  0
    1.9852   -1.5082   19.9759 H   0  0  0  0  0  0  0  0  0  0  0  0
 16 17  1  0  0  0
 17  1  1  0  0  0
  1  2  2  0  0  0
  2  3  1  0  0  0
  3  4  2  0  0  0
  4  5  1  0  0  0
  5  6  2  0  0  0
  5  7  1  0  0  0
  7  8  2  0  0  0
  8  9  1  0  0  0
  9 10  2  0  0  0
 10 11  1  0  0  0
 10 12  1  0  0  0
 12 13  2  0  0  0
  6  1  1  0  0  0
 13  7  1  0  0  0
 17 18  1  0  0  0
 11 14  1  0  0  0
 11 15  1  0  0  0
M  END
> <minimizedAffinity>
-5.75267

> <CNNscore>
0.8205928802

> <CNNaffinity>
5.2721915245

> <CNN_VS>
4.3263230324

> <CNNaffinity_variance>
0.1405101269

$$$$
[H]c1nc(N([H])C([H])([H])[H])nc(-c2c([H])nc(N([H])[H])nc2[H])c1[H]


 18 19  0  0  0  0  0  0  0  0999 V2000
    3.0246    0.7615   17.3656 C   0  0  0  0  0  0  0  0  0  0  0  0
    2.3224   -0.2752   17.8454 N   0  0  0  0  0  0  0  0  0  0  0  0
    2.3921   -0.5488   19.1500 C   0  0  0  0  0  0  0  0  0  0  0  0
    3.1895    0.2453   19.9813 C   0  0  0  0  0  0  0  0  0  0  0  0
    3.9108    1.3054   19.5047 C   0  0  0  0  0  0  0  0  0  0  0  0
    3.8015    1.5371   18.1681 N   0  0  0  0  0  0  0  0  0  0  0  0
    4.7358    2.1284   20.3598 C   0  0  0  0  0  0  0  0  0  0  0  0
    4.8083    3.5023   20.1078 C   0  0  0  0  0  0  0  0  0  0  0  0
    5.5338    4.3387   20.8315 N   0  0  0  0  0  0  0  0  0  0  0  0
    6.2319    3.8351   21.8566 C   0  0  0  0  0  0  0  0  0  0  0  0
    7.0306    4.6753   22.6734 N   0  0  0  0  0  0  0  0  0  0  0  0
    6.1954    2.5232   22.1394 N   0  0  0  0  0  0  0  0  0  0  0  0
    5.4595    1.6477   21.4122 C   0  0  0  0  0  0  0  0  0  0  0  0
    7.9222    4.3383   23.0824 H   0  0  0  0  0  0  0  0  0  0  0  0
    6.7582    5.6652   22.8984 H   0  0  0  0  0  0  0  0  0  0  0  0
    3.4113    2.3379   15.4606 C   0  0  0  0  0  0  0  0  0  0  0  0
    2.9605    1.0705   15.9600 N   0  0  0  0  0  0  0  0  0  0  0  0
    2.5764    0.3425   15.3235 H   0  0  0  0  0  0  0  0  0  0  0  0
 16 17  1  0  0  0
 17  1  1  0  0  0
  1  2  2  0  0  0
  2  3  1  0  0  0
  3  4  2  0  0  0
  4  5  1  0  0  0
  5  6  2  0  0  0
  5  7  1  0  0  0
  7  8  2  0  0  0
  8  9  1  0  0  0
  9 10  2  0  0  0
 10 11  1  0  0  0
 10 12  1  0  0  0
 12 13  2  0  0  0
  6  1  1  0  0  0
 13  7  1  0  0  0
 17 18  1  0  0  0
 11 14  1  0  0  0
 11 15  1  0  0  0
M  END
> <minimizedAffinity>
-5.92782

> <CNNscore>
0.7548376918

> <CNNaffinity>
5.3255968094

> <CNN_VS>
4.0199613571

> <CNNaffinity_variance>
0.1472188681

$$$$
[H]c1nc(N([H])C([H])([H])[H])nc(-c2c([H])nc(N([H])[H])nc2[H])c1[H]


 18 19  0  0  0  0  0  0  0  0999 V2000
    4.5539    3.7520   23.0300 C   0  0  0  0  0  0  0  0  0  0  0  0
    4.6699    2.9405   24.0912 N   0  0  0  0  0  0  0  0  0  0  0  0
    4.4622    1.6325   23.9245 C   0  0  0  0  0  0  0  0  0  0  0  0
    4.1309    1.1409   22.6572 C   0  0  0  0  0  0  0  0  0  0  0  0
    4.0094    1.9579   21.5667 C   0  0  0  0  0  0  0  0  0  0  0  0
    4.2322    3.2807   21.7957 N   0  0  0  0  0  0  0  0  0  0  0  0
    3.6675    1.4544   20.2558 C   0  0  0  0  0  0  0  0  0  0  0  0
    2.8957    0.2918   20.1599 C   0  0  0  0  0  0  0  0  0  0  0  0
    2.5308   -0.2478   19.0087 N   0  0  0  0  0  0  0  0  0  0  0  0
    2.9252    0.3570   17.8816 C   0  0  0  0  0  0  0  0  0  0  0  0
    2.5694   -0.1678   16.6131 N   0  0  0  0  0  0  0  0  0  0  0  0
    3.6672    1.4753   17.9206 N   0  0  0  0  0  0  0  0  0  0  0  0
    4.0528    2.0459   19.0879 C   0  0  0  0  0  0  0  0  0  0  0  0
    3.2114   -0.0958   15.8018 H   0  0  0  0  0  0  0  0  0  0  0  0
    1.6503   -0.6475   16.4404 H   0  0  0  0  0  0  0  0  0  0  0  0
    4.9297    6.0257   22.0540 C   0  0  0  0  0  0  0  0  0  0  0  0
    4.7748    5.1663   23.1925 N   0  0  0  0  0  0  0  0  0  0  0  0
    4.8175    5.5391   24.1630 H   0  0  0  0  0  0  0  0  0  0  0  0
 16 17  1  0  0  0
 17  1  1  0  0  0
  1  2  2  0  0  0
  2  3  1  0  0  0
  3  4  2  0  0  0
  4  5  1  0  0  0
  5  6  2  0  0  0
  5  7  1  0  0  0
  7  8  2  0  0  0
  8  9  1  0  0  0
  9 10  2  0  0  0
 10 11  1  0  0  0
 10 12  1  0  0  0
 12 13  2  0  0  0
  6  1  1  0  0  0
 13  7  1  0  0  0
 17 18  1  0  0  0
 11 14  1  0  0  0
 11 15  1  0  0  0
M  END
> <minimizedAffinity>
-5.81892

> <CNNscore>
0.6320720315

> <CNNaffinity>
5.3112916946

> <CNN_VS>
3.3571188450

> <CNNaffinity_variance>
0.3805068135

$$$$
[H]c1nc(N([H])C([H])([H])[H])nc(-c2c([H])nc(N([H])[H])nc2[H])c1[H]


 18 19  0  0  0  0  0  0  0  0999 V2000
    4.8150    5.6746   21.5649 C   0  0  0  0  0  0  0  0  0  0  0  0
    5.7097    5.0724   22.3618 N   0  0  0  0  0  0  0  0  0  0  0  0
    6.0880    3.8250   22.0744 C   0  0  0  0  0  0  0  0  0  0  0  0
    5.5474    3.1785   20.9576 C   0  0  0  0  0  0  0  0  0  0  0  0
    4.6340    3.7813   20.1368 C   0  0  0  0  0  0  0  0  0  0  0  0
    4.2858    5.0519   20.4781 N   0  0  0  0  0  0  0  0  0  0  0  0
    4.0730    3.1172   18.9821 C   0  0  0  0  0  0  0  0  0  0  0  0
    4.0271    1.7194   18.9640 C   0  0  0  0  0  0  0  0  0  0  0  0
    3.5341    1.0194   17.9558 N   0  0  0  0  0  0  0  0  0  0  0  0
    3.0564    1.6923   16.9018 C   0  0  0  0  0  0  0  0  0  0  0  0
    2.5135    1.0046   15.7867 N   0  0  0  0  0  0  0  0  0  0  0  0
    3.0779    3.0344   16.8711 N   0  0  0  0  0  0  0  0  0  0  0  0
    3.5779    3.7722   17.8921 C   0  0  0  0  0  0  0  0  0  0  0  0
    2.6219    1.3723   14.8230 H   0  0  0  0  0  0  0  0  0  0  0  0
    1.9833    0.1025   15.8856 H   0  0  0  0  0  0  0  0  0  0  0  0
    5.0184    8.1454   21.2231 C   0  0  0  0  0  0  0  0  0  0  0  0
    4.3961    7.0208   21.8608 N   0  0  0  0  0  0  0  0  0  0  0  0
    3.6282    7.1457   22.5518 H   0  0  0  0  0  0  0  0  0  0  0  0
 16 17  1  0  0  0
 17  1  1  0  0  0
  1  2  2  0  0  0
  2  3  1  0  0  0
  3  4  2  0  0  0
  4  5  1  0  0  0
  5  6  2  0  0  0
  5  7  1  0  0  0
  7  8  2  0  0  0
  8  9  1  0  0  0
  9 10  2  0  0  0
 10 11  1  0  0  0
 10 12  1  0  0  0
 12 13  2  0  0  0
  6  1  1  0  0  0
 13  7  1  0  0  0
 17 18  1  0  0  0
 11 14  1  0  0  0
 11 15  1  0  0  0
M  END
> <minimizedAffinity>
-5.86329

> <CNNscore>
0.3484958112

> <CNNaffinity>
4.5345268250

> <CNN_VS>
1.5802636147

> <CNNaffinity_variance>
0.5881910920

$$$$
[H]c1nc(N([H])C([H])([H])[H])nc(-c2c([H])nc(N([H])[H])nc2[H])c1[H]


 18 19  0  0  0  0  0  0  0  0999 V2000
    3.5659    0.8196   18.7923 C   0  0  0  0  0  0  0  0  0  0  0  0
    2.9735   -0.1679   19.4793 N   0  0  0  0  0  0  0  0  0  0  0  0
    2.8600   -0.0498   20.8040 C   0  0  0  0  0  0  0  0  0  0  0  0
    3.3572    1.0921   21.4415 C   0  0  0  0  0  0  0  0  0  0  0  0
    3.9636    2.1065   20.7525 C   0  0  0  0  0  0  0  0  0  0  0  0
    4.0513    1.9319   19.4057 N   0  0  0  0  0  0  0  0  0  0  0  0
    4.4787    3.2878   21.4069 C   0  0  0  0  0  0  0  0  0  0  0  0
    5.4679    4.0384   20.7632 C   0  0  0  0  0  0  0  0  0  0  0  0
    6.0026    5.1333   21.2780 N   0  0  0  0  0  0  0  0  0  0  0  0
    5.5683    5.5365   22.4782 C   0  0  0  0  0  0  0  0  0  0  0  0
    6.0985    6.7017   23.0883 N   0  0  0  0  0  0  0  0  0  0  0  0
    4.6204    4.8505   23.1365 N   0  0  0  0  0  0  0  0  0  0  0  0
    4.0584    3.7265   22.6290 C   0  0  0  0  0  0  0  0  0  0  0  0
    6.2124    6.7660   24.1172 H   0  0  0  0  0  0  0  0  0  0  0  0
    6.3962    7.5424   22.5320 H   0  0  0  0  0  0  0  0  0  0  0  0
    2.5519    0.4624   16.5323 C   0  0  0  0  0  0  0  0  0  0  0  0
    3.6966    0.7079   17.3620 N   0  0  0  0  0  0  0  0  0  0  0  0
    4.6487    0.8117   16.9554 H   0  0  0  0  0  0  0  0  0  0  0  0
 16 17  1  0  0  0
 17  1  1  0  0  0
  1  2  2  0  0  0
  2  3  1  0  0  0
  3  4  2  0  0  0
  4  5  1  0  0  0
  5  6  2  0  0  0
  5  7  1  0  0  0
  7  8  2  0  0  0
  8  9  1  0  0  0
  9 10  2  0  0  0
 10 11  1  0  0  0
 10 12  1  0  0  0
 12 13  2  0  0  0
  6  1  1  0  0  0
 13  7  1  0  0  0
 17 18  1  0  0  0
 11 14  1  0  0  0
 11 15  1  0  0  0
M  END
> <minimizedAffinity>
-5.87795

> <CNNscore>
0.3070510030

> <CNNaffinity>
4.8672752380

> <CNN_VS>
1.4945017099

> <CNNaffinity_variance>
0.5183059573

$$$$
[H]c1nc(N([H])C([H])([H])[H])nc(-c2c([H])nc(N([H])[H])nc2[H])c1[H]


 18 19  0  0  0  0  0  0  0  0999 V2000
    5.2123    6.5613   21.8790 C   0  0  0  0  0  0  0  0  0  0  0  0
    6.5211    6.6270   22.1633 N   0  0  0  0  0  0  0  0  0  0  0  0
    7.2191    5.4918   22.2393 C   0  0  0  0  0  0  0  0  0  0  0  0
    6.5756    4.2685   22.0223 C   0  0  0  0  0  0  0  0  0  0  0  0
    5.2413    4.1877   21.7316 C   0  0  0  0  0  0  0  0  0  0  0  0
    4.5809    5.3758   21.6671 N   0  0  0  0  0  0  0  0  0  0  0  0
    4.5725    2.9262   21.5068 C   0  0  0  0  0  0  0  0  0  0  0  0
    4.6203    2.3555   20.2307 C   0  0  0  0  0  0  0  0  0  0  0  0
    4.0413    1.2064   19.9242 N   0  0  0  0  0  0  0  0  0  0  0  0
    3.3770    0.5631   20.8920 C   0  0  0  0  0  0  0  0  0  0  0  0
    2.7331   -0.6734   20.6323 N   0  0  0  0  0  0  0  0  0  0  0  0
    3.3022    1.0695   22.1331 N   0  0  0  0  0  0  0  0  0  0  0  0
    3.8872    2.2446   22.4702 C   0  0  0  0  0  0  0  0  0  0  0  0
    1.8462   -0.9281   21.1059 H   0  0  0  0  0  0  0  0  0  0  0  0
    3.1209   -1.3788   19.9564 H   0  0  0  0  0  0  0  0  0  0  0  0
    5.0863    9.0439   21.5886 C   0  0  0  0  0  0  0  0  0  0  0  0
    4.4443    7.7770   21.7933 N   0  0  0  0  0  0  0  0  0  0  0  0
    3.4106    7.7016   21.8851 H   0  0  0  0  0  0  0  0  0  0  0  0
 16 17  1  0  0  0
 17  1  1  0  0  0
  1  2  2  0  0  0
  2  3  1  0  0  0
  3  4  2  0  0  0
  4  5  1  0  0  0
  5  6  2  0  0  0
  5  7  1  0  0  0
  7  8  2  0  0  0
  8  9  1  0  0  0
  9 10  2  0  0  0
 10 11  1  0  0  0
 10 12  1  0  0  0
 12 13  2  0  0  0
  6  1  1  0  0  0
 13  7  1  0  0  0
 17 18  1  0  0  0
 11 14  1  0  0  0
 11 15  1  0  0  0
M  END
> <minimizedAffinity>
-6.48434

> <CNNscore>
0.3068771660

> <CNNaffinity>
4.7831983566

> <CNN_VS>
1.4678543806

> <CNNaffinity_variance>
0.5842699409

$$$$
[H]c1nc(N([H])C([H])([H])[H])nc(-c2c([H])nc(N([H])[H])nc2[H])c1[H]


 18 19  0  0  0  0  0  0  0  0999 V2000
    5.9397    6.1628   21.8946 C   0  0  0  0  0  0  0  0  0  0  0  0
    6.1635    6.8636   20.7735 N   0  0  0  0  0  0  0  0  0  0  0  0
    5.8550    6.3105   19.5986 C   0  0  0  0  0  0  0  0  0  0  0  0
    5.3095    5.0226   19.5625 C   0  0  0  0  0  0  0  0  0  0  0  0
    5.0764    4.2971   20.6986 C   0  0  0  0  0  0  0  0  0  0  0  0
    5.4099    4.9107   21.8666 N   0  0  0  0  0  0  0  0  0  0  0  0
    4.5130    2.9664   20.6661 C   0  0  0  0  0  0  0  0  0  0  0  0
    4.0291    2.4095   21.8545 C   0  0  0  0  0  0  0  0  0  0  0  0
    3.4961    1.2013   21.9290 N   0  0  0  0  0  0  0  0  0  0  0  0
    3.4200    0.4808   20.8034 C   0  0  0  0  0  0  0  0  0  0  0  0
    2.8602   -0.8221   20.8118 N   0  0  0  0  0  0  0  0  0  0  0  0
    3.8706    0.9707   19.6375 N   0  0  0  0  0  0  0  0  0  0  0  0
    4.4203    2.2055   19.5370 C   0  0  0  0  0  0  0  0  0  0  0  0
    3.2226   -1.5674   20.1881 H   0  0  0  0  0  0  0  0  0  0  0  0
    2.0626   -1.0878   21.4426 H   0  0  0  0  0  0  0  0  0  0  0  0
    7.4271    7.5744   23.3293 C   0  0  0  0  0  0  0  0  0  0  0  0
    6.2670    6.7450   23.1710 N   0  0  0  0  0  0  0  0  0  0  0  0
    5.6325    6.5419   23.9703 H   0  0  0  0  0  0  0  0  0  0  0  0
 16 17  1  0  0  0
 17  1  1  0  0  0
  1  2  2  0  0  0
  2  3  1  0  0  0
  3  4  2  0  0  0
  4  5  1  0  0  0
  5  6  2  0  0  0
  5  7  1  0  0  0
  7  8  2  0  0  0
  8  9  1  0  0  0
  9 10  2  0  0  0
 10 11  1  0  0  0
 10 12  1  0  0  0
 12 13  2  0  0  0
  6  1  1  0  0  0
 13  7  1  0  0  0
 17 18  1  0  0  0
 11 14  1  0  0  0
 11 15  1  0  0  0
M  END
> <minimizedAffinity>
-5.97429

> <CNNscore>
0.2876099050

> <CNNaffinity>
4.6379508972

> <CNN_VS>
1.3339205980

> <CNNaffinity_variance>
0.4803657532

$$$$
[H]c1nc(N([H])C([H])([H])[H])nc(-c2c([H])nc(N([H])[H])nc2[H])c1[H]


 18 19  0  0  0  0  0  0  0  0999 V2000
    4.4487    1.9289   20.4073 C   0  0  0  0  0  0  0  0  0  0  0  0
    5.1080    3.0393   20.7680 N   0  0  0  0  0  0  0  0  0  0  0  0
    5.3421    3.9751   19.8454 C   0  0  0  0  0  0  0  0  0  0  0  0
    4.8981    3.7786   18.5332 C   0  0  0  0  0  0  0  0  0  0  0  0
    4.2245    2.6506   18.1522 C   0  0  0  0  0  0  0  0  0  0  0  0
    4.0145    1.7318   19.1338 N   0  0  0  0  0  0  0  0  0  0  0  0
    3.7640    2.4436   16.7979 C   0  0  0  0  0  0  0  0  0  0  0  0
    4.0576    3.4101   15.8303 C   0  0  0  0  0  0  0  0  0  0  0  0
    3.6815    3.3132   14.5659 N   0  0  0  0  0  0  0  0  0  0  0  0
    2.9837    2.2304   14.2022 C   0  0  0  0  0  0  0  0  0  0  0  0
    2.5490    2.0629   12.8628 N   0  0  0  0  0  0  0  0  0  0  0  0
    2.6767    1.2745   15.0936 N   0  0  0  0  0  0  0  0  0  0  0  0
    3.0512    1.3522   16.3938 C   0  0  0  0  0  0  0  0  0  0  0  0
    1.6479    1.5985   12.6437 H   0  0  0  0  0  0  0  0  0  0  0  0
    3.1137    2.3977   12.0419 H   0  0  0  0  0  0  0  0  0  0  0  0
    3.5711    1.2327   22.6453 C   0  0  0  0  0  0  0  0  0  0  0  0
    4.1878    0.9090   21.3908 N   0  0  0  0  0  0  0  0  0  0  0  0
    4.4626   -0.0671   21.1575 H   0  0  0  0  0  0  0  0  0  0  0  0
 16 17  1  0  0  0
 17  1  1  0  0  0
  1  2  2  0  0  0
  2  3  1  0  0  0
  3  4  2  0  0  0
  4  5  1  0  0  0
  5  6  2  0  0  0
  5  7  1  0  0  0
  7  8  2  0  0  0
  8  9  1  0  0  0
  9 10  2  0  0  0
 10 11  1  0  0  0
 10 12  1  0  0  0
 12 13  2  0  0  0
  6  1  1  0  0  0
 13  7  1  0  0  0
 17 18  1  0  0  0
 11 14  1  0  0  0
 11 15  1  0  0  0
M  END
> <minimizedAffinity>
-5.23452

> <CNNscore>
0.2654889822

> <CNNaffinity>
4.5594305992

> <CNN_VS>
1.2104785442

> <CNNaffinity_variance>
0.2347943783

$$$$
[H]OC(=O)[C@]1C([H])([H])C([H])([H])[C@]([H])(OC([H])([H])[H])C([H])([H])C1([H])[H]


 12 12  0  0  0  0  0  0  0  0999 V2000
    2.8767    0.6594   18.1593 C   0  0  0  0  0  0  0  0  0  0  0  0
    4.1639    1.4074   18.2929 C   0  0  0  0  0  0  0  0  0  0  0  0
    3.9479    2.7457   17.5976 C   0  0  0  0  0  0  0  0  0  0  0  0
    3.9448    2.3744   15.9967 C   0  0  0  0  0  0  0  0  0  0  0  0
    2.4611    1.6672   16.0013 C   0  0  0  0  0  0  0  0  0  0  0  0
    2.7053    0.3465   16.6729 C   0  0  0  0  0  0  0  0  0  0  0  0
    3.4195    3.8034   15.5123 C   0  0  0  0  0  0  0  0  0  0  0  0
    4.2931    4.4916   14.7073 O   0  0  0  0  0  0  0  0  0  0  0  0
    2.3153    4.1589   15.8858 O   0  0  0  0  0  0  0  0  0  0  0  0
    4.0002    4.6880   13.7601 H   0  0  0  0  0  0  0  0  0  0  0  0
    2.8568   -0.1898   20.3151 C   0  0  0  0  0  0  0  0  0  0  0  0
    2.7298   -0.4263   18.9605 O   0  0  0  0  0  0  0  0  0  0  0  0
 11 12  1  0  0  0
 12  1  1  0  0  0
  1  2  1  0  0  0
  2  3  1  0  0  0
  3  4  1  0  0  0
  4  5  1  0  0  0
  5  6  1  0  0  0
  4  7  1  0  0  0
  7  8  1  0  0  0
  7  9  2  0  0  0
  6  1  1  0  0  0
  8 10  1  0  0  0
M  END
> <minimizedAffinity>
-4.46316

> <CNNscore>
0.6143963337

> <CNNaffinity>
3.6957783699

> <CNN_VS>
2.2706727982

> <CNNaffinity_variance>
0.0432032123

$$$$
[H]OC(=O)[C@]1C([H])([H])C([H])([H])[C@]([H])(OC([H])([H])[H])C([H])([H])C1([H])[H]


 12 12  0  0  0  0  0  0  0  0999 V2000
    4.6153    1.6011   19.5611 C   0  0  0  0  0  0  0  0  0  0  0  0
    4.5572    3.0588   19.8866 C   0  0  0  0  0  0  0  0  0  0  0  0
    5.1784    3.2070   21.2699 C   0  0  0  0  0  0  0  0  0  0  0  0
    4.0453    2.5941   22.2903 C   0  0  0  0  0  0  0  0  0  0  0  0
    4.3039    1.0217   21.8877 C   0  0  0  0  0  0  0  0  0  0  0  0
    3.6676    0.8983   20.5332 C   0  0  0  0  0  0  0  0  0  0  0  0
    4.9964    2.5704   23.5737 C   0  0  0  0  0  0  0  0  0  0  0  0
    6.1091    3.3687   23.4763 O   0  0  0  0  0  0  0  0  0  0  0  0
    4.6675    1.8648   24.5113 O   0  0  0  0  0  0  0  0  0  0  0  0
    6.1905    4.1385   24.1263 H   0  0  0  0  0  0  0  0  0  0  0  0
    4.4626    2.3138   17.3617 C   0  0  0  0  0  0  0  0  0  0  0  0
    4.4012    1.2691   18.2626 O   0  0  0  0  0  0  0  0  0  0  0  0
 11 12  1  0  0  0
 12  1  1  0  0  0
  1  2  1  0  0  0
  2  3  1  0  0  0
  3  4  1  0  0  0
  4  5  1  0  0  0
  5  6  1  0  0  0
  4  7  1  0  0  0
  7  8  1  0  0  0
  7  9  2  0  0  0
  6  1  1  0  0  0
  8 10  1  0  0  0
M  END
> <minimizedAffinity>
-4.86328

> <CNNscore>
0.5797140598

> <CNNaffinity>
4.0581884384

> <CNN_VS>
2.3525888920

> <CNNaffinity_variance>
0.0474811271

$$$$
[H]OC(=O)[C@]1C([H])([H])C([H])([H])[C@]([H])(OC([H])([H])[H])C([H])([H])C1([H])[H]


 12 12  0  0  0  0  0  0  0  0999 V2000
    4.8289    7.1299   20.5621 C   0  0  0  0  0  0  0  0  0  0  0  0
    6.2815    6.7855   20.6353 C   0  0  0  0  0  0  0  0  0  0  0  0
    6.7721    7.3105   21.9788 C   0  0  0  0  0  0  0  0  0  0  0  0
    6.8276    8.9410   21.7804 C   0  0  0  0  0  0  0  0  0  0  0  0
    5.1993    9.1607   21.8207 C   0  0  0  0  0  0  0  0  0  0  0  0
    4.7448    8.6542   20.4821 C   0  0  0  0  0  0  0  0  0  0  0  0
    7.0540    9.2726   23.3267 C   0  0  0  0  0  0  0  0  0  0  0  0
    5.9150    9.6193   24.0104 O   0  0  0  0  0  0  0  0  0  0  0  0
    8.1886    9.1935   23.7643 O   0  0  0  0  0  0  0  0  0  0  0  0
    5.6177    9.0121   24.7618 H   0  0  0  0  0  0  0  0  0  0  0  0
    3.8361    7.2475   18.4718 C   0  0  0  0  0  0  0  0  0  0  0  0
    4.1121    6.4979   19.5982 O   0  0  0  0  0  0  0  0  0  0  0  0
 11 12  1  0  0  0
 12  1  1  0  0  0
  1  2  1  0  0  0
  2  3  1  0  0  0
  3  4  1  0  0  0
  4  5  1  0  0  0
  5  6  1  0  0  0
  4  7  1  0  0  0
  7  8  1  0  0  0
  7  9  2  0  0  0
  6  1  1  0  0  0
  8 10  1  0  0  0
M  END
> <minimizedAffinity>
-4.26270

> <CNNscore>
0.5609935522

> <CNNaffinity>
3.4442043304

> <CNN_VS>
1.9321764708

> <CNNaffinity_variance>
0.0555390641

$$$$
[H]OC(=O)[C@]1C([H])([H])C([H])([H])[C@]([H])(OC([H])([H])[H])C([H])([H])C1([H])[H]


 12 12  0  0  0  0  0  0  0  0999 V2000
    5.5104    9.2055   19.1571 C   0  0  0  0  0  0  0  0  0  0  0  0
    4.5611    9.3353   20.3043 C   0  0  0  0  0  0  0  0  0  0  0  0
    5.3279    8.8802   21.5396 C   0  0  0  0  0  0  0  0  0  0  0  0
    5.4282    7.2481   21.3754 C   0  0  0  0  0  0  0  0  0  0  0  0
    6.5541    7.2786   20.1783 C   0  0  0  0  0  0  0  0  0  0  0  0
    5.7707    7.7105   18.9723 C   0  0  0  0  0  0  0  0  0  0  0  0
    6.4833    7.0430   22.5575 C   0  0  0  0  0  0  0  0  0  0  0  0
    6.6851    5.7354   22.9240 O   0  0  0  0  0  0  0  0  0  0  0  0
    7.0104    8.0364   23.0268 O   0  0  0  0  0  0  0  0  0  0  0  0
    7.6092    5.3490   22.7879 H   0  0  0  0  0  0  0  0  0  0  0  0
    3.8017    9.8374   17.7253 C   0  0  0  0  0  0  0  0  0  0  0  0
    5.1529    9.8375   18.0103 O   0  0  0  0  0  0  0  0  0  0  0  0
 11 12  1  0  0  0
 12  1  1  0  0  0
  1  2  1  0  0  0
  2  3  1  0  0  0
  3  4  1  0  0  0
  4  5  1  0  0  0
  5  6  1  0  0  0
  4  7  1  0  0  0
  7  8  1  0  0  0
  7  9  2  0  0  0
  6  1  1  0  0  0
  8 10  1  0  0  0
M  END
> <minimizedAffinity>
-3.77332

> <CNNscore>
0.5497524142

> <CNNaffinity>
3.4141716957

> <CNN_VS>
1.8769491911

> <CNNaffinity_variance>
0.1067579985

$$$$
[H]OC(=O)[C@]1C([H])([H])C([H])([H])[C@]([H])(OC([H])([H])[H])C([H])([H])C1([H])[H]


 12 12  0  0  0  0  0  0  0  0999 V2000
    3.9718    2.2298   22.2286 C   0  0  0  0  0  0  0  0  0  0  0  0
    4.1845    3.0173   23.4810 C   0  0  0  0  0  0  0  0  0  0  0  0
    4.2139    4.4809   23.0588 C   0  0  0  0  0  0  0  0  0  0  0  0
    5.6645    4.6562   22.3066 C   0  0  0  0  0  0  0  0  0  0  0  0
    5.2358    3.8420   20.9447 C   0  0  0  0  0  0  0  0  0  0  0  0
    5.2327    2.4056   21.3824 C   0  0  0  0  0  0  0  0  0  0  0  0
    5.3504    6.1049   21.7108 C   0  0  0  0  0  0  0  0  0  0  0  0
    4.1219    6.6116   22.0557 O   0  0  0  0  0  0  0  0  0  0  0  0
    6.2030    6.6305   21.0166 O   0  0  0  0  0  0  0  0  0  0  0  0
    4.1035    7.4539   22.6141 H   0  0  0  0  0  0  0  0  0  0  0  0
    2.9148    0.3699   21.3384 C   0  0  0  0  0  0  0  0  0  0  0  0
    3.6074    0.9326   22.3922 O   0  0  0  0  0  0  0  0  0  0  0  0
 11 12  1  0  0  0
 12  1  1  0  0  0
  1  2  1  0  0  0
  2  3  1  0  0  0
  3  4  1  0  0  0
  4  5  1  0  0  0
  5  6  1  0  0  0
  4  7  1  0  0  0
  7  8  1  0  0  0
  7  9  2  0  0  0
  6  1  1  0  0  0
  8 10  1  0  0  0
M  END
> <minimizedAffinity>
-5.21583

> <CNNscore>
0.5352587104

> <CNNaffinity>
3.7507348061

> <CNN_VS>
2.0076134205

> <CNNaffinity_variance>
0.0739825293

$$$$
[H]OC(=O)[C@]1C([H])([H])C([H])([H])[C@]([H])(OC([H])([H])[H])C([H])([H])C1([H])[H]


 12 12  0  0  0  0  0  0  0  0999 V2000
    3.3700    1.0623   21.1844 C   0  0  0  0  0  0  0  0  0  0  0  0
    3.3297    1.3616   22.6482 C   0  0  0  0  0  0  0  0  0  0  0  0
    3.7706    2.8126   22.7942 C   0  0  0  0  0  0  0  0  0  0  0  0
    5.3885    2.7748   22.5081 C   0  0  0  0  0  0  0  0  0  0  0  0
    5.2568    2.5444   20.8860 C   0  0  0  0  0  0  0  0  0  0  0  0
    4.8408    1.1063   20.7698 C   0  0  0  0  0  0  0  0  0  0  0  0
    5.5610    4.3603   22.4128 C   0  0  0  0  0  0  0  0  0  0  0  0
    4.7964    5.0737   23.3024 O   0  0  0  0  0  0  0  0  0  0  0  0
    6.3363    4.7981   21.5808 O   0  0  0  0  0  0  0  0  0  0  0  0
    5.2803    5.6262   23.9967 H   0  0  0  0  0  0  0  0  0  0  0  0
    2.5744   -0.2152   19.4226 C   0  0  0  0  0  0  0  0  0  0  0  0
    2.7300   -0.0666   20.7867 O   0  0  0  0  0  0  0  0  0  0  0  0
 11 12  1  0  0  0
 12  1  1  0  0  0
  1  2  1  0  0  0
  2  3  1  0  0  0
  3  4  1  0  0  0
  4  5  1  0  0  0
  5  6  1  0  0  0
  4  7  1  0  0  0
  7  8  1  0  0  0
  7  9  2  0  0  0
  6  1  1  0  0  0
  8 10  1  0  0  0
M  END
> <minimizedAffinity>
-4.83344

> <CNNscore>
0.5340114236

> <CNNaffinity>
3.8233642578

> <CNN_VS>
2.0417201519

> <CNNaffinity_variance>
0.0985130444

$$$$
[H]OC(=O)[C@]1C([H])([H])C([H])([H])[C@]([H])(OC([H])([H])[H])C([H])([H])C1([H])[H]


 12 12  0  0  0  0  0  0  0  0999 V2000
    4.2216    2.4590   19.5393 C   0  0  0  0  0  0  0  0  0  0  0  0
    4.4871    1.1818   20.2691 C   0  0  0  0  0  0  0  0  0  0  0  0
    4.2196    1.4735   21.7403 C   0  0  0  0  0  0  0  0  0  0  0  0
    5.4971    2.3949   22.2092 C   0  0  0  0  0  0  0  0  0  0  0  0
    5.0089    3.7535   21.4234 C   0  0  0  0  0  0  0  0  0  0  0  0
    5.3000    3.4477   19.9824 C   0  0  0  0  0  0  0  0  0  0  0  0
    4.8711    2.8131   23.6183 C   0  0  0  0  0  0  0  0  0  0  0  0
    4.4811    4.1267   23.7041 O   0  0  0  0  0  0  0  0  0  0  0  0
    4.7918    1.9563   24.4812 O   0  0  0  0  0  0  0  0  0  0  0  0
    3.4981    4.3143   23.8456 H   0  0  0  0  0  0  0  0  0  0  0  0
    3.7355    1.1194   17.7123 C   0  0  0  0  0  0  0  0  0  0  0  0
    4.0976    2.3630   18.1911 O   0  0  0  0  0  0  0  0  0  0  0  0
 11 12  1  0  0  0
 12  1  1  0  0  0
  1  2  1  0  0  0
  2  3  1  0  0  0
  3  4  1  0  0  0
  4  5  1  0  0  0
  5  6  1  0  0  0
  4  7  1  0  0  0
  7  8  1  0  0  0
  7  9  2  0  0  0
  6  1  1  0  0  0
  8 10  1  0  0  0
M  END
> <minimizedAffinity>
-4.84272

> <CNNscore>
0.5307970047

> <CNNaffinity>
3.9146609306

> <CNN_VS>
2.0778903961

> <CNNaffinity_variance>
0.0906882063

$$$$
[H]OC(=O)[C@]1C([H])([H])C([H])([H])[C@]([H])(OC([H])([H])[H])C([H])([H])C1([H])[H]


 12 12  0  0  0  0  0  0  0  0999 V2000
    4.4083    2.5523   22.1967 C   0  0  0  0  0  0  0  0  0  0  0  0
    4.1625    3.0278   20.8011 C   0  0  0  0  0  0  0  0  0  0  0  0
    4.8895    4.3608   20.6757 C   0  0  0  0  0  0  0  0  0  0  0  0
    3.9706    5.4068   21.5488 C   0  0  0  0  0  0  0  0  0  0  0  0
    4.4233    4.8261   23.0183 C   0  0  0  0  0  0  0  0  0  0  0  0
    3.6806    3.5254   23.1243 C   0  0  0  0  0  0  0  0  0  0  0  0
    5.0382    6.5953   21.5308 C   0  0  0  0  0  0  0  0  0  0  0  0
    4.5149    7.8386   21.7861 O   0  0  0  0  0  0  0  0  0  0  0  0
    6.2002    6.3113   21.2981 O   0  0  0  0  0  0  0  0  0  0  0  0
    4.8324    8.3177   22.6176 H   0  0  0  0  0  0  0  0  0  0  0  0
    3.1998    0.6702   21.5917 C   0  0  0  0  0  0  0  0  0  0  0  0
    4.1180    1.2498   22.4448 O   0  0  0  0  0  0  0  0  0  0  0  0
 11 12  1  0  0  0
 12  1  1  0  0  0
  1  2  1  0  0  0
  2  3  1  0  0  0
  3  4  1  0  0  0
  4  5  1  0  0  0
  5  6  1  0  0  0
  4  7  1  0  0  0
  7  8  1  0  0  0
  7  9  2  0  0  0
  6  1  1  0  0  0
  8 10  1  0  0  0
M  END
> <minimizedAffinity>
-5.09345

> <CNNscore>
0.5270619392

> <CNNaffinity>
3.6653132439

> <CNN_VS>
1.9318470955

> <CNNaffinity_variance>
0.0720567554

$$$$
[H]OC(=O)[C@]1C([H])([H])C([H])([H])[C@]([H])(OC([H])([H])[H])C([H])([H])C1([H])[H]


 12 12  0  0  0  0  0  0  0  0999 V2000
    2.4503    3.8686   13.6699 C   0  0  0  0  0  0  0  0  0  0  0  0
    2.1006    2.4691   13.2785 C   0  0  0  0  0  0  0  0  0  0  0  0
    1.9063    1.7031   14.5811 C   0  0  0  0  0  0  0  0  0  0  0  0
    3.4289    1.5120   15.1693 C   0  0  0  0  0  0  0  0  0  0  0  0
    3.6161    3.0773   15.6346 C   0  0  0  0  0  0  0  0  0  0  0  0
    3.8239    3.8052   14.3378 C   0  0  0  0  0  0  0  0  0  0  0  0
    2.9695    0.9902   16.6078 C   0  0  0  0  0  0  0  0  0  0  0  0
    3.3548    1.7886   17.6561 O   0  0  0  0  0  0  0  0  0  0  0  0
    2.3312   -0.0466   16.6585 O   0  0  0  0  0  0  0  0  0  0  0  0
    2.6259    2.2261   18.2030 H   0  0  0  0  0  0  0  0  0  0  0  0
    3.5520    5.0828   12.0326 C   0  0  0  0  0  0  0  0  0  0  0  0
    2.3695    4.8023   12.6881 O   0  0  0  0  0  0  0  0  0  0  0  0
 11 12  1  0  0  0
 12  1  1  0  0  0
  1  2  1  0  0  0
  2  3  1  0  0  0
  3  4  1  0  0  0
  4  5  1  0  0  0
  5  6  1  0  0  0
  4  7  1  0  0  0
  7  8  1  0  0  0
  7  9  2  0  0  0
  6  1  1  0  0  0
  8 10  1  0  0  0
M  END
> <minimizedAffinity>
-3.73551

> <CNNscore>
0.5082809329

> <CNNaffinity>
3.3079724312

> <CNN_VS>
1.6813793182

> <CNNaffinity_variance>
0.0623590238

$$$$
[H]c1nc(N2C([H])([H])C([H])([H])C([H])(N(C([H])([H])[H])C([H])([H])C(=O)N([H])[H])C([H])([H])C2([H])[H])nc([H])c1Cl


 21 22  0  0  0  0  0  0  0  0999 V2000
    2.6851    4.2105   14.0217 C   0  0  0  0  0  0  0  0  0  0  0  0
    3.4653    4.7891   15.1651 C   0  0  0  0  0  0  0  0  0  0  0  0
    4.1212    3.7586   16.0521 C   0  0  0  0  0  0  0  0  0  0  0  0
    3.4245    2.5092   16.0988 N   0  0  0  0  0  0  0  0  0  0  0  0
    2.7239    1.9665   14.9528 C   0  0  0  0  0  0  0  0  0  0  0  0
    3.0874    2.7708   13.7536 C   0  0  0  0  0  0  0  0  0  0  0  0
    3.3832    1.7210   17.3036 C   0  0  0  0  0  0  0  0  0  0  0  0
    2.6400    0.5965   17.3980 N   0  0  0  0  0  0  0  0  0  0  0  0
    2.6086   -0.1350   18.5403 C   0  0  0  0  0  0  0  0  0  0  0  0
    3.3308    0.2408   19.6432 C   0  0  0  0  0  0  0  0  0  0  0  0
    3.3136   -0.6785   21.1340 Cl  0  0  0  0  0  0  0  0  0  0  0  0
    4.0978    1.4055   19.5387 C   0  0  0  0  0  0  0  0  0  0  0  0
    4.0866    2.0874   18.3764 N   0  0  0  0  0  0  0  0  0  0  0  0
    2.7726    4.9279   12.8097 N   0  0  0  0  0  0  0  0  0  0  0  0
    2.1742    4.3376   11.6753 C   0  0  0  0  0  0  0  0  0  0  0  0
    3.8960    5.7562   12.6155 C   0  0  0  0  0  0  0  0  0  0  0  0
    3.8842    7.8060   11.0763 N   0  0  0  0  0  0  0  0  0  0  0  0
    3.4482    7.1244   12.2400 C   0  0  0  0  0  0  0  0  0  0  0  0
    2.6222    7.7373   12.9998 O   0  0  0  0  0  0  0  0  0  0  0  0
    4.5390    8.6091   11.1918 H   0  0  0  0  0  0  0  0  0  0  0  0
    3.5315    7.4750   10.1515 H   0  0  0  0  0  0  0  0  0  0  0  0
 17 18  1  0  0  0
 18 19  2  0  0  0
 18 16  1  0  0  0
 16 14  1  0  0  0
 14 15  1  0  0  0
 14  1  1  0  0  0
  1  2  1  0  0  0
  2  3  1  0  0  0
  3  4  1  0  0  0
  4  5  1  0  0  0
  5  6  1  0  0  0
  4  7  1  0  0  0
  7  8  2  0  0  0
  8  9  1  0  0  0
  9 10  2  0  0  0
 10 11  1  0  0  0
 10 12  1  0  0  0
 12 13  2  0  0  0
  6  1  1  0  0  0
 13  7  1  0  0  0
 17 20  1  0  0  0
 17 21  1  0  0  0
M  END
> <minimizedAffinity>
-5.23478

> <CNNscore>
0.6859568357

> <CNNaffinity>
5.1648311615

> <CNN_VS>
3.5428512096

> <CNNaffinity_variance>
0.3384721875

$$$$
[H]c1nc(N2C([H])([H])C([H])([H])C([H])(N(C([H])([H])[H])C([H])([H])C(=O)N([H])[H])C([H])([H])C2([H])[H])nc([H])c1Cl


 21 22  0  0  0  0  0  0  0  0999 V2000
    4.9351    7.3181   19.2441 C   0  0  0  0  0  0  0  0  0  0  0  0
    6.0809    6.3748   19.0243 C   0  0  0  0  0  0  0  0  0  0  0  0
    5.6654    4.9597   18.7023 C   0  0  0  0  0  0  0  0  0  0  0  0
    4.4062    4.5840   19.2695 N   0  0  0  0  0  0  0  0  0  0  0  0
    3.3104    5.5198   19.4180 C   0  0  0  0  0  0  0  0  0  0  0  0
    3.6454    6.7613   18.6671 C   0  0  0  0  0  0  0  0  0  0  0  0
    4.1644    3.2406   19.7288 C   0  0  0  0  0  0  0  0  0  0  0  0
    3.8850    2.2316   18.8745 N   0  0  0  0  0  0  0  0  0  0  0  0
    3.6568    0.9710   19.3216 C   0  0  0  0  0  0  0  0  0  0  0  0
    3.7009    0.6740   20.6592 C   0  0  0  0  0  0  0  0  0  0  0  0
    3.4111   -0.9412   21.2717 Cl  0  0  0  0  0  0  0  0  0  0  0  0
    3.9906    1.7227   21.5377 C   0  0  0  0  0  0  0  0  0  0  0  0
    4.2077    2.9524   21.0307 N   0  0  0  0  0  0  0  0  0  0  0  0
    5.1222    8.6207   18.7345 N   0  0  0  0  0  0  0  0  0  0  0  0
    5.2729    9.6589   19.6794 C   0  0  0  0  0  0  0  0  0  0  0  0
    4.5357    8.9310   17.4912 C   0  0  0  0  0  0  0  0  0  0  0  0
    5.7892    7.6188   15.6807 N   0  0  0  0  0  0  0  0  0  0  0  0
    5.5549    8.8087   16.4144 C   0  0  0  0  0  0  0  0  0  0  0  0
    6.2715    9.8261   16.1198 O   0  0  0  0  0  0  0  0  0  0  0  0
    6.6690    7.0910   15.8656 H   0  0  0  0  0  0  0  0  0  0  0  0
    5.0702    7.3203   14.9856 H   0  0  0  0  0  0  0  0  0  0  0  0
 17 18  1  0  0  0
 18 19  2  0  0  0
 18 16  1  0  0  0
 16 14  1  0  0  0
 14 15  1  0  0  0
 14  1  1  0  0  0
  1  2  1  0  0  0
  2  3  1  0  0  0
  3  4  1  0  0  0
  4  5  1  0  0  0
  5  6  1  0  0  0
  4  7  1  0  0  0
  7  8  2  0  0  0
  8  9  1  0  0  0
  9 10  2  0  0  0
 10 11  1  0  0  0
 10 12  1  0  0  0
 12 13  2  0  0  0
  6  1  1  0  0  0
 13  7  1  0  0  0
 17 20  1  0  0  0
 17 21  1  0  0  0
M  END
> <minimizedAffinity>
-5.76871

> <CNNscore>
0.4171461463

> <CNNaffinity>
4.9742450714

> <CNN_VS>
2.0749871731

> <CNNaffinity_variance>
0.1596151143

$$$$
[H]c1nc(N2C([H])([H])C([H])([H])C([H])(N(C([H])([H])[H])C([H])([H])C(=O)N([H])[H])C([H])([H])C2([H])[H])nc([H])c1Cl


 21 22  0  0  0  0  0  0  0  0999 V2000
    3.5610    5.4232   14.1342 C   0  0  0  0  0  0  0  0  0  0  0  0
    2.8408    4.1082   14.1914 C   0  0  0  0  0  0  0  0  0  0  0  0
    2.4952    3.6512   15.5880 C   0  0  0  0  0  0  0  0  0  0  0  0
    3.4026    4.1204   16.5905 N   0  0  0  0  0  0  0  0  0  0  0  0
    4.0384    5.4200   16.5167 C   0  0  0  0  0  0  0  0  0  0  0  0
    3.3899    6.2010   15.4274 C   0  0  0  0  0  0  0  0  0  0  0  0
    3.7344    3.3121   17.7355 C   0  0  0  0  0  0  0  0  0  0  0  0
    3.7205    1.9617   17.6864 N   0  0  0  0  0  0  0  0  0  0  0  0
    4.0330    1.2127   18.7738 C   0  0  0  0  0  0  0  0  0  0  0  0
    4.3747    1.7994   19.9647 C   0  0  0  0  0  0  0  0  0  0  0  0
    4.7831    0.8642   21.3883 Cl  0  0  0  0  0  0  0  0  0  0  0  0
    4.3872    3.1971   20.0085 C   0  0  0  0  0  0  0  0  0  0  0  0
    4.0670    3.8839   18.8940 N   0  0  0  0  0  0  0  0  0  0  0  0
    3.1957    6.2630   13.0606 N   0  0  0  0  0  0  0  0  0  0  0  0
    3.3456    7.6527   13.2593 C   0  0  0  0  0  0  0  0  0  0  0  0
    2.1743    5.8195   12.1970 C   0  0  0  0  0  0  0  0  0  0  0  0
    3.9302    5.2728   10.4113 N   0  0  0  0  0  0  0  0  0  0  0  0
    2.6754    5.8077   10.7962 C   0  0  0  0  0  0  0  0  0  0  0  0
    1.9453    6.3053    9.8717 O   0  0  0  0  0  0  0  0  0  0  0  0
    4.6838    5.9365   10.1312 H   0  0  0  0  0  0  0  0  0  0  0  0
    4.0476    4.2358   10.4248 H   0  0  0  0  0  0  0  0  0  0  0  0
 17 18  1  0  0  0
 18 19  2  0  0  0
 18 16  1  0  0  0
 16 14  1  0  0  0
 14 15  1  0  0  0
 14  1  1  0  0  0
  1  2  1  0  0  0
  2  3  1  0  0  0
  3  4  1  0  0  0
  4  5  1  0  0  0
  5  6  1  0  0  0
  4  7  1  0  0  0
  7  8  2  0  0  0
  8  9  1  0  0  0
  9 10  2  0  0  0
 10 11  1  0  0  0
 10 12  1  0  0  0
 12 13  2  0  0  0
  6  1  1  0  0  0
 13  7  1  0  0  0
 17 20  1  0  0  0
 17 21  1  0  0  0
M  END
> <minimizedAffinity>
-4.43137

> <CNNscore>
0.3834258318

> <CNNaffinity>
4.7005929947

> <CNN_VS>
1.8023288250

> <CNNaffinity_variance>
0.3011212945

$$$$
[H]c1nc(N2C([H])([H])C([H])([H])C([H])(N(C([H])([H])[H])C([H])([H])C(=O)N([H])[H])C([H])([H])C2([H])[H])nc([H])c1Cl


 21 22  0  0  0  0  0  0  0  0999 V2000
    2.7639    3.2318   12.3501 C   0  0  0  0  0  0  0  0  0  0  0  0
    2.1285    2.0384   13.0003 C   0  0  0  0  0  0  0  0  0  0  0  0
    2.0105    2.1402   14.5018 C   0  0  0  0  0  0  0  0  0  0  0  0
    3.0266    2.9458   15.1078 N   0  0  0  0  0  0  0  0  0  0  0  0
    3.5770    4.1193   14.4608 C   0  0  0  0  0  0  0  0  0  0  0  0
    2.7396    4.4387   13.2717 C   0  0  0  0  0  0  0  0  0  0  0  0
    3.5604    2.6238   16.4061 C   0  0  0  0  0  0  0  0  0  0  0  0
    3.2631    1.4652   17.0348 N   0  0  0  0  0  0  0  0  0  0  0  0
    3.7714    1.1761   18.2592 C   0  0  0  0  0  0  0  0  0  0  0  0
    4.6065    2.0505   18.9051 C   0  0  0  0  0  0  0  0  0  0  0  0
    5.2802    1.7106   20.4857 Cl  0  0  0  0  0  0  0  0  0  0  0  0
    4.9100    3.2476   18.2488 C   0  0  0  0  0  0  0  0  0  0  0  0
    4.3732    3.4754   17.0338 N   0  0  0  0  0  0  0  0  0  0  0  0
    2.2056    3.6100   11.1105 N   0  0  0  0  0  0  0  0  0  0  0  0
    2.4370    4.9363   10.6855 C   0  0  0  0  0  0  0  0  0  0  0  0
    1.0112    2.9799   10.7076 C   0  0  0  0  0  0  0  0  0  0  0  0
   -0.7258    4.1235   12.2062 N   0  0  0  0  0  0  0  0  0  0  0  0
   -0.1382    3.8963   10.9365 C   0  0  0  0  0  0  0  0  0  0  0  0
   -0.6391    4.5240    9.9414 O   0  0  0  0  0  0  0  0  0  0  0  0
   -1.6709    3.7238   12.3904 H   0  0  0  0  0  0  0  0  0  0  0  0
   -0.1872    4.6818   12.9043 H   0  0  0  0  0  0  0  0  0  0  0  0
 17 18  1  0  0  0
 18 19  2  0  0  0
 18 16  1  0  0  0
 16 14  1  0  0  0
 14 15  1  0  0  0
 14  1  1  0  0  0
  1  2  1  0  0  0
  2  3  1  0  0  0
  3  4  1  0  0  0
  4  5  1  0  0  0
  5  6  1  0  0  0
  4  7  1  0  0  0
  7  8  2  0  0  0
  8  9  1  0  0  0
  9 10  2  0  0  0
 10 11  1  0  0  0
 10 12  1  0  0  0
 12 13  2  0  0  0
  6  1  1  0  0  0
 13  7  1  0  0  0
 17 20  1  0  0  0
 17 21  1  0  0  0
M  END
> <minimizedAffinity>
-4.71125

> <CNNscore>
0.3593668044

> <CNNaffinity>
4.8612623215

> <CNN_VS>
1.7469762564

> <CNNaffinity_variance>
0.3926228881

$$$$
[H]c1nc(N2C([H])([H])C([H])([H])C([H])(N(C([H])([H])[H])C([H])([H])C(=O)N([H])[H])C([H])([H])C2([H])[H])nc([H])c1Cl


 21 22  0  0  0  0  0  0  0  0999 V2000
    6.2709    6.6199   21.6149 C   0  0  0  0  0  0  0  0  0  0  0  0
    6.2160    6.0585   20.2247 C   0  0  0  0  0  0  0  0  0  0  0  0
    5.0939    5.0744   19.9976 C   0  0  0  0  0  0  0  0  0  0  0  0
    4.7066    4.3582   21.1748 N   0  0  0  0  0  0  0  0  0  0  0  0
    4.7306    4.9584   22.4930 C   0  0  0  0  0  0  0  0  0  0  0  0
    4.9512    6.4231   22.3404 C   0  0  0  0  0  0  0  0  0  0  0  0
    4.2708    2.9872   21.1059 C   0  0  0  0  0  0  0  0  0  0  0  0
    4.3179    2.2782   19.9566 N   0  0  0  0  0  0  0  0  0  0  0  0
    3.9016    0.9878   19.9058 C   0  0  0  0  0  0  0  0  0  0  0  0
    3.4165    0.3546   21.0207 C   0  0  0  0  0  0  0  0  0  0  0  0
    2.8700   -1.3092   20.9917 Cl  0  0  0  0  0  0  0  0  0  0  0  0
    3.3705    1.0941   22.2067 C   0  0  0  0  0  0  0  0  0  0  0  0
    3.7990    2.3718   22.1915 N   0  0  0  0  0  0  0  0  0  0  0  0
    6.6235    7.9837   21.6994 N   0  0  0  0  0  0  0  0  0  0  0  0
    6.2210    8.8133   20.6303 C   0  0  0  0  0  0  0  0  0  0  0  0
    7.8048    8.3157   22.3924 C   0  0  0  0  0  0  0  0  0  0  0  0
    9.4173    9.8346   21.1026 N   0  0  0  0  0  0  0  0  0  0  0  0
    8.9049    8.5515   21.4190 C   0  0  0  0  0  0  0  0  0  0  0  0
    9.4310    7.5502   20.8224 O   0  0  0  0  0  0  0  0  0  0  0  0
    9.1957   10.2367   20.1666 H   0  0  0  0  0  0  0  0  0  0  0  0
    9.9954   10.3238   21.8207 H   0  0  0  0  0  0  0  0  0  0  0  0
 17 18  1  0  0  0
 18 19  2  0  0  0
 18 16  1  0  0  0
 16 14  1  0  0  0
 14 15  1  0  0  0
 14  1  1  0  0  0
  1  2  1  0  0  0
  2  3  1  0  0  0
  3  4  1  0  0  0
  4  5  1  0  0  0
  5  6  1  0  0  0
  4  7  1  0  0  0
  7  8  2  0  0  0
  8  9  1  0  0  0
  9 10  2  0  0  0
 10 11  1  0  0  0
 10 12  1  0  0  0
 12 13  2  0  0  0
  6  1  1  0  0  0
 13  7  1  0  0  0
 17 20  1  0  0  0
 17 21  1  0  0  0
M  END
> <minimizedAffinity>
-5.26389

> <CNNscore>
0.3580817580

> <CNNaffinity>
5.0836629868

> <CNN_VS>
1.8203669786

> <CNNaffinity_variance>
0.1548215151

$$$$
[H]c1nc(N2C([H])([H])C([H])([H])C([H])(N(C([H])([H])[H])C([H])([H])C(=O)N([H])[H])C([H])([H])C2([H])[H])nc([H])c1Cl


 21 22  0  0  0  0  0  0  0  0999 V2000
    5.2516    2.2160   20.0308 C   0  0  0  0  0  0  0  0  0  0  0  0
    5.0988    3.6434   19.5947 C   0  0  0  0  0  0  0  0  0  0  0  0
    4.1008    3.8474   18.4805 C   0  0  0  0  0  0  0  0  0  0  0  0
    3.9655    2.7178   17.6122 N   0  0  0  0  0  0  0  0  0  0  0  0
    4.0737    1.3539   18.0884 C   0  0  0  0  0  0  0  0  0  0  0  0
    4.0728    1.3728   19.5772 C   0  0  0  0  0  0  0  0  0  0  0  0
    3.7144    2.8836   16.2037 C   0  0  0  0  0  0  0  0  0  0  0  0
    4.0336    4.0218   15.5490 N   0  0  0  0  0  0  0  0  0  0  0  0
    3.7889    4.1651   14.2221 C   0  0  0  0  0  0  0  0  0  0  0  0
    3.2073    3.1587   13.4954 C   0  0  0  0  0  0  0  0  0  0  0  0
    2.8763    3.3091   11.7820 Cl  0  0  0  0  0  0  0  0  0  0  0  0
    2.8795    1.9836   14.1791 C   0  0  0  0  0  0  0  0  0  0  0  0
    3.1484    1.9036   15.4972 N   0  0  0  0  0  0  0  0  0  0  0  0
    5.4241    2.0262   21.4184 N   0  0  0  0  0  0  0  0  0  0  0  0
    6.6412    1.4448   21.8356 C   0  0  0  0  0  0  0  0  0  0  0  0
    4.2734    1.7956   22.1986 C   0  0  0  0  0  0  0  0  0  0  0  0
    3.6397    4.0621   23.2145 N   0  0  0  0  0  0  0  0  0  0  0  0
    4.2245    2.7751   23.3173 C   0  0  0  0  0  0  0  0  0  0  0  0
    4.7353    2.4551   24.4451 O   0  0  0  0  0  0  0  0  0  0  0  0
    4.2721    4.8908   23.1978 H   0  0  0  0  0  0  0  0  0  0  0  0
    2.5995    4.1264   23.1594 H   0  0  0  0  0  0  0  0  0  0  0  0
 17 18  1  0  0  0
 18 19  2  0  0  0
 18 16  1  0  0  0
 16 14  1  0  0  0
 14 15  1  0  0  0
 14  1  1  0  0  0
  1  2  1  0  0  0
  2  3  1  0  0  0
  3  4  1  0  0  0
  4  5  1  0  0  0
  5  6  1  0  0  0
  4  7  1  0  0  0
  7  8  2  0  0  0
  8  9  1  0  0  0
  9 10  2  0  0  0
 10 11  1  0  0  0
 10 12  1  0  0  0
 12 13  2  0  0  0
  6  1  1  0  0  0
 13  7  1  0  0  0
 17 20  1  0  0  0
 17 21  1  0  0  0
M  END
> <minimizedAffinity>
-6.09083

> <CNNscore>
0.3510388136

> <CNNaffinity>
5.5661702156

> <CNN_VS>
1.9539418221

> <CNNaffinity_variance>
0.4127126634

$$$$
[H]c1nc(N2C([H])([H])C([H])([H])C([H])(N(C([H])([H])[H])C([H])([H])C(=O)N([H])[H])C([H])([H])C2([H])[H])nc([H])c1Cl


 21 22  0  0  0  0  0  0  0  0999 V2000
    6.4360    7.1887   21.4478 C   0  0  0  0  0  0  0  0  0  0  0  0
    6.8615    6.3528   20.2769 C   0  0  0  0  0  0  0  0  0  0  0  0
    5.8390    5.3315   19.8405 C   0  0  0  0  0  0  0  0  0  0  0  0
    4.9959    4.8687   20.9005 N   0  0  0  0  0  0  0  0  0  0  0  0
    4.5711    5.7274   21.9870 C   0  0  0  0  0  0  0  0  0  0  0  0
    4.9315    7.1316   21.6470 C   0  0  0  0  0  0  0  0  0  0  0  0
    4.5245    3.5084   20.9408 C   0  0  0  0  0  0  0  0  0  0  0  0
    4.1053    2.9300   22.0878 N   0  0  0  0  0  0  0  0  0  0  0  0
    3.6659    1.6465   22.1114 C   0  0  0  0  0  0  0  0  0  0  0  0
    3.6315    0.8875   20.9703 C   0  0  0  0  0  0  0  0  0  0  0  0
    3.0713   -0.7721   20.9639 Cl  0  0  0  0  0  0  0  0  0  0  0  0
    4.0666    1.4922   19.7869 C   0  0  0  0  0  0  0  0  0  0  0  0
    4.4911    2.7706   19.8298 N   0  0  0  0  0  0  0  0  0  0  0  0
    6.8242    8.5443   21.3919 N   0  0  0  0  0  0  0  0  0  0  0  0
    6.8005    9.1620   20.1226 C   0  0  0  0  0  0  0  0  0  0  0  0
    7.7665    8.9980   22.3364 C   0  0  0  0  0  0  0  0  0  0  0  0
    7.5202    8.0478   24.7044 N   0  0  0  0  0  0  0  0  0  0  0  0
    7.1613    8.9762   23.6953 C   0  0  0  0  0  0  0  0  0  0  0  0
    6.2625    9.8374   23.9882 O   0  0  0  0  0  0  0  0  0  0  0  0
    6.8384    7.2982   24.9496 H   0  0  0  0  0  0  0  0  0  0  0  0
    8.4532    8.1534   25.1601 H   0  0  0  0  0  0  0  0  0  0  0  0
 17 18  1  0  0  0
 18 19  2  0  0  0
 18 16  1  0  0  0
 16 14  1  0  0  0
 14 15  1  0  0  0
 14  1  1  0  0  0
  1  2  1  0  0  0
  2  3  1  0  0  0
  3  4  1  0  0  0
  4  5  1  0  0  0
  5  6  1  0  0  0
  4  7  1  0  0  0
  7  8  2  0  0  0
  8  9  1  0  0  0
  9 10  2  0  0  0
 10 11  1  0  0  0
 10 12  1  0  0  0
 12 13  2  0  0  0
  6  1  1  0  0  0
 13  7  1  0  0  0
 17 20  1  0  0  0
 17 21  1  0  0  0
M  END
> <minimizedAffinity>
-6.22561

> <CNNscore>
0.3171555698

> <CNNaffinity>
5.1107892990

> <CNN_VS>
1.6209152937

> <CNNaffinity_variance>
0.0728184804

$$$$
[H]c1nc(N2C([H])([H])C([H])([H])C([H])(N(C([H])([H])[H])C([H])([H])C(=O)N([H])[H])C([H])([H])C2([H])[H])nc([H])c1Cl


 21 22  0  0  0  0  0  0  0  0999 V2000
    3.1965    3.6289   15.5460 C   0  0  0  0  0  0  0  0  0  0  0  0
    4.3108    4.5046   16.0385 C   0  0  0  0  0  0  0  0  0  0  0  0
    5.1772    3.8678   17.0980 C   0  0  0  0  0  0  0  0  0  0  0  0
    4.4910    2.9031   17.9025 N   0  0  0  0  0  0  0  0  0  0  0  0
    3.4527    2.0446   17.3703 C   0  0  0  0  0  0  0  0  0  0  0  0
    3.4507    2.1709   15.8867 C   0  0  0  0  0  0  0  0  0  0  0  0
    4.8014    2.7383   19.2992 C   0  0  0  0  0  0  0  0  0  0  0  0
    5.0316    3.7941   20.1106 N   0  0  0  0  0  0  0  0  0  0  0  0
    5.3253    3.6238   21.4243 C   0  0  0  0  0  0  0  0  0  0  0  0
    5.4001    2.3719   21.9779 C   0  0  0  0  0  0  0  0  0  0  0  0
    5.7774    2.1148   23.6689 Cl  0  0  0  0  0  0  0  0  0  0  0  0
    5.1608    1.2838   21.1327 C   0  0  0  0  0  0  0  0  0  0  0  0
    4.8737    1.5196   19.8372 N   0  0  0  0  0  0  0  0  0  0  0  0
    2.9256    3.7201   14.1641 N   0  0  0  0  0  0  0  0  0  0  0  0
    4.0076    4.0618   13.3240 C   0  0  0  0  0  0  0  0  0  0  0  0
    1.6290    4.1090   13.7724 C   0  0  0  0  0  0  0  0  0  0  0  0
    0.8425    1.6932   13.4311 N   0  0  0  0  0  0  0  0  0  0  0  0
    1.0037    3.0236   12.9696 C   0  0  0  0  0  0  0  0  0  0  0  0
    0.5814    3.2875   11.7917 O   0  0  0  0  0  0  0  0  0  0  0  0
    1.4454    0.9510   13.0155 H   0  0  0  0  0  0  0  0  0  0  0  0
    0.1266    1.5121   14.1686 H   0  0  0  0  0  0  0  0  0  0  0  0
 17 18  1  0  0  0
 18 19  2  0  0  0
 18 16  1  0  0  0
 16 14  1  0  0  0
 14 15  1  0  0  0
 14  1  1  0  0  0
  1  2  1  0  0  0
  2  3  1  0  0  0
  3  4  1  0  0  0
  4  5  1  0  0  0
  5  6  1  0  0  0
  4  7  1  0  0  0
  7  8  2  0  0  0
  8  9  1  0  0  0
  9 10  2  0  0  0
 10 11  1  0  0  0
 10 12  1  0  0  0
 12 13  2  0  0  0
  6  1  1  0  0  0
 13  7  1  0  0  0
 17 20  1  0  0  0
 17 21  1  0  0  0
M  END
> <minimizedAffinity>
-5.77966

> <CNNscore>
0.3098630309

> <CNNaffinity>
4.9665670395

> <CNN_VS>
1.5389555693

> <CNNaffinity_variance>
0.4730852544

$$$$
[H]c1nc(N2C([H])([H])C([H])([H])C([H])(N(C([H])([H])[H])C([H])([H])C(=O)N([H])[H])C([H])([H])C2([H])[H])nc([H])c1Cl


 21 22  0  0  0  0  0  0  0  0999 V2000
    2.2935    2.9536   15.7075 C   0  0  0  0  0  0  0  0  0  0  0  0
    2.3919    4.2272   16.4943 C   0  0  0  0  0  0  0  0  0  0  0  0
    3.5229    4.2522   17.4940 C   0  0  0  0  0  0  0  0  0  0  0  0
    3.8761    2.9604   17.9990 N   0  0  0  0  0  0  0  0  0  0  0  0
    3.8107    1.7633   17.1859 C   0  0  0  0  0  0  0  0  0  0  0  0
    3.5910    2.1667   15.7695 C   0  0  0  0  0  0  0  0  0  0  0  0
    4.3172    2.7846   19.3587 C   0  0  0  0  0  0  0  0  0  0  0  0
    4.7456    1.5902   19.8234 N   0  0  0  0  0  0  0  0  0  0  0  0
    5.1561    1.4385   21.1077 C   0  0  0  0  0  0  0  0  0  0  0  0
    5.1509    2.4933   21.9832 C   0  0  0  0  0  0  0  0  0  0  0  0
    5.6730    2.3339   23.6475 Cl  0  0  0  0  0  0  0  0  0  0  0  0
    4.7065    3.7265   21.4959 C   0  0  0  0  0  0  0  0  0  0  0  0
    4.3121    3.8118   20.2100 N   0  0  0  0  0  0  0  0  0  0  0  0
    1.9350    3.1102   14.3517 N   0  0  0  0  0  0  0  0  0  0  0  0
    2.2364    2.0373   13.4848 C   0  0  0  0  0  0  0  0  0  0  0  0
    1.9285    4.4152   13.8197 C   0  0  0  0  0  0  0  0  0  0  0  0
    4.4145    4.6144   13.2271 N   0  0  0  0  0  0  0  0  0  0  0  0
    3.0485    4.5651   12.8520 C   0  0  0  0  0  0  0  0  0  0  0  0
    2.7827    4.6571   11.6045 O   0  0  0  0  0  0  0  0  0  0  0  0
    4.9121    5.5278   13.1570 H   0  0  0  0  0  0  0  0  0  0  0  0
    4.8653    3.7334   13.5584 H   0  0  0  0  0  0  0  0  0  0  0  0
 17 18  1  0  0  0
 18 19  2  0  0  0
 18 16  1  0  0  0
 16 14  1  0  0  0
 14 15  1  0  0  0
 14  1  1  0  0  0
  1  2  1  0  0  0
  2  3  1  0  0  0
  3  4  1  0  0  0
  4  5  1  0  0  0
  5  6  1  0  0  0
  4  7  1  0  0  0
  7  8  2  0  0  0
  8  9  1  0  0  0
  9 10  2  0  0  0
 10 11  1  0  0  0
 10 12  1  0  0  0
 12 13  2  0  0  0
  6  1  1  0  0  0
 13  7  1  0  0  0
 17 20  1  0  0  0
 17 21  1  0  0  0
M  END
> <minimizedAffinity>
-5.55196

> <CNNscore>
0.3021405935

> <CNNaffinity>
4.9652233124

> <CNN_VS>
1.5001955032

> <CNNaffinity_variance>
0.3872709274

$$$$
[H]c1nc([H])c(-c2c([H])c([H])c([H])c(C([H])([H])N([H])C(=O)C(N([H])[H])(C([H])([H])[H])C([H])([H])[H])c2[H])c([H])c1[H]


 23 24  0  0  0  0  0  0  0  0999 V2000
    4.6528    3.4863   22.2130 C   0  0  0  0  0  0  0  0  0  0  0  0
    5.7697    2.8852   22.7407 C   0  0  0  0  0  0  0  0  0  0  0  0
    6.2801    1.7268   22.1693 C   0  0  0  0  0  0  0  0  0  0  0  0
    5.6596    1.1651   21.0528 C   0  0  0  0  0  0  0  0  0  0  0  0
    4.5382    1.7543   20.5100 C   0  0  0  0  0  0  0  0  0  0  0  0
    4.0704    2.8933   21.1048 C   0  0  0  0  0  0  0  0  0  0  0  0
    3.8987    1.1564   19.3417 C   0  0  0  0  0  0  0  0  0  0  0  0
    4.1711    1.5571   18.0551 C   0  0  0  0  0  0  0  0  0  0  0  0
    3.5459    0.9677   16.9733 C   0  0  0  0  0  0  0  0  0  0  0  0
    2.6340   -0.0419   17.2254 C   0  0  0  0  0  0  0  0  0  0  0  0
    2.3560   -0.4472   18.4935 N   0  0  0  0  0  0  0  0  0  0  0  0
    2.9758    0.1401   19.5318 C   0  0  0  0  0  0  0  0  0  0  0  0
    4.1337    4.7164   22.8337 C   0  0  0  0  0  0  0  0  0  0  0  0
    5.1315    6.6663   21.6959 C   0  0  0  0  0  0  0  0  0  0  0  0
    6.2345    6.3995   22.2289 O   0  0  0  0  0  0  0  0  0  0  0  0
    4.0251    5.8412   21.9696 N   0  0  0  0  0  0  0  0  0  0  0  0
    3.1183    6.0835   21.5154 H   0  0  0  0  0  0  0  0  0  0  0  0
    6.2598    7.9430   19.8848 C   0  0  0  0  0  0  0  0  0  0  0  0
    5.0633    7.8481   20.8009 C   0  0  0  0  0  0  0  0  0  0  0  0
    4.9706    9.1410   21.5782 C   0  0  0  0  0  0  0  0  0  0  0  0
    3.8843    7.7615   19.9707 N   0  0  0  0  0  0  0  0  0  0  0  0
    3.9953    6.9763   19.3225 H   0  0  0  0  0  0  0  0  0  0  0  0
    3.6139    8.6635   19.5625 H   0  0  0  0  0  0  0  0  0  0  0  0
 18 19  1  0  0  0
 19 20  1  0  0  0
 19 21  1  0  0  0
 19 14  1  0  0  0
 14 15  2  0  0  0
 14 16  1  0  0  0
 16 13  1  0  0  0
 13  1  1  0  0  0
  1  2  2  0  0  0
  2  3  1  0  0  0
  3  4  2  0  0  0
  4  5  1  0  0  0
  5  6  2  0  0  0
  5  7  1  0  0  0
  7  8  2  0  0  0
  8  9  1  0  0  0
  9 10  2  0  0  0
 10 11  1  0  0  0
 11 12  2  0  0  0
  6  1  1  0  0  0
 12  7  1  0  0  0
 21 22  1  0  0  0
 21 23  1  0  0  0
 16 17  1  0  0  0
M  END
> <minimizedAffinity>
-8.68732

> <CNNscore>
0.8077387214

> <CNNaffinity>
5.7828321457

> <CNN_VS>
4.6710176468

> <CNNaffinity_variance>
0.1258515120

$$$$
[H]c1nc([H])c(-c2c([H])c([H])c([H])c(C([H])([H])N([H])C(=O)C(N([H])[H])(C([H])([H])[H])C([H])([H])[H])c2[H])c([H])c1[H]


 23 24  0  0  0  0  0  0  0  0999 V2000
    4.8011    3.0972   22.3520 C   0  0  0  0  0  0  0  0  0  0  0  0
    5.9836    2.5083   22.7288 C   0  0  0  0  0  0  0  0  0  0  0  0
    6.4977    1.4397   22.0059 C   0  0  0  0  0  0  0  0  0  0  0  0
    5.8141    0.9565   20.8895 C   0  0  0  0  0  0  0  0  0  0  0  0
    4.6263    1.5348   20.4970 C   0  0  0  0  0  0  0  0  0  0  0  0
    4.1574    2.5842   21.2378 C   0  0  0  0  0  0  0  0  0  0  0  0
    3.9211    1.0197   19.3270 C   0  0  0  0  0  0  0  0  0  0  0  0
    4.1800    1.4542   18.0485 C   0  0  0  0  0  0  0  0  0  0  0  0
    3.4919    0.9433   16.9649 C   0  0  0  0  0  0  0  0  0  0  0  0
    2.5311   -0.0224   17.2067 C   0  0  0  0  0  0  0  0  0  0  0  0
    2.2659   -0.4604   18.4666 N   0  0  0  0  0  0  0  0  0  0  0  0
    2.9472    0.0502   19.5069 C   0  0  0  0  0  0  0  0  0  0  0  0
    4.2790    4.2318   23.1319 C   0  0  0  0  0  0  0  0  0  0  0  0
    4.7983    6.2641   21.8308 C   0  0  0  0  0  0  0  0  0  0  0  0
    4.0032    5.8835   20.9392 O   0  0  0  0  0  0  0  0  0  0  0  0
    4.9783    5.4602   22.9715 N   0  0  0  0  0  0  0  0  0  0  0  0
    5.6451    5.7972   23.6990 H   0  0  0  0  0  0  0  0  0  0  0  0
    5.9872    7.7187   20.2018 C   0  0  0  0  0  0  0  0  0  0  0  0
    5.5058    7.5519   21.6231 C   0  0  0  0  0  0  0  0  0  0  0  0
    6.7010    7.6938   22.5374 C   0  0  0  0  0  0  0  0  0  0  0  0
    4.6121    8.6494   21.9124 N   0  0  0  0  0  0  0  0  0  0  0  0
    3.8719    8.6661   21.2048 H   0  0  0  0  0  0  0  0  0  0  0  0
    5.1048    9.5326   22.0873 H   0  0  0  0  0  0  0  0  0  0  0  0
 18 19  1  0  0  0
 19 20  1  0  0  0
 19 21  1  0  0  0
 19 14  1  0  0  0
 14 15  2  0  0  0
 14 16  1  0  0  0
 16 13  1  0  0  0
 13  1  1  0  0  0
  1  2  2  0  0  0
  2  3  1  0  0  0
  3  4  2  0  0  0
  4  5  1  0  0  0
  5  6  2  0  0  0
  5  7  1  0  0  0
  7  8  2  0  0  0
  8  9  1  0  0  0
  9 10  2  0  0  0
 10 11  1  0  0  0
 11 12  2  0  0  0
  6  1  1  0  0  0
 12  7  1  0  0  0
 21 22  1  0  0  0
 21 23  1  0  0  0
 16 17  1  0  0  0
M  END
> <minimizedAffinity>
-8.67004

> <CNNscore>
0.7839420438

> <CNNaffinity>
5.6760725975

> <CNN_VS>
4.4497117996

> <CNNaffinity_variance>
0.1152296215

$$$$
[H]c1nc([H])c(-c2c([H])c([H])c([H])c(C([H])([H])N([H])C(=O)C(N([H])[H])(C([H])([H])[H])C([H])([H])[H])c2[H])c([H])c1[H]


 23 24  0  0  0  0  0  0  0  0999 V2000
    3.2102    2.3594   15.4450 C   0  0  0  0  0  0  0  0  0  0  0  0
    4.0066    3.4753   15.3570 C   0  0  0  0  0  0  0  0  0  0  0  0
    4.7840    3.8704   16.4378 C   0  0  0  0  0  0  0  0  0  0  0  0
    4.7605    3.1343   17.6230 C   0  0  0  0  0  0  0  0  0  0  0  0
    3.9673    2.0122   17.7295 C   0  0  0  0  0  0  0  0  0  0  0  0
    3.2187    1.6601   16.6407 C   0  0  0  0  0  0  0  0  0  0  0  0
    3.9521    1.2509   18.9752 C   0  0  0  0  0  0  0  0  0  0  0  0
    4.8739    1.4411   19.9772 C   0  0  0  0  0  0  0  0  0  0  0  0
    4.8281    0.7013   21.1432 C   0  0  0  0  0  0  0  0  0  0  0  0
    3.8222   -0.2400   21.2717 C   0  0  0  0  0  0  0  0  0  0  0  0
    2.9045   -0.4374   20.2877 N   0  0  0  0  0  0  0  0  0  0  0  0
    2.9676    0.2933   19.1612 C   0  0  0  0  0  0  0  0  0  0  0  0
    2.3988    1.9582   14.2837 C   0  0  0  0  0  0  0  0  0  0  0  0
    1.1803    2.8302   12.3222 C   0  0  0  0  0  0  0  0  0  0  0  0
    1.2654    1.7024   11.7813 O   0  0  0  0  0  0  0  0  0  0  0  0
    1.7414    3.0177   13.5988 N   0  0  0  0  0  0  0  0  0  0  0  0
    1.6587    3.9645   14.0280 H   0  0  0  0  0  0  0  0  0  0  0  0
   -0.6347    4.5292   12.3709 C   0  0  0  0  0  0  0  0  0  0  0  0
    0.4856    3.9063   11.5728 C   0  0  0  0  0  0  0  0  0  0  0  0
   -0.0958    3.4039   10.2713 C   0  0  0  0  0  0  0  0  0  0  0  0
    1.4240    4.9550   11.2466 N   0  0  0  0  0  0  0  0  0  0  0  0
    1.7158    5.4166   12.1131 H   0  0  0  0  0  0  0  0  0  0  0  0
    1.0984    5.5624   10.4861 H   0  0  0  0  0  0  0  0  0  0  0  0
 18 19  1  0  0  0
 19 20  1  0  0  0
 19 21  1  0  0  0
 19 14  1  0  0  0
 14 15  2  0  0  0
 14 16  1  0  0  0
 16 13  1  0  0  0
 13  1  1  0  0  0
  1  2  2  0  0  0
  2  3  1  0  0  0
  3  4  2  0  0  0
  4  5  1  0  0  0
  5  6  2  0  0  0
  5  7  1  0  0  0
  7  8  2  0  0  0
  8  9  1  0  0  0
  9 10  2  0  0  0
 10 11  1  0  0  0
 11 12  2  0  0  0
  6  1  1  0  0  0
 12  7  1  0  0  0
 21 22  1  0  0  0
 21 23  1  0  0  0
 16 17  1  0  0  0
M  END
> <minimizedAffinity>
-6.26192

> <CNNscore>
0.6543186307

> <CNNaffinity>
5.0850706100

> <CNN_VS>
3.3272564411

> <CNNaffinity_variance>
0.4311141968

$$$$
[H]c1nc([H])c(-c2c([H])c([H])c([H])c(C([H])([H])N([H])C(=O)C(N([H])[H])(C([H])([H])[H])C([H])([H])[H])c2[H])c([H])c1[H]


 23 24  0  0  0  0  0  0  0  0999 V2000
    2.8013    2.6066   12.2316 C   0  0  0  0  0  0  0  0  0  0  0  0
    3.3386    3.8699   12.1820 C   0  0  0  0  0  0  0  0  0  0  0  0
    3.8538    4.4596   13.3290 C   0  0  0  0  0  0  0  0  0  0  0  0
    3.8284    3.7703   14.5421 C   0  0  0  0  0  0  0  0  0  0  0  0
    3.2931    2.5022   14.6107 C   0  0  0  0  0  0  0  0  0  0  0  0
    2.7974    1.9607   13.4570 C   0  0  0  0  0  0  0  0  0  0  0  0
    3.2729    1.7919   15.8861 C   0  0  0  0  0  0  0  0  0  0  0  0
    4.0604    2.1528   16.9537 C   0  0  0  0  0  0  0  0  0  0  0  0
    4.0143    1.4565   18.1460 C   0  0  0  0  0  0  0  0  0  0  0  0
    3.1481    0.3811   18.2329 C   0  0  0  0  0  0  0  0  0  0  0  0
    2.3640    0.0144   17.1840 N   0  0  0  0  0  0  0  0  0  0  0  0
    2.4247    0.7058   16.0328 C   0  0  0  0  0  0  0  0  0  0  0  0
    2.2658    2.0011   11.0009 C   0  0  0  0  0  0  0  0  0  0  0  0
    3.7834    0.5391    9.7156 C   0  0  0  0  0  0  0  0  0  0  0  0
    4.2412    1.5480    9.1289 O   0  0  0  0  0  0  0  0  0  0  0  0
    2.7735    0.7115   10.6801 N   0  0  0  0  0  0  0  0  0  0  0  0
    2.4081   -0.1423   11.1542 H   0  0  0  0  0  0  0  0  0  0  0  0
    5.2958   -0.7048    8.1831 C   0  0  0  0  0  0  0  0  0  0  0  0
    4.3422   -0.7864    9.3510 C   0  0  0  0  0  0  0  0  0  0  0  0
    3.2584   -1.7785    8.9965 C   0  0  0  0  0  0  0  0  0  0  0  0
    5.0720   -1.3312   10.4724 N   0  0  0  0  0  0  0  0  0  0  0  0
    5.9043   -0.7565   10.6337 H   0  0  0  0  0  0  0  0  0  0  0  0
    5.2163   -2.3450   10.4029 H   0  0  0  0  0  0  0  0  0  0  0  0
 18 19  1  0  0  0
 19 20  1  0  0  0
 19 21  1  0  0  0
 19 14  1  0  0  0
 14 15  2  0  0  0
 14 16  1  0  0  0
 16 13  1  0  0  0
 13  1  1  0  0  0
  1  2  2  0  0  0
  2  3  1  0  0  0
  3  4  2  0  0  0
  4  5  1  0  0  0
  5  6  2  0  0  0
  5  7  1  0  0  0
  7  8  2  0  0  0
  8  9  1  0  0  0
  9 10  2  0  0  0
 10 11  1  0  0  0
 11 12  2  0  0  0
  6  1  1  0  0  0
 12  7  1  0  0  0
 21 22  1  0  0  0
 21 23  1  0  0  0
 16 17  1  0  0  0
M  END
> <minimizedAffinity>
-6.04319

> <CNNscore>
0.6343438029

> <CNNaffinity>
4.8397207260

> <CNN_VS>
3.0700469017

> <CNNaffinity_variance>
0.0931535214

$$$$
[H]c1nc([H])c(-c2c([H])c([H])c([H])c(C([H])([H])N([H])C(=O)C(N([H])[H])(C([H])([H])[H])C([H])([H])[H])c2[H])c([H])c1[H]


 23 24  0  0  0  0  0  0  0  0999 V2000
    3.5211    1.2435   17.4566 C   0  0  0  0  0  0  0  0  0  0  0  0
    2.6213    0.2062   17.4945 C   0  0  0  0  0  0  0  0  0  0  0  0
    2.3322   -0.4293   18.6950 C   0  0  0  0  0  0  0  0  0  0  0  0
    2.9560   -0.0168   19.8731 C   0  0  0  0  0  0  0  0  0  0  0  0
    3.8615    1.0220   19.8540 C   0  0  0  0  0  0  0  0  0  0  0  0
    4.1157    1.6187   18.6501 C   0  0  0  0  0  0  0  0  0  0  0  0
    4.5070    1.4439   21.0938 C   0  0  0  0  0  0  0  0  0  0  0  0
    5.8144    1.8655   21.1483 C   0  0  0  0  0  0  0  0  0  0  0  0
    6.3919    2.2574   22.3406 C   0  0  0  0  0  0  0  0  0  0  0  0
    5.6112    2.2125   23.4819 C   0  0  0  0  0  0  0  0  0  0  0  0
    4.3168    1.7974   23.4410 N   0  0  0  0  0  0  0  0  0  0  0  0
    3.7746    1.4203   22.2701 C   0  0  0  0  0  0  0  0  0  0  0  0
    3.8071    1.9044   16.1723 C   0  0  0  0  0  0  0  0  0  0  0  0
    3.4995    4.0151   14.9300 C   0  0  0  0  0  0  0  0  0  0  0  0
    3.6095    3.3843   13.8522 O   0  0  0  0  0  0  0  0  0  0  0  0
    3.5926    3.3105   16.1444 N   0  0  0  0  0  0  0  0  0  0  0  0
    3.4986    3.8567   17.0277 H   0  0  0  0  0  0  0  0  0  0  0  0
    3.5880    6.1755   16.1580 C   0  0  0  0  0  0  0  0  0  0  0  0
    3.2756    5.4801   14.8547 C   0  0  0  0  0  0  0  0  0  0  0  0
    1.8501    5.8154   14.4800 C   0  0  0  0  0  0  0  0  0  0  0  0
    4.1310    6.0508   13.8400 N   0  0  0  0  0  0  0  0  0  0  0  0
    5.1045    5.9729   14.1486 H   0  0  0  0  0  0  0  0  0  0  0  0
    3.8182    6.9763   13.5256 H   0  0  0  0  0  0  0  0  0  0  0  0
 18 19  1  0  0  0
 19 20  1  0  0  0
 19 21  1  0  0  0
 19 14  1  0  0  0
 14 15  2  0  0  0
 14 16  1  0  0  0
 16 13  1  0  0  0
 13  1  1  0  0  0
  1  2  2  0  0  0
  2  3  1  0  0  0
  3  4  2  0  0  0
  4  5  1  0  0  0
  5  6  2  0  0  0
  5  7  1  0  0  0
  7  8  2  0  0  0
  8  9  1  0  0  0
  9 10  2  0  0  0
 10 11  1  0  0  0
 11 12  2  0  0  0
  6  1  1  0  0  0
 12  7  1  0  0  0
 21 22  1  0  0  0
 21 23  1  0  0  0
 16 17  1  0  0  0
M  END
> <minimizedAffinity>
-7.07157

> <CNNscore>
0.5235941410

> <CNNaffinity>
5.2706756592

> <CNN_VS>
2.7596948147

> <CNNaffinity_variance>
0.1284217685

$$$$
[H]c1nc([H])c(-c2c([H])c([H])c([H])c(C([H])([H])N([H])C(=O)C(N([H])[H])(C([H])([H])[H])C([H])([H])[H])c2[H])c([H])c1[H]


 23 24  0  0  0  0  0  0  0  0999 V2000
    5.5559    3.9507   20.6853 C   0  0  0  0  0  0  0  0  0  0  0  0
    5.7269    2.8976   21.5506 C   0  0  0  0  0  0  0  0  0  0  0  0
    5.3616    1.6119   21.1732 C   0  0  0  0  0  0  0  0  0  0  0  0
    4.8169    1.3818   19.9093 C   0  0  0  0  0  0  0  0  0  0  0  0
    4.6379    2.4263   19.0281 C   0  0  0  0  0  0  0  0  0  0  0  0
    5.0116    3.6750   19.4417 C   0  0  0  0  0  0  0  0  0  0  0  0
    4.0670    2.1718   17.7087 C   0  0  0  0  0  0  0  0  0  0  0  0
    4.2242    3.0334   16.6489 C   0  0  0  0  0  0  0  0  0  0  0  0
    3.6689    2.7592   15.4139 C   0  0  0  0  0  0  0  0  0  0  0  0
    2.9476    1.5867   15.2760 C   0  0  0  0  0  0  0  0  0  0  0  0
    2.7851    0.7264   16.3167 N   0  0  0  0  0  0  0  0  0  0  0  0
    3.3338    1.0127   17.5100 C   0  0  0  0  0  0  0  0  0  0  0  0
    5.9555    5.3037   21.1070 C   0  0  0  0  0  0  0  0  0  0  0  0
    6.9282    7.3558   20.1398 C   0  0  0  0  0  0  0  0  0  0  0  0
    7.6705    7.4646   21.1443 O   0  0  0  0  0  0  0  0  0  0  0  0
    6.0332    6.2724   20.0681 N   0  0  0  0  0  0  0  0  0  0  0  0
    5.4257    6.2034   19.2234 H   0  0  0  0  0  0  0  0  0  0  0  0
    6.8133    9.7826   19.6104 C   0  0  0  0  0  0  0  0  0  0  0  0
    7.0428    8.3878   19.0797 C   0  0  0  0  0  0  0  0  0  0  0  0
    6.0622    8.1527   17.9537 C   0  0  0  0  0  0  0  0  0  0  0  0
    8.3689    8.3517   18.5078 N   0  0  0  0  0  0  0  0  0  0  0  0
    9.0412    8.6603   19.2161 H   0  0  0  0  0  0  0  0  0  0  0  0
    8.4225    8.8073   17.5897 H   0  0  0  0  0  0  0  0  0  0  0  0
 18 19  1  0  0  0
 19 20  1  0  0  0
 19 21  1  0  0  0
 19 14  1  0  0  0
 14 15  2  0  0  0
 14 16  1  0  0  0
 16 13  1  0  0  0
 13  1  1  0  0  0
  1  2  2  0  0  0
  2  3  1  0  0  0
  3  4  2  0  0  0
  4  5  1  0  0  0
  5  6  2  0  0  0
  5  7  1  0  0  0
  7  8  2  0  0  0
  8  9  1  0  0  0
  9 10  2  0  0  0
 10 11  1  0  0  0
 11 12  2  0  0  0
  6  1  1  0  0  0
 12  7  1  0  0  0
 21 22  1  0  0  0
 21 23  1  0  0  0
 16 17  1  0  0  0
M  END
> <minimizedAffinity>
-6.91719

> <CNNscore>
0.4827432930

> <CNNaffinity>
4.9930772781

> <CNN_VS>
2.4103746414

> <CNNaffinity_variance>
0.3797590137

$$$$
[H]c1nc([H])c(-c2c([H])c([H])c([H])c(C([H])([H])N([H])C(=O)C(N([H])[H])(C([H])([H])[H])C([H])([H])[H])c2[H])c([H])c1[H]


 23 24  0  0  0  0  0  0  0  0999 V2000
    4.9502    1.7780   21.4499 C   0  0  0  0  0  0  0  0  0  0  0  0
    4.2564    0.7287   22.0021 C   0  0  0  0  0  0  0  0  0  0  0  0
    3.3946   -0.0314   21.2223 C   0  0  0  0  0  0  0  0  0  0  0  0
    3.2277    0.2671   19.8694 C   0  0  0  0  0  0  0  0  0  0  0  0
    3.9154    1.3162   19.2985 C   0  0  0  0  0  0  0  0  0  0  0  0
    4.7530    2.0374   20.1036 C   0  0  0  0  0  0  0  0  0  0  0  0
    3.7318    1.6178   17.8818 C   0  0  0  0  0  0  0  0  0  0  0  0
    3.0283    0.7996   17.0298 C   0  0  0  0  0  0  0  0  0  0  0  0
    2.8754    1.1178   15.6941 C   0  0  0  0  0  0  0  0  0  0  0  0
    3.4538    2.2893   15.2389 C   0  0  0  0  0  0  0  0  0  0  0  0
    4.1519    3.1069   16.0717 N   0  0  0  0  0  0  0  0  0  0  0  0
    4.2887    2.7782   17.3680 C   0  0  0  0  0  0  0  0  0  0  0  0
    5.8616    2.5659   22.2964 C   0  0  0  0  0  0  0  0  0  0  0  0
    5.3964    4.9900   22.2910 C   0  0  0  0  0  0  0  0  0  0  0  0
    4.4705    4.8033   23.1155 O   0  0  0  0  0  0  0  0  0  0  0  0
    6.1390    3.8839   21.8384 N   0  0  0  0  0  0  0  0  0  0  0  0
    6.9034    4.0639   21.1524 H   0  0  0  0  0  0  0  0  0  0  0  0
    6.0833    6.4451   20.3952 C   0  0  0  0  0  0  0  0  0  0  0  0
    5.6520    6.3807   21.8407 C   0  0  0  0  0  0  0  0  0  0  0  0
    6.7168    7.0574   22.6731 C   0  0  0  0  0  0  0  0  0  0  0  0
    4.4446    7.1632   21.9708 N   0  0  0  0  0  0  0  0  0  0  0  0
    3.7542    6.8169   21.2982 H   0  0  0  0  0  0  0  0  0  0  0  0
    4.6203    8.1744   21.9741 H   0  0  0  0  0  0  0  0  0  0  0  0
 18 19  1  0  0  0
 19 20  1  0  0  0
 19 21  1  0  0  0
 19 14  1  0  0  0
 14 15  2  0  0  0
 14 16  1  0  0  0
 16 13  1  0  0  0
 13  1  1  0  0  0
  1  2  2  0  0  0
  2  3  1  0  0  0
  3  4  2  0  0  0
  4  5  1  0  0  0
  5  6  2  0  0  0
  5  7  1  0  0  0
  7  8  2  0  0  0
  8  9  1  0  0  0
  9 10  2  0  0  0
 10 11  1  0  0  0
 11 12  2  0  0  0
  6  1  1  0  0  0
 12  7  1  0  0  0
 21 22  1  0  0  0
 21 23  1  0  0  0
 16 17  1  0  0  0
M  END
> <minimizedAffinity>
-7.86019

> <CNNscore>
0.4228062630

> <CNNaffinity>
5.3209714890

> <CNN_VS>
2.2497401237

> <CNNaffinity_variance>
0.2730745673

$$$$
[H]c1nc([H])c(-c2c([H])c([H])c([H])c(C([H])([H])N([H])C(=O)C(N([H])[H])(C([H])([H])[H])C([H])([H])[H])c2[H])c([H])c1[H]


 23 24  0  0  0  0  0  0  0  0999 V2000
    4.8085    5.4565   18.4377 C   0  0  0  0  0  0  0  0  0  0  0  0
    5.6849    6.1354   19.2489 C   0  0  0  0  0  0  0  0  0  0  0  0
    6.0720    5.5983   20.4697 C   0  0  0  0  0  0  0  0  0  0  0  0
    5.5713    4.3623   20.8807 C   0  0  0  0  0  0  0  0  0  0  0  0
    4.6910    3.6671   20.0800 C   0  0  0  0  0  0  0  0  0  0  0  0
    4.3376    4.2336   18.8866 C   0  0  0  0  0  0  0  0  0  0  0  0
    4.1748    2.3748   20.5218 C   0  0  0  0  0  0  0  0  0  0  0  0
    3.9451    2.0756   21.8438 C   0  0  0  0  0  0  0  0  0  0  0  0
    3.4558    0.8410   22.2247 C   0  0  0  0  0  0  0  0  0  0  0  0
    3.2030   -0.0881   21.2311 C   0  0  0  0  0  0  0  0  0  0  0  0
    3.4261    0.1959   19.9200 N   0  0  0  0  0  0  0  0  0  0  0  0
    3.9027    1.4036   19.5714 C   0  0  0  0  0  0  0  0  0  0  0  0
    4.4171    6.0447   17.1459 C   0  0  0  0  0  0  0  0  0  0  0  0
    3.1164    4.6943   15.5404 C   0  0  0  0  0  0  0  0  0  0  0  0
    2.0566    5.1132   16.0630 O   0  0  0  0  0  0  0  0  0  0  0  0
    4.3499    5.1363   16.0531 N   0  0  0  0  0  0  0  0  0  0  0  0
    5.2176    4.7736   15.6026 H   0  0  0  0  0  0  0  0  0  0  0  0
    3.2662    2.3208   14.8142 C   0  0  0  0  0  0  0  0  0  0  0  0
    3.0001    3.7490   14.4025 C   0  0  0  0  0  0  0  0  0  0  0  0
    3.9537    4.0939   13.2816 C   0  0  0  0  0  0  0  0  0  0  0  0
    1.6625    3.8042   13.8596 N   0  0  0  0  0  0  0  0  0  0  0  0
    1.0103    3.4260   14.5528 H   0  0  0  0  0  0  0  0  0  0  0  0
    1.5994    3.4231   12.9088 H   0  0  0  0  0  0  0  0  0  0  0  0
 18 19  1  0  0  0
 19 20  1  0  0  0
 19 21  1  0  0  0
 19 14  1  0  0  0
 14 15  2  0  0  0
 14 16  1  0  0  0
 16 13  1  0  0  0
 13  1  1  0  0  0
  1  2  2  0  0  0
  2  3  1  0  0  0
  3  4  2  0  0  0
  4  5  1  0  0  0
  5  6  2  0  0  0
  5  7  1  0  0  0
  7  8  2  0  0  0
  8  9  1  0  0  0
  9 10  2  0  0  0
 10 11  1  0  0  0
 11 12  2  0  0  0
  6  1  1  0  0  0
 12  7  1  0  0  0
 21 22  1  0  0  0
 21 23  1  0  0  0
 16 17  1  0  0  0
M  END
> <minimizedAffinity>
-6.55027

> <CNNscore>
0.4109609723

> <CNNaffinity>
5.1246404648

> <CNN_VS>
2.1060271263

> <CNNaffinity_variance>
0.6196594834

$$$$
[H]c1nc([H])c(-c2c([H])c([H])c([H])c(C([H])([H])N([H])C(=O)C(N([H])[H])(C([H])([H])[H])C([H])([H])[H])c2[H])c([H])c1[H]


 23 24  0  0  0  0  0  0  0  0999 V2000
    2.4313    2.4525   13.4376 C   0  0  0  0  0  0  0  0  0  0  0  0
    3.2594    3.5411   13.3105 C   0  0  0  0  0  0  0  0  0  0  0  0
    4.0589    3.9433   14.3724 C   0  0  0  0  0  0  0  0  0  0  0  0
    4.0255    3.2420   15.5784 C   0  0  0  0  0  0  0  0  0  0  0  0
    3.2006    2.1475   15.7241 C   0  0  0  0  0  0  0  0  0  0  0  0
    2.4311    1.7873   14.6527 C   0  0  0  0  0  0  0  0  0  0  0  0
    3.1753    1.4225   16.9911 C   0  0  0  0  0  0  0  0  0  0  0  0
    2.4417    0.2752   17.1797 C   0  0  0  0  0  0  0  0  0  0  0  0
    2.4420   -0.3843   18.3937 C   0  0  0  0  0  0  0  0  0  0  0  0
    3.2061    0.1473   19.4173 C   0  0  0  0  0  0  0  0  0  0  0  0
    3.9361    1.2816   19.2431 N   0  0  0  0  0  0  0  0  0  0  0  0
    3.9214    1.9074   18.0535 C   0  0  0  0  0  0  0  0  0  0  0  0
    1.5968    2.0430   12.2957 C   0  0  0  0  0  0  0  0  0  0  0  0
    0.2387    3.7874   11.1979 C   0  0  0  0  0  0  0  0  0  0  0  0
    1.2212    4.0843   10.4780 O   0  0  0  0  0  0  0  0  0  0  0  0
    0.3740    2.7538   12.1430 N   0  0  0  0  0  0  0  0  0  0  0  0
   -0.4565    2.5254   12.7306 H   0  0  0  0  0  0  0  0  0  0  0  0
   -0.8541    5.6815   10.0142 C   0  0  0  0  0  0  0  0  0  0  0  0
   -1.0174    4.5536   11.0046 C   0  0  0  0  0  0  0  0  0  0  0  0
   -1.5243    5.1438   12.3005 C   0  0  0  0  0  0  0  0  0  0  0  0
   -2.0488    3.6767   10.5006 N   0  0  0  0  0  0  0  0  0  0  0  0
   -1.7977    3.3850    9.5514 H   0  0  0  0  0  0  0  0  0  0  0  0
   -2.9948    4.0516   10.6342 H   0  0  0  0  0  0  0  0  0  0  0  0
 18 19  1  0  0  0
 19 20  1  0  0  0
 19 21  1  0  0  0
 19 14  1  0  0  0
 14 15  2  0  0  0
 14 16  1  0  0  0
 16 13  1  0  0  0
 13  1  1  0  0  0
  1  2  2  0  0  0
  2  3  1  0  0  0
  3  4  2  0  0  0
  4  5  1  0  0  0
  5  6  2  0  0  0
  5  7  1  0  0  0
  7  8  2  0  0  0
  8  9  1  0  0  0
  9 10  2  0  0  0
 10 11  1  0  0  0
 11 12  2  0  0  0
  6  1  1  0  0  0
 12  7  1  0  0  0
 21 22  1  0  0  0
 21 23  1  0  0  0
 16 17  1  0  0  0
M  END
> <minimizedAffinity>
-6.38574

> <CNNscore>
0.3818954825

> <CNNaffinity>
4.5875782967

> <CNN_VS>
1.7519754171

> <CNNaffinity_variance>
0.2302464992

$$$$
